REMARK  Name = ZINC02742029
REMARK  6 active torsions:
REMARK  status: ('A' for Active; 'I' for Inactive)
REMARK    1  A    between atoms: C_1  and  C_2
REMARK    2  A    between atoms: N_4  and  C_5
REMARK    3  A    between atoms: C_8  and  S_11
REMARK    4  A    between atoms: S_11  and  N_14
REMARK    5  A    between atoms: N_14  and  C_15
REMARK    6  A    between atoms: C_16  and  C_26
REMARK                            x       y       z     vdW  Elec       q    Type
REMARK                         _______ _______ _______ _____ _____    ______ ____
ROOT
ATOM      1  N   UNL     1       0.093   1.140   0.095  0.00  0.00    -0.209 N 
ATOM      2  H   UNL     1       0.231   0.180   0.082  0.00  0.00    +0.174 HD
ENDROOT
BRANCH   1   3
ATOM      3  C   UNL     1       1.178   1.993   0.178  0.00  0.00    +0.098 A 
ATOM      4  C   UNL     1       2.521   1.673   0.259  0.00  0.00    +0.069 A 
ATOM      5  C   UNL     1       3.495   2.771   0.317  0.00  0.00    -0.023 A 
ATOM      6  C   UNL     1       2.939   3.992   0.332  0.00  0.00    -0.004 A 
ATOM      7  S   UNL     1       1.189   3.723   0.217  0.00  0.00    -0.076 S 
ATOM      8  C   UNL     1       3.612   5.329   0.481  0.00  0.00    +0.043 C 
ATOM      9  C   UNL     1       3.883   5.523   1.983  0.00  0.00    +0.005 C 
ATOM     10  C   UNL     1       4.659   4.302   2.493  0.00  0.00    +0.000 C 
ATOM     11  C   UNL     1       5.961   4.302   1.722  0.00  0.00    +0.000 C 
ATOM     12  C   UNL     1       5.866   3.669   0.345  0.00  0.00    +0.005 C 
ATOM     13  C   UNL     1       4.985   2.426   0.332  0.00  0.00    +0.037 C 
BRANCH   4  14
ATOM     14  C   UNL     1       2.961   0.276   0.280  0.00  0.00    +0.244 C 
ATOM     15  O   UNL     1       3.207  -0.301  -0.763  0.00  0.00    -0.270 OA
ATOM     16  N   UNL     1       3.092  -0.371   1.455  0.00  0.00    -0.325 N 
ATOM     17  H   UNL     1       2.896   0.088   2.287  0.00  0.00    +0.145 HD
ATOM     18  H   UNL     1       3.383  -1.296   1.470  0.00  0.00    +0.145 HD
ENDBRANCH   4  14
ENDBRANCH   1   3
BRANCH   1  19
ATOM     19  S   UNL     1      -1.441   1.758   0.008  0.00  0.00    +0.073 S 
ATOM     20  O   UNL     1      -2.321   0.648  -0.101  0.00  0.00    -0.150 OA
ATOM     21  O   UNL     1      -1.551   2.718   1.050  0.00  0.00    -0.150 OA
BRANCH  19  25
ATOM     22  C   UNL     1      -1.748   4.041  -3.891  0.00  0.00    +0.033 A 
ATOM     23  C   UNL     1      -2.071   2.692  -3.848  0.00  0.00    +0.025 A 
ATOM     24  C   UNL     1      -1.977   1.998  -2.657  0.00  0.00    +0.030 A 
ATOM     25  C   UNL     1      -1.560   2.647  -1.509  0.00  0.00    +0.109 A 
ATOM     26  C   UNL     1      -1.242   3.992  -1.548  0.00  0.00    +0.030 A 
ATOM     27  C   UNL     1      -1.330   4.690  -2.736  0.00  0.00    +0.025 A 
BRANCH  22  31
ATOM     28  C   UNL     1      -2.824   5.103  -7.338  0.00  0.00    +0.109 C 
ATOM     29  C   UNL     1      -2.796   4.425  -5.992  0.00  0.00    +0.214 C 
ATOM     30  O   UNL     1      -3.632   3.591  -5.715  0.00  0.00    -0.276 OA
ATOM     31  N   UNL     1      -1.842   4.747  -5.096  0.00  0.00    -0.286 N 
ATOM     32  H   UNL     1      -1.220   5.467  -5.286  0.00  0.00    +0.155 HD
ENDBRANCH  22  31
ENDBRANCH  19  25
ENDBRANCH   1  19
TORSDOF 5
