REMARK  Name = ZINC61373159
REMARK  6 active torsions:
REMARK  status: ('A' for Active; 'I' for Inactive)
REMARK    1  A    between atoms: C_1  and  N_2
REMARK    2  A    between atoms: N_5  and  C_6
REMARK    3  A    between atoms: C_10  and  N_12
REMARK    4  A    between atoms: C_13  and  C_15
REMARK    5  A    between atoms: C_16  and  C_17
REMARK    6  A    between atoms: N_26  and  C_27
REMARK                            x       y       z     vdW  Elec       q    Type
REMARK                         _______ _______ _______ _____ _____    ______ ____
ROOT
ATOM      1  N   UNL     1       2.072  -6.054  -3.097  0.00  0.00    -0.282 N 
ATOM      2  C   UNL     1       2.833  -6.663  -4.027  0.00  0.00    +0.241 C 
ATOM      3  O   UNL     1       3.396  -6.001  -4.881  0.00  0.00    -0.270 OA
ATOM      4  H   UNL     1       1.565  -6.585  -2.462  0.00  0.00    +0.155 HD
ENDROOT
BRANCH   1   9
ATOM      5  C   UNL     1       0.784  -2.641  -2.611  0.00  0.00    +0.037 A 
ATOM      6  C   UNL     1       1.904  -1.891  -2.948  0.00  0.00    +0.023 A 
ATOM      7  C   UNL     1       3.071  -2.523  -3.331  0.00  0.00    +0.004 A 
ATOM      8  C   UNL     1       3.129  -3.902  -3.381  0.00  0.00    +0.023 A 
ATOM      9  C   UNL     1       2.013  -4.659  -3.045  0.00  0.00    +0.035 A 
ATOM     10  C   UNL     1       0.841  -4.027  -2.654  0.00  0.00    +0.046 A 
BRANCH   5  15
ATOM     11  C   UNL     1      -3.117  -2.479   0.205  0.00  0.00    +0.129 C 
ATOM     12  N   UNL     1      -2.268  -1.885  -0.830  0.00  0.00    -0.302 N 
ATOM     13  C   UNL     1      -1.179  -2.547  -1.270  0.00  0.00    +0.304 C 
ATOM     14  O   UNL     1      -0.902  -3.636  -0.807  0.00  0.00    -0.253 OA
ATOM     15  N   UNL     1      -0.398  -2.001  -2.223  0.00  0.00    -0.269 N 
ATOM     16  H   UNL     1      -2.489  -1.016  -1.200  0.00  0.00    +0.150 HD
ATOM     17  H   UNL     1      -0.655  -1.163  -2.639  0.00  0.00    +0.156 HD
ENDBRANCH   5  15
ENDBRANCH   1   9
BRANCH   2  18
ATOM     18  C   UNL     1       2.984  -8.117  -4.013  0.00  0.00    +0.068 C 
ATOM     19  C   UNL     1       3.747  -8.726  -4.945  0.00  0.00    +0.013 C 
BRANCH  19  20
ATOM     20  C   UNL     1       3.898 -10.188  -4.930  0.00  0.00    -0.025 A 
ATOM     21  C   UNL     1       3.248 -10.951  -3.953  0.00  0.00    +0.010 A 
ATOM     22  C   UNL     1       3.393 -12.308  -3.942  0.00  0.00    +0.024 A 
ATOM     23  C   UNL     1       4.185 -12.940  -4.900  0.00  0.00    +0.033 A 
ATOM     24  C   UNL     1       4.833 -12.193  -5.877  0.00  0.00    -0.026 A 
ATOM     25  C   UNL     1       4.688 -10.821  -5.895  0.00  0.00    +0.013 A 
ATOM     26  C   UNL     1       5.687 -12.848  -6.931  0.00  0.00    +0.038 C 
ATOM     27  C   UNL     1       6.125 -14.240  -6.475  0.00  0.00    +0.024 C 
ATOM     28  C   UNL     1       4.887 -15.024  -6.019  0.00  0.00    +0.105 C 
ATOM     29  N   UNL     1       4.316 -14.328  -4.859  0.00  0.00    -0.333 N 
ATOM     30  C   UNL     1       3.891 -15.079  -3.675  0.00  0.00    +0.129 C 
ENDBRANCH  19  20
ENDBRANCH   2  18
TORSDOF 4
