REMARK  Name = ZINC13503472
REMARK  8 active torsions:
REMARK  status: ('A' for Active; 'I' for Inactive)
REMARK    1  A    between atoms: C_1  and  C_2
REMARK    2  A    between atoms: C_2  and  C_3
REMARK    3  A    between atoms: C_10  and  C_30
REMARK    4  A    between atoms: C_11  and  S_13
REMARK    5  A    between atoms: S_13  and  C_14
REMARK    6  A    between atoms: C_14  and  C_15
REMARK    7  A    between atoms: N_17  and  C_18
REMARK    8  A    between atoms: C_19  and  C_27
REMARK                            x       y       z     vdW  Elec       q    Type
REMARK                         _______ _______ _______ _____ _____    ______ ____
ROOT
ATOM      1  C   UNL     1      -0.742   1.585  -1.213  0.00  0.00    +0.228 C 
ATOM      2  O   UNL     1      -1.736   2.268  -1.088  0.00  0.00    -0.275 OA
ATOM      3  N   UNL     1      -0.288   1.272  -2.443  0.00  0.00    -0.279 N 
ATOM      4  H   UNL     1       0.507   0.726  -2.543  0.00  0.00    +0.155 HD
ENDROOT
BRANCH   3   5
ATOM      5  C   UNL     1      -0.959   1.732  -3.566  0.00  0.00    +0.084 A 
ATOM      6  C   UNL     1      -0.647   1.523  -4.902  0.00  0.00    +0.068 A 
ATOM      7  C   UNL     1      -1.523   2.118  -5.897  0.00  0.00    -0.023 A 
ATOM      8  C   UNL     1      -2.558   2.829  -5.401  0.00  0.00    -0.004 A 
ATOM      9  S   UNL     1      -2.386   2.712  -3.643  0.00  0.00    -0.077 S 
ATOM     10  C   UNL     1      -3.612   3.554  -6.180  0.00  0.00    +0.043 C 
ATOM     11  C   UNL     1      -3.135   3.685  -7.634  0.00  0.00    +0.005 C 
ATOM     12  C   UNL     1      -2.628   2.321  -8.111  0.00  0.00    +0.005 C 
ATOM     13  C   UNL     1      -1.318   1.975  -7.401  0.00  0.00    +0.037 C 
BRANCH   6  14
ATOM     14  C   UNL     1       0.521   0.728  -5.295  0.00  0.00    +0.244 C 
ATOM     15  O   UNL     1       0.412  -0.473  -5.461  0.00  0.00    -0.270 OA
ATOM     16  N   UNL     1       1.715   1.327  -5.473  0.00  0.00    -0.325 N 
ATOM     17  H   UNL     1       1.802   2.284  -5.340  0.00  0.00    +0.145 HD
ATOM     18  H   UNL     1       2.487   0.801  -5.732  0.00  0.00    +0.145 HD
ENDBRANCH   6  14
ENDBRANCH   3   5
BRANCH   1  19
ATOM     19  C   UNL     1      -0.013   1.086   0.008  0.00  0.00    +0.172 C 
BRANCH  19  20
ATOM     20  S   UNL     1      -0.860   1.669   1.497  0.00  0.00    -0.095 S 
BRANCH  20  29
ATOM     21  C   UNL     1       3.716  -1.472   5.159  0.00  0.00    -0.047 A 
ATOM     22  C   UNL     1       3.958  -1.639   3.797  0.00  0.00    +0.006 A 
ATOM     23  C   UNL     1       3.140  -1.077   2.864  0.00  0.00    +0.028 A 
ATOM     24  C   UNL     1       2.033  -0.315   3.274  0.00  0.00    +0.072 A 
ATOM     25  C   UNL     1       1.789  -0.146   4.660  0.00  0.00    +0.002 A 
ATOM     26  C   UNL     1       2.654  -0.740   5.595  0.00  0.00    +0.013 A 
ATOM     27  C   UNL     1       0.682   0.615   5.077  0.00  0.00    +0.031 A 
ATOM     28  C   UNL     1      -0.129   1.178   4.101  0.00  0.00    +0.084 A 
ATOM     29  C   UNL     1       0.174   0.961   2.735  0.00  0.00    +0.115 A 
ATOM     30  N   UNL     1       1.217   0.244   2.372  0.00  0.00    -0.239 NA
BRANCH  21  32
ATOM     31  C   UNL     1       4.139  -3.512   6.504  0.00  0.00    +0.009 C 
ATOM     32  C   UNL     1       4.643  -2.108   6.162  0.00  0.00    +0.032 C 
ENDBRANCH  21  32
BRANCH  28  33
ATOM     33  C   UNL     1      -1.266   1.966   4.472  0.00  0.00    +0.102 C 
ATOM     34  N   UNL     1      -2.167   2.591   4.767  0.00  0.00    -0.191 NA
ENDBRANCH  28  33
ENDBRANCH  20  29
ENDBRANCH  19  20
ENDBRANCH   1  19
TORSDOF 7
