REMARK  Name = ZINC35397599
REMARK  4 active torsions:
REMARK  status: ('A' for Active; 'I' for Inactive)
REMARK    1  A    between atoms: C_5  and  S_6
REMARK    2  A    between atoms: S_6  and  N_9
REMARK    3  A    between atoms: N_9  and  C_10
REMARK    4  A    between atoms: C_12  and  C_24
REMARK                            x       y       z     vdW  Elec       q    Type
REMARK                         _______ _______ _______ _____ _____    ______ ____
ROOT
ATOM      1  C   UNL     1      -2.770  -2.343  -1.872  0.00  0.00    +0.091 A 
ATOM      2  C   UNL     1      -3.285  -2.377  -3.161  0.00  0.00    +0.046 A 
ATOM      3  C   UNL     1      -4.371  -3.225  -3.420  0.00  0.00    +0.103 A 
ATOM      4  C   UNL     1      -4.891  -4.001  -2.368  0.00  0.00    +0.113 A 
ATOM      5  N   UNL     1      -4.362  -3.930  -1.157  0.00  0.00    -0.347 N 
ATOM      6  C   UNL     1      -3.337  -3.146  -0.889  0.00  0.00    +0.110 A 
ATOM      7  N   UNL     1      -5.963  -4.844  -2.602  0.00  0.00    -0.316 N 
ATOM      8  C   UNL     1      -5.774  -6.302  -2.609  0.00  0.00    +0.106 C 
ATOM      9  C   UNL     1      -5.448  -6.768  -1.196  0.00  0.00    +0.019 C 
ATOM     10  C   UNL     1      -6.719  -6.692  -0.334  0.00  0.00    +0.002 C 
ATOM     11  C   UNL     1      -6.970  -5.245   0.074  0.00  0.00    +0.000 C 
ATOM     12  C   UNL     1      -8.259  -4.711  -0.576  0.00  0.00    +0.002 C 
ATOM     13  C   UNL     1      -8.306  -5.126  -2.046  0.00  0.00    +0.019 C 
ATOM     14  C   UNL     1      -7.289  -4.298  -2.836  0.00  0.00    +0.106 C 
ATOM     15  H   UNL     1      -4.737  -4.475  -0.447  0.00  0.00    +0.167 HD
ENDROOT
BRANCH   3  16
ATOM     16  C   UNL     1      -4.957  -3.301  -4.766  0.00  0.00    +0.390 C 
ATOM     17  O   UNL     1      -4.578  -2.536  -5.643  0.00  0.00    -0.240 OA
ATOM     18  O   UNL     1      -5.823  -4.130  -5.011  0.00  0.00    -0.240 OA
ENDBRANCH   3  16
BRANCH   1  19
ATOM     19  N   UNL     1      -1.686  -1.511  -1.567  0.00  0.00    -0.096 NA
BRANCH  19  20
ATOM     20  S   UNL     1      -1.073  -1.481  -0.029  0.00  0.00    +0.098 S 
ATOM     21  O   UNL     1      -0.510  -2.763   0.210  0.00  0.00    -0.148 OA
ATOM     22  O   UNL     1      -2.085  -0.927   0.801  0.00  0.00    -0.148 OA
BRANCH  20  27
ATOM     23  C   UNL     1       0.248   0.997   0.229  0.00  0.00    +0.038 A 
ATOM     24  C   UNL     1       1.434   1.705   0.177  0.00  0.00    +0.025 A 
ATOM     25  C   UNL     1       2.580   1.046  -0.126  0.00  0.00    +0.057 A 
ATOM     26  S   UNL     1       1.996  -0.626  -0.348  0.00  0.00    -0.061 S 
ATOM     27  C   UNL     1       0.266  -0.334  -0.023  0.00  0.00    +0.149 A 
ATOM     28 BR   UNL     1       4.339   1.724  -0.274  0.00  0.00    -0.043 Br
ENDBRANCH  20  27
ENDBRANCH  19  20
ENDBRANCH   1  19
TORSDOF 4
