REMARK  Name = ZINC48321945
REMARK  9 active torsions:
REMARK  status: ('A' for Active; 'I' for Inactive)
REMARK    1  A    between atoms: C_1  and  C_2
REMARK    2  A    between atoms: C_2  and  N_3
REMARK    3  A    between atoms: C_4  and  C_6
REMARK    4  A    between atoms: C_6  and  O_7
REMARK    5  A    between atoms: O_7  and  C_8
REMARK    6  A    between atoms: C_12  and  N_14
REMARK    7  A    between atoms: C_15  and  C_17
REMARK    8  A    between atoms: C_21  and  N_24
REMARK    9  A    between atoms: C_22  and  N_23
REMARK                            x       y       z     vdW  Elec       q    Type
REMARK                         _______ _______ _______ _____ _____    ______ ____
ROOT
ATOM      1  N   UNL     1       2.668  -7.825  -5.537  0.00  0.00    -0.281 N 
ATOM      2  C   UNL     1       1.812  -8.502  -4.747  0.00  0.00    +0.250 C 
ATOM      3  O   UNL     1       0.883  -7.920  -4.219  0.00  0.00    -0.270 OA
ATOM      4  H   UNL     1       3.364  -8.301  -6.017  0.00  0.00    +0.155 HD
ENDROOT
BRANCH   2   5
ATOM      5  C   UNL     1       2.000  -9.946  -4.522  0.00  0.00    +0.063 A 
ATOM      6  C   UNL     1       3.114 -10.601  -5.054  0.00  0.00    +0.053 A 
ATOM      7  C   UNL     1       3.285 -11.953  -4.840  0.00  0.00    +0.126 A 
ATOM      8  C   UNL     1       2.355 -12.667  -4.097  0.00  0.00    +0.073 A 
ATOM      9  C   UNL     1       1.250 -12.033  -3.566  0.00  0.00    +0.150 A 
ATOM     10  C   UNL     1       1.065 -10.671  -3.766  0.00  0.00    +0.068 A 
ATOM     11  F   UNL     1       4.362 -12.585  -5.355  0.00  0.00    -0.205 F 
BRANCH  10  12
ATOM     12  N   UNL     1      -0.043 -10.030  -3.226  0.00  0.00    -0.356 N 
ATOM     13  H   UNL     1      -0.888 -10.501  -3.152  0.00  0.00    +0.142 HD
ATOM     14  H   UNL     1       0.027  -9.111  -2.924  0.00  0.00    +0.142 HD
ENDBRANCH  10  12
BRANCH   9  15
ATOM     15  N   UNL     1       0.265 -12.804  -2.775  0.00  0.00    +0.058 N 
ATOM     16  O   UNL     1       0.368 -14.005  -2.687  0.00  0.00    -0.126 OA
ATOM     17  O   UNL     1      -0.644 -12.233  -2.219  0.00  0.00    -0.126 OA
ENDBRANCH   9  15
ENDBRANCH   2   5
BRANCH   1  22
ATOM     18  C   UNL     1       2.010  -4.298  -4.720  0.00  0.00    +0.123 A 
ATOM     19  C   UNL     1       2.332  -3.688  -5.924  0.00  0.00    +0.046 A 
ATOM     20  C   UNL     1       2.762  -4.450  -6.994  0.00  0.00    +0.005 A 
ATOM     21  C   UNL     1       2.875  -5.821  -6.868  0.00  0.00    +0.023 A 
ATOM     22  C   UNL     1       2.555  -6.437  -5.665  0.00  0.00    +0.037 A 
ATOM     23  C   UNL     1       2.127  -5.673  -4.588  0.00  0.00    +0.069 A 
BRANCH  18  24
ATOM     24  O   UNL     1       1.587  -3.548  -3.669  0.00  0.00    -0.483 OA
BRANCH  24  25
ATOM     25  C   UNL     1       1.491  -2.137  -3.876  0.00  0.00    +0.324 C 
BRANCH  25  27
ATOM     26  N   UNL     1       0.842  -0.139  -2.571  0.00  0.00    -0.313 N 
ATOM     27  C   UNL     1       1.009  -1.476  -2.611  0.00  0.00    +0.251 C 
ATOM     28  O   UNL     1       0.772  -2.146  -1.628  0.00  0.00    -0.272 OA
ATOM     29  H   UNL     1       1.031   0.397  -3.357  0.00  0.00    +0.149 HD
BRANCH  26  31
ATOM     30  C   UNL     1       0.270   2.015  -1.563  0.00  0.00    +0.024 C 
ATOM     31  C   UNL     1       0.374   0.505  -1.341  0.00  0.00    +0.101 C 
ENDBRANCH  26  31
ENDBRANCH  25  27
ENDBRANCH  24  25
ENDBRANCH  18  24
ENDBRANCH   1  22
TORSDOF 8
