REMARK  Name = ZINC66402903
REMARK  2 active torsions:
REMARK  status: ('A' for Active; 'I' for Inactive)
REMARK    1  A    between atoms: C_2  and  C_13
REMARK    2  A    between atoms: C_8  and  N_9
REMARK                            x       y       z     vdW  Elec       q    Type
REMARK                         _______ _______ _______ _____ _____    ______ ____
ROOT
ATOM      1  C   UNL     1      -0.009   1.359   0.019  0.00  0.00    +0.042 A 
ATOM      2  C   UNL     1       1.208   2.056   0.014  0.00  0.00    +0.073 A 
ATOM      3  C   UNL     1       2.377   1.377  -0.004  0.00  0.00    +0.098 A 
ATOM      4  N   UNL     1       2.393   0.017  -0.018  0.00  0.00    -0.327 N 
ATOM      5  H   UNL     1       3.242  -0.452  -0.031  0.00  0.00    +0.168 HD
ATOM      6  C   UNL     1       1.244  -0.685  -0.013  0.00  0.00    +0.270 A 
ATOM      7  O   UNL     1       1.274  -1.905  -0.025  0.00  0.00    -0.266 OA
ATOM      8  C   UNL     1       0.005  -0.009   0.005  0.00  0.00    +0.100 A 
ENDROOT
BRANCH   8   9
ATOM      9  N   UNL     1      -1.198  -0.730   0.010  0.00  0.00    -0.265 N 
ATOM     10  C   UNL     1      -1.482  -1.573  -1.002  0.00  0.00    +0.301 C 
ATOM     11  O   UNL     1      -0.660  -1.773  -1.876  0.00  0.00    -0.253 OA
ATOM     12  N   UNL     1      -2.677  -2.194  -1.047  0.00  0.00    -0.313 N 
ATOM     13  H   UNL     1      -1.825  -0.623   0.742  0.00  0.00    +0.157 HD
ATOM     14  H   UNL     1      -3.333  -2.034  -0.350  0.00  0.00    +0.146 HD
ATOM     15  H   UNL     1      -2.882  -2.800  -1.776  0.00  0.00    +0.146 HD
ENDBRANCH   8   9
BRANCH   2  16
ATOM     16  C   UNL     1       1.213   3.563   0.028  0.00  0.00    +0.419 C 
ATOM     17  F   UNL     1       2.533   4.025   0.020  0.00  0.00    -0.166 F 
ATOM     18  F   UNL     1       0.544   4.043  -1.103  0.00  0.00    -0.166 F 
ATOM     19  F   UNL     1       0.566   4.021   1.181  0.00  0.00    -0.166 F 
ENDBRANCH   2  16
TORSDOF 2
