REMARK  Name = ZINC08645560
REMARK  6 active torsions:
REMARK  status: ('A' for Active; 'I' for Inactive)
REMARK    1  A    between atoms: C_1  and  C_2
REMARK    2  A    between atoms: C_8  and  N_10
REMARK    3  A    between atoms: C_14  and  C_16
REMARK    4  A    between atoms: C_16  and  N_17
REMARK    5  A    between atoms: C_20  and  C_24
REMARK    6  A    between atoms: C_20  and  C_25
REMARK                            x       y       z     vdW  Elec       q    Type
REMARK                         _______ _______ _______ _____ _____    ______ ____
ROOT
ATOM      1  N   UNL     1       3.890   4.005  -1.824  0.00  0.00    -0.215 N 
ATOM      2  C   UNL     1       2.777   4.577  -1.322  0.00  0.00    +0.251 C 
ATOM      3  O   UNL     1       2.120   5.463  -1.824  0.00  0.00    -0.272 OA
ATOM      4  C   UNL     1       2.519   3.881  -0.001  0.00  0.00    +0.136 C 
ATOM      5  N   UNL     1       3.619   2.906   0.098  0.00  0.00    -0.281 N 
ATOM      6  C   UNL     1       4.365   3.054  -1.012  0.00  0.00    +0.310 C 
ATOM      7  O   UNL     1       5.360   2.398  -1.250  0.00  0.00    -0.252 OA
ATOM      8  C   UNL     1       2.579   4.879   1.158  0.00  0.00    +0.047 C 
ATOM      9  H   UNL     1       3.775   2.279   0.821  0.00  0.00    +0.152 HD
ENDROOT
BRANCH   4  10
ATOM     10  C   UNL     1       1.187   3.177  -0.024  0.00  0.00    -0.008 A 
ATOM     11  C   UNL     1       1.128   1.822   0.091  0.00  0.00    +0.007 A 
ATOM     12  C   UNL     1      -0.095   1.153   0.073  0.00  0.00    +0.001 A 
ATOM     13  C   UNL     1      -1.265   1.835  -0.067  0.00  0.00    +0.008 A 
ATOM     14  C   UNL     1      -1.243   3.236  -0.182  0.00  0.00    -0.018 A 
ATOM     15  C   UNL     1       0.000   3.916  -0.163  0.00  0.00    -0.012 A 
ATOM     16  C   UNL     1       0.022   5.316  -0.285  0.00  0.00    +0.009 A 
ATOM     17  C   UNL     1      -1.148   5.998  -0.419  0.00  0.00    +0.001 A 
ATOM     18  C   UNL     1      -2.371   5.329  -0.437  0.00  0.00    +0.001 A 
ATOM     19  C   UNL     1      -2.431   3.974  -0.322  0.00  0.00    +0.008 A 
ENDBRANCH   4  10
BRANCH   1  20
ATOM     20  C   UNL     1       4.503   4.379  -3.101  0.00  0.00    +0.214 C 
BRANCH  20  25
ATOM     21  N   UNL     1       4.221   3.129  -7.735  0.00  0.00    -0.296 N 
ATOM     22  C   UNL     1       3.805   2.958  -6.464  0.00  0.00    +0.306 C 
ATOM     23  O   UNL     1       2.955   2.128  -6.209  0.00  0.00    -0.252 OA
ATOM     24  N   UNL     1       4.331   3.710  -5.476  0.00  0.00    -0.239 N 
ATOM     25  C   UNL     1       3.914   3.539  -4.206  0.00  0.00    +0.238 C 
ATOM     26  O   UNL     1       3.067   2.710  -3.951  0.00  0.00    -0.274 OA
ATOM     27  H   UNL     1       4.899   3.792  -7.938  0.00  0.00    +0.151 HD
ATOM     28  H   UNL     1       5.009   4.373  -5.680  0.00  0.00    +0.159 HD
BRANCH  21  35
ATOM     29  C   UNL     1       3.022   4.387 -10.052  0.00  0.00    +0.009 C 
ATOM     30  C   UNL     1       3.776   3.058 -10.139  0.00  0.00    +0.006 C 
ATOM     31  C   UNL     1       3.178   2.205 -11.260  0.00  0.00    +0.005 C 
ATOM     32  C   UNL     1       3.932   0.876 -11.346  0.00  0.00    +0.000 C 
ATOM     33  C   UNL     1       3.805   0.131 -10.016  0.00  0.00    +0.002 C 
ATOM     34  C   UNL     1       4.402   0.984  -8.895  0.00  0.00    +0.022 C 
ATOM     35  C   UNL     1       3.649   2.312  -8.808  0.00  0.00    +0.077 C 
ENDBRANCH  21  35
ENDBRANCH  20  25
ENDBRANCH   1  20
TORSDOF 4
