REMARK  Name = ZINC56206687
REMARK  10 active torsions:
REMARK  status: ('A' for Active; 'I' for Inactive)
REMARK    1  A    between atoms: C_1  and  C_2
REMARK    2  A    between atoms: C_4  and  O_23
REMARK    3  A    between atoms: C_7  and  N_8
REMARK    4  A    between atoms: N_8  and  C_9
REMARK    5  A    between atoms: C_9  and  C_11
REMARK    6  A    between atoms: C_9  and  C_12
REMARK    7  A    between atoms: N_14  and  C_15
REMARK    8  A    between atoms: C_15  and  C_16
REMARK    9  A    between atoms: O_23  and  C_24
REMARK   10  A    between atoms: C_24  and  C_25
REMARK                            x       y       z     vdW  Elec       q    Type
REMARK                         _______ _______ _______ _____ _____    ______ ____
ROOT
ATOM      1  N   UNL     1       0.025  -0.012   2.416  0.00  0.00    -0.333 N 
ATOM      2  H   UNL     1       0.012   0.958   2.422  0.00  0.00    +0.147 HD
ENDROOT
BRANCH   1   9
ATOM      3  C   UNL     1      -0.018   1.503   0.010  0.00  0.00    +0.046 C 
ATOM      4  C   UNL     1       0.002  -0.004   0.002  0.00  0.00    -0.026 A 
ATOM      5  C   UNL     1       0.006  -0.688  -1.198  0.00  0.00    +0.050 A 
ATOM      6  C   UNL     1       0.025  -2.075  -1.206  0.00  0.00    +0.122 A 
ATOM      7  C   UNL     1       0.040  -2.776  -0.009  0.00  0.00    +0.047 A 
ATOM      8  C   UNL     1       0.036  -2.094   1.192  0.00  0.00    +0.027 A 
ATOM      9  C   UNL     1       0.023  -0.705   1.200  0.00  0.00    +0.031 A 
BRANCH   6  10
ATOM     10  O   UNL     1       0.028  -2.748  -2.388  0.00  0.00    -0.483 OA
BRANCH  10  11
ATOM     11  C   UNL     1       0.047  -4.175  -2.321  0.00  0.00    +0.324 C 
BRANCH  11  12
ATOM     12  C   UNL     1       0.048  -4.743  -3.717  0.00  0.00    +0.248 C 
ATOM     13  O   UNL     1       0.033  -3.998  -4.675  0.00  0.00    -0.272 OA
ATOM     14  N   UNL     1       0.065  -6.078  -3.902  0.00  0.00    -0.327 N 
ATOM     15  H   UNL     1       0.077  -6.673  -3.136  0.00  0.00    +0.145 HD
ATOM     16  H   UNL     1       0.066  -6.443  -4.801  0.00  0.00    +0.145 HD
ENDBRANCH  11  12
ENDBRANCH  10  11
ENDBRANCH   6  10
ENDBRANCH   1   9
BRANCH   1  17
ATOM     17  C   UNL     1       0.047  -0.752   3.681  0.00  0.00    +0.154 C 
ATOM     18  C   UNL     1      -1.381  -1.138   4.071  0.00  0.00    +0.038 C 
BRANCH  17  19
ATOM     19  C   UNL     1       0.646   0.114   4.759  0.00  0.00    +0.233 C 
ATOM     20  O   UNL     1       1.018   1.238   4.497  0.00  0.00    -0.274 OA
ATOM     21  N   UNL     1       0.769  -0.362   6.014  0.00  0.00    -0.310 N 
ATOM     22  H   UNL     1       0.471  -1.261   6.224  0.00  0.00    +0.149 HD
BRANCH  21  23
ATOM     23  C   UNL     1       1.351   0.480   7.062  0.00  0.00    +0.141 C 
BRANCH  23  24
ATOM     24  C   UNL     1       1.374  -0.281   8.363  0.00  0.00    -0.012 A 
ATOM     25  C   UNL     1       0.396  -0.055   9.313  0.00  0.00    +0.006 A 
ATOM     26  C   UNL     1       0.416  -0.753  10.506  0.00  0.00    +0.000 A 
ATOM     27  C   UNL     1       1.415  -1.678  10.750  0.00  0.00    +0.001 A 
ATOM     28  C   UNL     1       2.393  -1.905   9.800  0.00  0.00    +0.020 A 
ATOM     29  C   UNL     1       2.370  -1.210   8.604  0.00  0.00    +0.046 A 
ATOM     30 CL   UNL     1       3.595  -1.499   7.408  0.00  0.00    -0.083 Cl
ENDBRANCH  23  24
ENDBRANCH  21  23
ENDBRANCH  17  19
ENDBRANCH   1  17
TORSDOF 8
