REMARK  Name = ZINC09788867
REMARK  7 active torsions:
REMARK  status: ('A' for Active; 'I' for Inactive)
REMARK    1  A    between atoms: C_1  and  C_2
REMARK    2  A    between atoms: C_2  and  C_4
REMARK    3  A    between atoms: C_2  and  S_19
REMARK    4  A    between atoms: N_6  and  C_7
REMARK    5  A    between atoms: C_8  and  C_17
REMARK    6  A    between atoms: S_19  and  C_20
REMARK    7  A    between atoms: C_24  and  C_26
REMARK                            x       y       z     vdW  Elec       q    Type
REMARK                         _______ _______ _______ _____ _____    ______ ____
ROOT
ATOM      1  C   UNL     1      -0.019   1.526   0.010  0.00  0.00    +0.029 C 
ATOM      2  C   UNL     1       0.002  -0.004   0.002  0.00  0.00    +0.137 C 
ENDROOT
BRANCH   2   3
ATOM      3  C   UNL     1       0.707  -0.490  -1.238  0.00  0.00    +0.231 C 
ATOM      4  O   UNL     1       1.864  -0.849  -1.176  0.00  0.00    -0.274 OA
ATOM      5  N   UNL     1       0.053  -0.526  -2.415  0.00  0.00    -0.278 N 
ATOM      6  H   UNL     1      -0.873  -0.239  -2.465  0.00  0.00    +0.155 HD
BRANCH   5   7
ATOM      7  C   UNL     1       0.702  -0.974  -3.557  0.00  0.00    +0.090 A 
ATOM      8  C   UNL     1       0.196  -1.073  -4.841  0.00  0.00    +0.084 A 
ATOM      9  C   UNL     1       1.086  -1.578  -5.876  0.00  0.00    -0.018 A 
ATOM     10  C   UNL     1       2.320  -1.894  -5.429  0.00  0.00    -0.004 A 
ATOM     11  S   UNL     1       2.286  -1.512  -3.700  0.00  0.00    -0.077 S 
ATOM     12  C   UNL     1       3.463  -2.453  -6.218  0.00  0.00    +0.043 C 
ATOM     13  C   UNL     1       3.648  -1.621  -7.494  0.00  0.00    +0.005 C 
ATOM     14  C   UNL     1       2.780  -2.220  -8.596  0.00  0.00    +0.001 C 
ATOM     15  C   UNL     1       1.504  -2.812  -8.001  0.00  0.00    +0.005 C 
ATOM     16  C   UNL     1       0.672  -1.723  -7.333  0.00  0.00    +0.037 C 
BRANCH   8  17
ATOM     17  C   UNL     1      -1.153  -0.695  -5.139  0.00  0.00    +0.102 C 
ATOM     18  N   UNL     1      -2.223  -0.395  -5.376  0.00  0.00    -0.191 NA
ENDBRANCH   8  17
ENDBRANCH   5   7
ENDBRANCH   2   3
BRANCH   2  19
ATOM     19  S   UNL     1       0.879  -0.605   1.472  0.00  0.00    -0.074 S 
BRANCH  19  20
ATOM     20  C   UNL     1      -0.136  -0.087   2.816  0.00  0.00    +0.185 A 
ATOM     21  N   UNL     1       0.112  -0.302   4.127  0.00  0.00    -0.253 N 
ATOM     22  H   UNL     1       0.875  -0.767   4.505  0.00  0.00    +0.191 HD
ATOM     23  N   UNL     1      -0.952   0.279   4.834  0.00  0.00    -0.151 NA
ATOM     24  C   UNL     1      -1.765   0.800   3.943  0.00  0.00    +0.185 A 
ATOM     25  N   UNL     1      -1.264   0.582   2.719  0.00  0.00    -0.201 NA
BRANCH  24  26
ATOM     26  C   UNL     1      -3.028   1.519   4.243  0.00  0.00    +0.056 A 
ATOM     27  C   UNL     1      -3.809   2.023   3.205  0.00  0.00    +0.014 A 
ATOM     28  C   UNL     1      -4.983   2.690   3.490  0.00  0.00    +0.001 A 
ATOM     29  C   UNL     1      -5.386   2.860   4.802  0.00  0.00    +0.003 A 
ATOM     30  C   UNL     1      -4.616   2.363   5.838  0.00  0.00    +0.039 A 
ATOM     31  C   UNL     1      -3.441   1.687   5.565  0.00  0.00    +0.134 A 
ATOM     32  F   UNL     1      -2.692   1.196   6.577  0.00  0.00    -0.205 F 
ENDBRANCH  24  26
ENDBRANCH  19  20
ENDBRANCH   2  19
TORSDOF 6
