REMARK  Name = ZINC08870738
REMARK  12 active torsions:
REMARK  status: ('A' for Active; 'I' for Inactive)
REMARK    1  A    between atoms: C_1  and  C_2
REMARK    2  A    between atoms: C_4  and  C_31
REMARK    3  A    between atoms: C_5  and  C_30
REMARK    4  A    between atoms: C_6  and  S_9
REMARK    5  A    between atoms: C_7  and  C_8
REMARK    6  A    between atoms: S_9  and  N_12
REMARK    7  A    between atoms: N_12  and  C_13
REMARK    8  A    between atoms: C_15  and  S_24
REMARK    9  A    between atoms: C_16  and  O_23
REMARK   10  A    between atoms: S_24  and  C_25
REMARK   11  A    between atoms: C_25  and  C_27
REMARK   12  A    between atoms: C_25  and  C_28
REMARK                            x       y       z     vdW  Elec       q    Type
REMARK                         _______ _______ _______ _____ _____    ______ ____
ROOT
ATOM      1  C   UNL     1       0.425   6.303  -1.092  0.00  0.00    +0.057 A 
ATOM      2  C   UNL     1       0.788   5.289  -1.950  0.00  0.00    +0.043 A 
ATOM      3  C   UNL     1       2.121   4.883  -2.051  0.00  0.00    +0.052 A 
ATOM      4  C   UNL     1       3.104   5.490  -1.292  0.00  0.00    +0.138 A 
ATOM      5  C   UNL     1       2.760   6.528  -0.408  0.00  0.00    +0.026 A 
ATOM      6  C   UNL     1       1.408   6.940  -0.305  0.00  0.00    +0.008 A 
ATOM      7  C   UNL     1       1.069   7.976   0.579  0.00  0.00    +0.010 A 
ATOM      8  C   UNL     1       2.039   8.568   1.329  0.00  0.00    +0.001 A 
ATOM      9  C   UNL     1       3.370   8.167   1.225  0.00  0.00    +0.001 A 
ATOM     10  C   UNL     1       3.736   7.166   0.379  0.00  0.00    +0.012 A 
ENDROOT
BRANCH   1  11
ATOM     11  N   UNL     1      -0.911   6.699  -1.001  0.00  0.00    -0.216 N 
ATOM     12  H   UNL     1      -1.483   6.323  -0.313  0.00  0.00    +0.174 HD
BRANCH  11  13
ATOM     13  S   UNL     1      -1.520   7.811  -2.067  0.00  0.00    +0.073 S 
ATOM     14  O   UNL     1      -2.902   7.948  -1.765  0.00  0.00    -0.150 OA
ATOM     15  O   UNL     1      -0.625   8.914  -2.058  0.00  0.00    -0.150 OA
BRANCH  13  21
ATOM     16  C   UNL     1      -3.579   5.027  -5.983  0.00  0.00    +0.044 C 
ATOM     17  C   UNL     1      -2.416   5.814  -5.437  0.00  0.00    -0.045 A 
ATOM     18  C   UNL     1      -1.273   5.977  -6.198  0.00  0.00    +0.007 A 
ATOM     19  C   UNL     1      -0.206   6.700  -5.698  0.00  0.00    -0.045 A 
ATOM     20  C   UNL     1      -0.282   7.260  -4.436  0.00  0.00    -0.021 A 
ATOM     21  C   UNL     1      -1.424   7.097  -3.675  0.00  0.00    +0.115 A 
ATOM     22  C   UNL     1      -2.489   6.370  -4.173  0.00  0.00    -0.021 A 
ATOM     23  C   UNL     1      -3.732   6.187  -3.341  0.00  0.00    +0.046 C 
ATOM     24  C   UNL     1       0.881   8.047  -3.891  0.00  0.00    +0.046 C 
ATOM     25  C   UNL     1       1.039   6.877  -6.528  0.00  0.00    +0.044 C 
ENDBRANCH  13  21
ENDBRANCH  11  13
ENDBRANCH   1  11
BRANCH   4  26
ATOM     26  O   UNL     1       4.399   5.085  -1.400  0.00  0.00    -0.505 OA
ATOM     27  H   UNL     1       4.643   4.377  -0.788  0.00  0.00    +0.292 HD
ENDBRANCH   4  26
BRANCH   3  28
ATOM     28  S   UNL     1       2.554   3.583  -3.158  0.00  0.00    -0.107 S 
BRANCH  28  29
ATOM     29  C   UNL     1       0.958   2.977  -3.770  0.00  0.00    +0.161 C 
ATOM     30  C   UNL     1       0.245   2.205  -2.657  0.00  0.00    +0.031 C 
BRANCH  29  31
ATOM     31  C   UNL     1       1.184   2.065  -4.948  0.00  0.00    +0.369 C 
ATOM     32  O   UNL     1       2.237   1.486  -5.071  0.00  0.00    -0.245 OA
ATOM     33  O   UNL     1       0.215   1.897  -5.862  0.00  0.00    -0.245 OA
ENDBRANCH  29  31
ENDBRANCH  28  29
ENDBRANCH   3  28
TORSDOF 7
