REMARK  Name = ZINC40812043
REMARK  7 active torsions:
REMARK  status: ('A' for Active; 'I' for Inactive)
REMARK    1  A    between atoms: C_1  and  C_2
REMARK    2  A    between atoms: C_5  and  N_9
REMARK    3  A    between atoms: C_10  and  C_12
REMARK    4  A    between atoms: C_13  and  C_32
REMARK    5  A    between atoms: N_21  and  N_22
REMARK    6  A    between atoms: C_23  and  C_25
REMARK    7  A    between atoms: C_28  and  O_31
REMARK                            x       y       z     vdW  Elec       q    Type
REMARK                         _______ _______ _______ _____ _____    ______ ____
ROOT
ATOM      1  C   UNL     1       0.305  -6.310   1.119  0.00  0.00    +0.193 A 
ATOM      2  C   UNL     1       0.425  -7.114   2.219  0.00  0.00    +0.009 A 
ATOM      3  C   UNL     1       0.520  -8.425   1.736  0.00  0.00    +0.042 A 
ATOM      4  C   UNL     1       0.457  -8.366   0.364  0.00  0.00    +0.115 A 
ATOM      5  O   UNL     1       0.321  -7.089   0.013  0.00  0.00    -0.454 OA
ATOM      6  C   UNL     1       0.534  -9.589  -0.514  0.00  0.00    +0.075 C 
ATOM      7  C   UNL     1       1.185 -10.735   0.265  0.00  0.00    +0.014 C 
ATOM      8  C   UNL     1       0.469 -10.954   1.602  0.00  0.00    +0.058 C 
ATOM      9  C   UNL     1       0.663  -9.710   2.457  0.00  0.00    +0.070 C 
ATOM     10  N   UNL     1       0.934  -9.771   3.724  0.00  0.00    -0.184 NA
ATOM     11  C   UNL     1       0.449  -6.676   3.660  0.00  0.00    +0.048 C 
ENDROOT
BRANCH   1  13
ATOM     12  N   UNL     1       0.059  -4.170  -0.022  0.00  0.00    -0.279 N 
ATOM     13  C   UNL     1       0.175  -4.849   1.136  0.00  0.00    +0.284 C 
ATOM     14  O   UNL     1       0.173  -4.251   2.196  0.00  0.00    -0.266 OA
ATOM     15  H   UNL     1      -0.017  -4.651  -0.861  0.00  0.00    +0.155 HD
BRANCH  12  20
ATOM     16  C   UNL     1       0.004   1.503   0.010  0.00  0.00    +0.045 C 
ATOM     17  C   UNL     1       0.019  -0.004   0.002  0.00  0.00    -0.032 A 
ATOM     18  C   UNL     1      -0.725  -0.696  -0.937  0.00  0.00    +0.006 A 
ATOM     19  C   UNL     1      -0.714  -2.077  -0.947  0.00  0.00    +0.023 A 
ATOM     20  C   UNL     1       0.046  -2.772  -0.014  0.00  0.00    +0.035 A 
ATOM     21  C   UNL     1       0.792  -2.075   0.927  0.00  0.00    +0.043 A 
ATOM     22  C   UNL     1       0.781  -0.692   0.929  0.00  0.00    +0.046 A 
ATOM     23 CL   UNL     1       1.718   0.181   2.101  0.00  0.00    -0.083 Cl
ENDBRANCH  12  20
ENDBRANCH   1  13
BRANCH  10  24
ATOM     24  N   UNL     1       1.058 -11.016   4.354  0.00  0.00    -0.203 N 
ATOM     25  C   UNL     1       1.339 -11.080   5.671  0.00  0.00    +0.263 C 
ATOM     26  O   UNL     1       1.487 -10.057   6.311  0.00  0.00    -0.268 OA
ATOM     27  H   UNL     1       0.941 -11.833   3.844  0.00  0.00    +0.178 HD
BRANCH  25  28
ATOM     28  C   UNL     1       1.470 -12.392   6.335  0.00  0.00    +0.039 A 
ATOM     29  C   UNL     1       1.307 -13.569   5.599  0.00  0.00    +0.016 A 
ATOM     30  C   UNL     1       1.429 -14.790   6.223  0.00  0.00    +0.046 A 
ATOM     31  C   UNL     1       1.713 -14.854   7.582  0.00  0.00    +0.117 A 
ATOM     32  C   UNL     1       1.876 -13.685   8.317  0.00  0.00    +0.046 A 
ATOM     33  C   UNL     1       1.762 -12.460   7.700  0.00  0.00    +0.016 A 
BRANCH  31  34
ATOM     34  O   UNL     1       1.833 -16.060   8.193  0.00  0.00    -0.507 OA
ATOM     35  H   UNL     1       2.732 -16.416   8.188  0.00  0.00    +0.292 HD
ENDBRANCH  31  34
ENDBRANCH  25  28
ENDBRANCH  10  24
TORSDOF 5
