REMARK  Name = ZINC63870864
REMARK  6 active torsions:
REMARK  status: ('A' for Active; 'I' for Inactive)
REMARK    1  A    between atoms: C_3  and  C_20
REMARK    2  A    between atoms: C_8  and  C_10
REMARK    3  A    between atoms: C_20  and  N_21
REMARK    4  A    between atoms: C_23  and  C_27
REMARK    5  A    between atoms: C_27  and  C_28
REMARK    6  A    between atoms: C_28  and  O_29
REMARK                            x       y       z     vdW  Elec       q    Type
REMARK                         _______ _______ _______ _____ _____    ______ ____
ROOT
ATOM      1  C   UNL     1      -0.392   1.321  -0.528  0.00  0.00    +0.019 C 
ATOM      2  C   UNL     1       0.961   2.031  -0.438  0.00  0.00    +0.008 C 
ATOM      3  C   UNL     1       1.901   1.478  -1.511  0.00  0.00    +0.019 C 
ATOM      4  C   UNL     1       2.123  -0.018  -1.268  0.00  0.00    +0.112 C 
ATOM      5  N   UNL     1       0.816  -0.686  -1.209  0.00  0.00    -0.297 N 
ATOM      6  C   UNL     1      -0.197  -0.177  -0.275  0.00  0.00    +0.108 C 
ATOM      7  C   UNL     1       0.550  -1.746  -1.998  0.00  0.00    +0.247 C 
ATOM      8  O   UNL     1       1.423  -2.211  -2.706  0.00  0.00    -0.270 OA
ENDROOT
BRANCH   7   9
ATOM      9  C   UNL     1      -0.799  -2.343  -2.003  0.00  0.00    +0.037 C 
ATOM     10  C   UNL     1      -1.812  -1.773  -2.767  0.00  0.00    +0.019 C 
ATOM     11  C   UNL     1      -3.067  -2.395  -2.647  0.00  0.00    -0.017 C 
ATOM     12  C   UNL     1      -4.098  -2.531  -3.498  0.00  0.00    +0.025 C 
ATOM     13  C   UNL     1      -5.030  -3.514  -2.947  0.00  0.00    +0.106 C 
ATOM     14  N   UNL     1      -4.668  -3.889  -1.756  0.00  0.00    -0.279 NA
ATOM     15  C   UNL     1      -3.483  -3.133  -1.387  0.00  0.00    +0.158 C 
ATOM     16  C   UNL     1      -2.318  -3.949  -0.920  0.00  0.00    +0.005 C 
ATOM     17  C   UNL     1      -1.078  -3.545  -1.205  0.00  0.00    +0.011 C 
ENDBRANCH   7   9
BRANCH   3  18
ATOM     18  C   UNL     1       3.243   2.211  -1.441  0.00  0.00    +0.074 C 
BRANCH  18  19
ATOM     19  N   UNL     1       3.042   3.631  -1.761  0.00  0.00    -0.334 NA
ATOM     20  C   UNL     1       4.321   4.378  -1.690  0.00  0.00    +0.086 C 
ATOM     21  C   UNL     1       4.247   5.415  -2.827  0.00  0.00    +0.055 C 
ATOM     22  N   UNL     1       2.932   5.193  -3.474  0.00  0.00    -0.345 NA
ATOM     23  N   UNL     1       2.593   3.799  -3.151  0.00  0.00    +0.400 N 
ATOM     24  H   UNL     1       2.238   5.827  -3.109  0.00  0.00    +0.104 HD
ATOM     25  H   UNL     1       3.087   3.165  -3.760  0.00  0.00    -0.033 HD
ATOM     26  H   UNL     1       1.597   3.653  -3.220  0.00  0.00    -0.033 HD
BRANCH  21  27
ATOM     27  C   UNL     1       4.328   6.833  -2.258  0.00  0.00    +0.046 C 
BRANCH  27  28
ATOM     28  C   UNL     1       4.380   7.842  -3.408  0.00  0.00    +0.157 C 
BRANCH  28  29
ATOM     29  O   UNL     1       4.455   9.166  -2.876  0.00  0.00    -0.395 OA
ATOM     30  H   UNL     1       4.491   9.859  -3.550  0.00  0.00    +0.209 HD
ENDBRANCH  28  29
ENDBRANCH  27  28
ENDBRANCH  21  27
ENDBRANCH  18  19
ENDBRANCH   3  18
TORSDOF 6
