REMARK  Name = ZINC39996659
REMARK  7 active torsions:
REMARK  status: ('A' for Active; 'I' for Inactive)
REMARK    1  A    between atoms: C_2  and  C_3
REMARK    2  A    between atoms: C_3  and  N_4
REMARK    3  A    between atoms: C_8  and  C_10
REMARK    4  A    between atoms: C_10  and  S_11
REMARK    5  A    between atoms: S_11  and  C_12
REMARK    6  A    between atoms: C_16  and  C_21
REMARK    7  A    between atoms: N_17  and  C_18
REMARK                            x       y       z     vdW  Elec       q    Type
REMARK                         _______ _______ _______ _____ _____    ______ ____
ROOT
ATOM      1  C   UNL     1       5.101  -6.961   5.070  0.00  0.00    +0.237 C 
ATOM      2  N   UNL     1       3.844  -7.706   4.885  0.00  0.00    -0.237 N 
ATOM      3  N   UNL     1       3.119  -7.565   6.073  0.00  0.00    -0.169 NA
ATOM      4  C   UNL     1       3.770  -6.838   6.943  0.00  0.00    +0.147 C 
ATOM      5  N   UNL     1       5.003  -6.414   6.433  0.00  0.00    -0.282 N 
ATOM      6  H   UNL     1       3.572  -8.198   4.094  0.00  0.00    +0.171 HD
ENDROOT
BRANCH   4   7
ATOM      7  C   UNL     1       3.295  -6.523   8.225  0.00  0.00    +0.022 C 
ATOM      8  C   UNL     1       2.128  -6.991   8.830  0.00  0.00    +0.006 A 
ATOM      9  C   UNL     1       1.114  -7.870   8.394  0.00  0.00    +0.010 A 
ATOM     10  C   UNL     1       0.070  -8.154   9.214  0.00  0.00    +0.001 A 
ATOM     11  C   UNL     1      -0.031  -7.596  10.490  0.00  0.00    +0.002 A 
ATOM     12  C   UNL     1       0.907  -6.744  10.974  0.00  0.00    +0.026 A 
ATOM     13  C   UNL     1       2.027  -6.400  10.175  0.00  0.00    +0.043 A 
ATOM     14  N   UNL     1       3.057  -5.610  10.410  0.00  0.00    -0.380 N 
ATOM     15  C   UNL     1       3.943  -5.609   9.242  0.00  0.00    +0.152 C 
ATOM     16  H   UNL     1       3.206  -5.112  11.229  0.00  0.00    +0.160 HD
ENDBRANCH   4   7
BRANCH   5  17
ATOM     17  C   UNL     1       6.000  -5.588   7.118  0.00  0.00    +0.078 C 
ATOM     18  C   UNL     1       7.242  -5.176   6.324  0.00  0.00    +0.024 C 
ATOM     19  C   UNL     1       7.354  -6.228   7.429  0.00  0.00    +0.024 C 
ENDBRANCH   5  17
BRANCH   1  20
ATOM     20  S   UNL     1       5.228  -5.620   3.855  0.00  0.00    -0.109 S 
BRANCH  20  21
ATOM     21  C   UNL     1       3.727  -4.638   4.126  0.00  0.00    +0.168 C 
BRANCH  21  26
ATOM     22  N   UNL     1       1.635  -0.692   2.348  0.00  0.00    -0.296 N 
ATOM     23  C   UNL     1       2.662  -1.564   2.329  0.00  0.00    +0.306 C 
ATOM     24  O   UNL     1       3.573  -1.413   1.539  0.00  0.00    -0.252 OA
ATOM     25  N   UNL     1       2.680  -2.604   3.186  0.00  0.00    -0.240 N 
ATOM     26  C   UNL     1       3.708  -3.475   3.167  0.00  0.00    +0.230 C 
ATOM     27  O   UNL     1       4.616  -3.324   2.379  0.00  0.00    -0.274 OA
ATOM     28  H   UNL     1       0.908  -0.813   2.978  0.00  0.00    +0.151 HD
ATOM     29  H   UNL     1       1.953  -2.725   3.817  0.00  0.00    +0.159 HD
BRANCH  22  30
ATOM     30  C   UNL     1       1.616   0.438   1.416  0.00  0.00    +0.132 C 
BRANCH  30  32
ATOM     31  C   UNL     1       0.461   2.537   1.888  0.00  0.00    +0.005 C 
ATOM     32  C   UNL     1       0.369   1.254   1.641  0.00  0.00    -0.016 C 
ENDBRANCH  30  32
ENDBRANCH  22  30
ENDBRANCH  21  26
ENDBRANCH  20  21
ENDBRANCH   1  20
TORSDOF 7
