REMARK  Name = ZINC67028461
REMARK  8 active torsions:
REMARK  status: ('A' for Active; 'I' for Inactive)
REMARK    1  A    between atoms: C_1  and  C_2
REMARK    2  A    between atoms: C_5  and  N_9
REMARK    3  A    between atoms: C_6  and  C_8
REMARK    4  A    between atoms: C_10  and  C_26
REMARK    5  A    between atoms: C_11  and  C_22
REMARK    6  A    between atoms: C_12  and  C_17
REMARK    7  A    between atoms: C_22  and  O_24
REMARK    8  A    between atoms: O_24  and  C_25
REMARK                            x       y       z     vdW  Elec       q    Type
REMARK                         _______ _______ _______ _____ _____    ______ ____
ROOT
ATOM      1  N   UNL     1       0.057  -4.171  -0.021  0.00  0.00    -0.228 N 
ATOM      2  C   UNL     1      -1.139  -4.832  -0.024  0.00  0.00    +0.029 C 
ATOM      3  C   UNL     1      -1.190  -6.182  -0.031  0.00  0.00    +0.080 C 
ATOM      4  C   UNL     1       0.124  -6.937  -0.036  0.00  0.00    +0.162 C 
ATOM      5  N   UNL     1       1.357  -6.131  -0.033  0.00  0.00    -0.286 N 
ATOM      6  C   UNL     1       1.246  -4.788  -0.030  0.00  0.00    +0.311 C 
ATOM      7  O   UNL     1       2.257  -4.115  -0.032  0.00  0.00    -0.252 OA
ATOM      8  C   UNL     1      -2.423  -4.042  -0.019  0.00  0.00    +0.062 C 
ATOM      9  H   UNL     1       2.228  -6.557  -0.035  0.00  0.00    +0.151 HD
ENDROOT
BRANCH   1  14
ATOM     10  C   UNL     1      -0.018   1.503   0.010  0.00  0.00    +0.044 C 
ATOM     11  C   UNL     1       0.002  -0.004   0.002  0.00  0.00    -0.050 A 
ATOM     12  C   UNL     1       0.006  -0.688  -1.200  0.00  0.00    +0.005 A 
ATOM     13  C   UNL     1       0.024  -2.068  -1.211  0.00  0.00    +0.024 A 
ATOM     14  C   UNL     1       0.039  -2.771  -0.013  0.00  0.00    +0.045 A 
ATOM     15  C   UNL     1       0.036  -2.082   1.192  0.00  0.00    -0.028 A 
ATOM     16  C   UNL     1       0.023  -0.700   1.196  0.00  0.00    +0.008 A 
ATOM     17  C   UNL     1       0.052  -2.840   2.494  0.00  0.00    +0.046 C 
ENDBRANCH   1  14
BRANCH   4  18
ATOM     18  C   UNL     1       0.149  -7.818  -1.258  0.00  0.00    +0.073 A 
ATOM     19  C   UNL     1       1.165  -7.758  -2.156  0.00  0.00    +0.072 A 
ATOM     20  S   UNL     1       0.640  -8.995  -3.331  0.00  0.00    -0.084 S 
ATOM     21  C   UNL     1      -0.790  -9.447  -2.567  0.00  0.00    +0.156 A 
ATOM     22  N   UNL     1      -0.813  -8.686  -1.502  0.00  0.00    -0.250 NA
ENDBRANCH   4  18
BRANCH   3  23
ATOM     23  C   UNL     1      -2.428  -6.867  -0.033  0.00  0.00    +0.339 C 
ATOM     24  O   UNL     1      -3.470  -6.240  -0.029  0.00  0.00    -0.245 OA
BRANCH  23  25
ATOM     25  O   UNL     1      -2.451  -8.216  -0.040  0.00  0.00    -0.465 OA
ATOM     26  C   UNL     1      -3.736  -8.842  -0.042  0.00  0.00    +0.280 C 
ENDBRANCH  23  25
ENDBRANCH   3  23
TORSDOF 4
