REMARK  Name = ZINC49534030
REMARK  6 active torsions:
REMARK  status: ('A' for Active; 'I' for Inactive)
REMARK    1  A    between atoms: C_1  and  C_2
REMARK    2  A    between atoms: C_3  and  C_8
REMARK    3  A    between atoms: C_5  and  C_7
REMARK    4  A    between atoms: C_8  and  C_10
REMARK    5  A    between atoms: C_8  and  N_11
REMARK    6  A    between atoms: C_12  and  C_17
REMARK                            x       y       z     vdW  Elec       q    Type
REMARK                         _______ _______ _______ _____ _____    ______ ____
ROOT
ATOM      1  N   UNL     1      -0.978  -0.991  -3.359  0.00  0.00    -0.299 N 
ATOM      2  C   UNL     1      -2.072  -0.484  -4.016  0.00  0.00    +0.136 A 
ATOM      3  N   UNL     1      -2.701  -1.458  -4.593  0.00  0.00    -0.158 NA
ATOM      4  N   UNL     1      -2.012  -2.647  -4.317  0.00  0.00    -0.254 N 
ATOM      5  C   UNL     1      -0.946  -2.325  -3.555  0.00  0.00    +0.176 A 
ATOM      6  S   UNL     1       0.229  -3.410  -2.945  0.00  0.00    -0.011 S 
ATOM      7  H   UNL     1      -2.255  -3.536  -4.620  0.00  0.00    +0.191 HD
ENDROOT
BRANCH   2   8
ATOM      8  C   UNL     1      -2.475   0.967  -4.059  0.00  0.00    +0.057 C 
ATOM      9  C   UNL     1      -3.957   1.295  -3.867  0.00  0.00    +0.012 C 
ATOM     10  C   UNL     1      -3.316   1.432  -5.250  0.00  0.00    +0.012 C 
ENDBRANCH   2   8
BRANCH   1  11
ATOM     11  C   UNL     1      -0.008  -0.215  -2.583  0.00  0.00    +0.126 C 
ATOM     12  C   UNL     1       1.384  -0.381  -3.194  0.00  0.00    +0.036 C 
BRANCH  11  15
ATOM     13  C   UNL     1      -0.018   1.503   0.010  0.00  0.00    +0.066 C 
ATOM     14  C   UNL     1       0.002  -0.004   0.002  0.00  0.00    +0.051 A 
ATOM     15  C   UNL     1       0.006  -0.708  -1.159  0.00  0.00    +0.035 A 
ATOM     16  S   UNL     1       0.032  -2.379  -0.531  0.00  0.00    -0.075 S 
ATOM     17  C   UNL     1       0.036  -2.009   1.111  0.00  0.00    +0.076 A 
ATOM     18  N   UNL     1       0.023  -0.699   1.122  0.00  0.00    -0.249 NA
ATOM     19  C   UNL     1       0.055  -2.955   2.284  0.00  0.00    +0.073 C 
ENDBRANCH  11  15
ENDBRANCH   1  11
TORSDOF 3
