REMARK  Name = ZINC06934869
REMARK  15 active torsions:
REMARK  status: ('A' for Active; 'I' for Inactive)
REMARK    1  A    between atoms: C_1  and  C_2
REMARK    2  A    between atoms: C_2  and  C_3
REMARK    3  A    between atoms: C_3  and  C_4
REMARK    4  A    between atoms: C_3  and  C_6
REMARK    5  A    between atoms: C_3  and  N_8
REMARK    6  A    between atoms: C_4  and  C_5
REMARK    7  A    between atoms: N_11  and  C_12
REMARK    8  A    between atoms: C_15  and  C_29
REMARK    9  A    between atoms: C_16  and  N_18
REMARK   10  A    between atoms: N_21  and  C_22
REMARK   11  A    between atoms: C_22  and  C_23
REMARK   12  A    between atoms: C_22  and  C_25
REMARK   13  A    between atoms: C_22  and  C_27
REMARK   14  A    between atoms: C_23  and  C_24
REMARK   15  A    between atoms: C_25  and  C_26
REMARK                            x       y       z     vdW  Elec       q    Type
REMARK                         _______ _______ _______ _____ _____    ______ ____
ROOT
ATOM      1  C   UNL     1      -1.062   1.298  -0.090  0.00  0.00    +0.037 A 
ATOM      2  C   UNL     1      -1.042   2.684  -0.185  0.00  0.00    +0.024 A 
ATOM      3  C   UNL     1      -2.221   3.400  -0.105  0.00  0.00    +0.007 A 
ATOM      4  C   UNL     1      -3.422   2.741   0.081  0.00  0.00    -0.029 A 
ATOM      5  C   UNL     1      -3.447   1.356   0.183  0.00  0.00    +0.039 A 
ATOM      6  C   UNL     1      -2.265   0.634   0.097  0.00  0.00    +0.047 A 
ATOM      7  C   UNL     1      -4.705   3.526   0.173  0.00  0.00    +0.045 C 
ENDROOT
BRANCH   1  11
ATOM      8  N   UNL     1       2.312   0.365  -0.988  0.00  0.00    -0.283 N 
ATOM      9  C   UNL     1       1.126   1.005  -0.979  0.00  0.00    +0.305 C 
ATOM     10  O   UNL     1       0.952   1.972  -1.696  0.00  0.00    -0.252 OA
ATOM     11  N   UNL     1       0.133   0.574  -0.176  0.00  0.00    -0.269 N 
ATOM     12  H   UNL     1       2.450  -0.406  -0.416  0.00  0.00    +0.152 HD
ATOM     13  H   UNL     1       0.244  -0.241   0.338  0.00  0.00    +0.156 HD
BRANCH   8  14
ATOM     14  C   UNL     1       3.391   0.833  -1.860  0.00  0.00    +0.096 C 
BRANCH  14  16
ATOM     15  C   UNL     1       4.213   2.333  -0.038  0.00  0.00    +0.007 C 
ATOM     16  C   UNL     1       3.752   2.275  -1.496  0.00  0.00    +0.035 C 
ENDBRANCH  14  16
BRANCH  14  17
ATOM     17  C   UNL     1       4.619  -0.061  -1.678  0.00  0.00    +0.035 C 
ATOM     18  C   UNL     1       5.746   0.428  -2.589  0.00  0.00    +0.007 C 
ENDBRANCH  14  17
BRANCH  14  19
ATOM     19  C   UNL     1       2.947   0.778  -3.263  0.00  0.00    -0.080 C 
ATOM     20  C   UNL     1       2.593   0.734  -4.381  0.00  0.00    +0.006 C 
ENDBRANCH  14  19
ENDBRANCH   8  14
ENDBRANCH   1  11
BRANCH   5  21
ATOM     21  N   UNL     1      -4.663   0.690   0.371  0.00  0.00    -0.269 N 
ATOM     22  C   UNL     1      -4.779  -0.609   0.030  0.00  0.00    +0.305 C 
ATOM     23  O   UNL     1      -3.861  -1.175  -0.532  0.00  0.00    -0.252 OA
ATOM     24  N   UNL     1      -5.913  -1.281   0.312  0.00  0.00    -0.283 N 
ATOM     25  H   UNL     1      -5.422   1.162   0.746  0.00  0.00    +0.156 HD
ATOM     26  H   UNL     1      -6.645  -0.830   0.761  0.00  0.00    +0.152 HD
BRANCH  24  27
ATOM     27  C   UNL     1      -6.039  -2.693  -0.058  0.00  0.00    +0.096 C 
BRANCH  27  28
ATOM     28  C   UNL     1      -5.891  -2.838  -1.574  0.00  0.00    +0.035 C 
ATOM     29  C   UNL     1      -6.905  -1.930  -2.274  0.00  0.00    +0.007 C 
ENDBRANCH  27  28
BRANCH  27  30
ATOM     30  C   UNL     1      -4.946  -3.503   0.641  0.00  0.00    +0.035 C 
ATOM     31  C   UNL     1      -5.093  -3.358   2.157  0.00  0.00    +0.007 C 
ENDBRANCH  27  30
BRANCH  27  32
ATOM     32  C   UNL     1      -7.360  -3.192   0.356  0.00  0.00    -0.080 C 
ATOM     33  C   UNL     1      -8.414  -3.591   0.687  0.00  0.00    +0.006 C 
ENDBRANCH  27  32
ENDBRANCH  24  27
ENDBRANCH   5  21
TORSDOF 10
