REMARK  Name = ZINC46555914
REMARK  8 active torsions:
REMARK  status: ('A' for Active; 'I' for Inactive)
REMARK    1  A    between atoms: C_1  and  C_2
REMARK    2  A    between atoms: C_2  and  C_4
REMARK    3  A    between atoms: C_2  and  N_20
REMARK    4  A    between atoms: N_6  and  C_7
REMARK    5  A    between atoms: N_11  and  C_13
REMARK    6  A    between atoms: C_13  and  C_14
REMARK    7  A    between atoms: N_23  and  C_26
REMARK    8  A    between atoms: C_31  and  N_32
REMARK                            x       y       z     vdW  Elec       q    Type
REMARK                         _______ _______ _______ _____ _____    ______ ____
ROOT
ATOM      1  C   UNL     1      -0.558   1.413   0.136  0.00  0.00    -0.004 C 
ATOM      2  C   UNL     1       0.002  -0.004   0.002  0.00  0.00    +0.016 C 
ENDROOT
BRANCH   2   3
ATOM      3  N   UNL     1      -1.094  -0.938  -0.287  0.00  0.00    +0.389 N 
ATOM      4  C   UNL     1      -0.558  -2.301  -0.393  0.00  0.00    -0.059 C 
ATOM      5  C   UNL     1      -1.713  -3.290  -0.580  0.00  0.00    +0.086 C 
ATOM      6  N   UNL     1      -2.512  -2.860  -1.738  0.00  0.00    -0.332 N 
ATOM      7  C   UNL     1      -2.955  -1.458  -1.793  0.00  0.00    +0.086 C 
ATOM      8  C   UNL     1      -1.741  -0.556  -1.548  0.00  0.00    -0.059 C 
ATOM      9  H   UNL     1      -1.770  -0.903   0.461  0.00  0.00    -0.081 HD
BRANCH   6  10
ATOM     10  C   UNL     1      -2.842  -3.758  -2.756  0.00  0.00    +0.060 A 
ATOM     11  C   UNL     1      -4.016  -4.496  -2.681  0.00  0.00    +0.025 A 
ATOM     12  C   UNL     1      -4.339  -5.382  -3.690  0.00  0.00    +0.002 A 
ATOM     13  C   UNL     1      -3.495  -5.535  -4.774  0.00  0.00    +0.002 A 
ATOM     14  C   UNL     1      -2.325  -4.802  -4.852  0.00  0.00    +0.034 A 
ATOM     15  C   UNL     1      -1.998  -3.910  -3.849  0.00  0.00    +0.147 A 
BRANCH  15  16
ATOM     16  N   UNL     1      -0.749  -3.122  -3.937  0.00  0.00    +0.058 N 
ATOM     17  O   UNL     1      -0.015  -3.255  -4.889  0.00  0.00    -0.126 OA
ATOM     18  O   UNL     1      -0.462  -2.345  -3.056  0.00  0.00    -0.126 OA
ENDBRANCH  15  16
ENDBRANCH   6  10
ENDBRANCH   2   3
BRANCH   2  19
ATOM     19  C   UNL     1       0.675  -0.402   1.290  0.00  0.00    +0.199 C 
ATOM     20  O   UNL     1       0.044  -0.976   2.152  0.00  0.00    -0.278 OA
ATOM     21  N   UNL     1       1.979  -0.121   1.484  0.00  0.00    -0.316 N 
ATOM     22  H   UNL     1       2.484   0.338   0.795  0.00  0.00    +0.149 HD
BRANCH  21  23
ATOM     23  C   UNL     1       2.633  -0.508   2.737  0.00  0.00    +0.055 C 
ATOM     24  C   UNL     1       2.463   0.604   3.797  0.00  0.00    +0.002 C 
ATOM     25  C   UNL     1       3.839   0.618   4.508  0.00  0.00    -0.077 C 
ATOM     26  N   UNL     1       4.797   0.371   3.400  0.00  0.00    +0.384 N 
ATOM     27  C   UNL     1       4.153  -0.638   2.527  0.00  0.00    -0.056 C 
ATOM     28  H   UNL     1       4.961   1.224   2.886  0.00  0.00    -0.081 HD
BRANCH  26  29
ATOM     29  C   UNL     1       6.062  -0.153   3.932  0.00  0.00    -0.043 C 
BRANCH  29  30
ATOM     30  C   UNL     1       6.737   0.908   4.761  0.00  0.00    -0.064 A 
ATOM     31  C   UNL     1       7.615   1.795   4.168  0.00  0.00    +0.002 A 
ATOM     32  C   UNL     1       8.234   2.769   4.929  0.00  0.00    +0.000 A 
ATOM     33  C   UNL     1       7.975   2.856   6.284  0.00  0.00    +0.000 A 
ATOM     34  C   UNL     1       7.096   1.970   6.877  0.00  0.00    +0.000 A 
ATOM     35  C   UNL     1       6.473   0.999   6.115  0.00  0.00    +0.002 A 
ENDBRANCH  29  30
ENDBRANCH  26  29
ENDBRANCH  21  23
ENDBRANCH   2  19
TORSDOF 7
