REMARK  Name = ZINC54067675
REMARK  7 active torsions:
REMARK  status: ('A' for Active; 'I' for Inactive)
REMARK    1  A    between atoms: C_1  and  C_2
REMARK    2  A    between atoms: C_2  and  C_4
REMARK    3  A    between atoms: C_2  and  N_7
REMARK    4  A    between atoms: N_7  and  C_8
REMARK    5  A    between atoms: N_11  and  C_12
REMARK    6  A    between atoms: C_12  and  C_13
REMARK    7  A    between atoms: N_19  and  C_20
REMARK                            x       y       z     vdW  Elec       q    Type
REMARK                         _______ _______ _______ _____ _____    ______ ____
ROOT
ATOM      1  N   UNL     1       0.704  -0.750  -1.097  0.00  0.00    -0.275 N 
ATOM      2  C   UNL     1       2.126  -0.450  -1.279  0.00  0.00    +0.134 C 
ATOM      3  C   UNL     1       0.032  -1.430  -2.047  0.00  0.00    +0.303 C 
ATOM      4  O   UNL     1      -1.149  -1.679  -1.896  0.00  0.00    -0.253 OA
ATOM      5  N   UNL     1       0.668  -1.833  -3.165  0.00  0.00    -0.301 N 
ATOM      6  H   UNL     1       1.610  -1.635  -3.285  0.00  0.00    +0.150 HD
ENDROOT
BRANCH   1   8
ATOM      7  C   UNL     1       0.085   1.213   0.223  0.00  0.00    +0.040 C 
ATOM      8  C   UNL     1       0.012  -0.311   0.117  0.00  0.00    +0.187 C 
BRANCH   8   9
ATOM      9  C   UNL     1       0.672  -0.930   1.323  0.00  0.00    +0.376 C 
ATOM     10  O   UNL     1       0.144  -0.844   2.418  0.00  0.00    -0.244 OA
ATOM     11  O   UNL     1       1.734  -1.518   1.202  0.00  0.00    -0.244 OA
ENDBRANCH   8   9
ENDBRANCH   1   8
BRANCH   5  12
ATOM     12  C   UNL     1      -0.062  -2.572  -4.197  0.00  0.00    +0.090 C 
BRANCH  12  13
ATOM     13  C   UNL     1       0.849  -2.795  -5.406  0.00  0.00    -0.052 C 
ATOM     14  C   UNL     1       2.007  -3.713  -5.009  0.00  0.00    -0.014 C 
ATOM     15  C   UNL     1       2.916  -3.933  -6.221  0.00  0.00    -0.003 C 
ATOM     16  C   UNL     1       3.402  -2.575  -6.736  0.00  0.00    -0.019 C 
ATOM     17  C   UNL     1       2.192  -1.700  -7.069  0.00  0.00    -0.079 C 
ATOM     18  N   UNL     1       1.378  -1.505  -5.864  0.00  0.00    +0.381 N 
ATOM     19  C   UNL     1       0.262  -0.600  -6.170  0.00  0.00    -0.096 C 
ATOM     20  H   UNL     1       1.947  -1.099  -5.136  0.00  0.00    -0.082 HD
ENDBRANCH  12  13
ENDBRANCH   5  12
TORSDOF 4
