REMARK  Name = ZINC62213480
REMARK  13 active torsions:
REMARK  status: ('A' for Active; 'I' for Inactive)
REMARK    1  A    between atoms: C_1  and  C_2
REMARK    2  A    between atoms: C_2  and  C_3
REMARK    3  A    between atoms: C_2  and  C_4
REMARK    4  A    between atoms: C_4  and  C_6
REMARK    5  A    between atoms: C_4  and  N_21
REMARK    6  A    between atoms: N_8  and  C_9
REMARK    7  A    between atoms: C_9  and  C_10
REMARK    8  A    between atoms: N_12  and  C_13
REMARK    9  A    between atoms: C_22  and  O_24
REMARK   10  A    between atoms: O_24  and  C_25
REMARK   11  A    between atoms: C_25  and  C_26
REMARK   12  A    between atoms: C_25  and  C_27
REMARK   13  A    between atoms: C_25  and  C_28
REMARK                            x       y       z     vdW  Elec       q    Type
REMARK                         _______ _______ _______ _____ _____    ______ ____
ROOT
ATOM      1  C   UNL     1      -1.244  -2.056   0.095  0.00  0.00    +0.234 C 
ATOM      2  O   UNL     1      -1.652  -2.817  -0.756  0.00  0.00    -0.274 OA
ATOM      3  N   UNL     1      -0.712  -2.540   1.234  0.00  0.00    -0.305 N 
ATOM      4  H   UNL     1      -0.320  -1.934   1.883  0.00  0.00    +0.149 HD
ENDROOT
BRANCH   1   5
ATOM      5  C   UNL     1      -1.333  -0.567  -0.121  0.00  0.00    +0.165 C 
BRANCH   5   6
ATOM      6  N   UNL     1      -2.354  -0.281  -1.132  0.00  0.00    -0.270 N 
ATOM      7  C   UNL     1      -2.971   0.917  -1.146  0.00  0.00    +0.401 C 
ATOM      8  O   UNL     1      -2.681   1.760  -0.320  0.00  0.00    -0.226 OA
ATOM      9  H   UNL     1      -2.586  -0.953  -1.792  0.00  0.00    +0.153 HD
BRANCH   7  10
ATOM     10  O   UNL     1      -3.909   1.181  -2.075  0.00  0.00    -0.445 OA
BRANCH  10  11
ATOM     11  C   UNL     1      -4.523   2.471  -2.031  0.00  0.00    +0.107 C 
ATOM     12  C   UNL     1      -3.453   3.550  -2.210  0.00  0.00    +0.055 C 
ATOM     13  C   UNL     1      -5.554   2.584  -3.155  0.00  0.00    +0.055 C 
ATOM     14  C   UNL     1      -5.217   2.659  -0.681  0.00  0.00    +0.055 C 
ENDBRANCH  10  11
ENDBRANCH   7  10
ENDBRANCH   5   6
BRANCH   5  16
ATOM     15  C   UNL     1       0.334  -0.618  -1.981  0.00  0.00    +0.009 C 
ATOM     16  C   UNL     1       0.021  -0.039  -0.600  0.00  0.00    +0.012 C 
ATOM     17  C   UNL     1      -0.028   1.488  -0.685  0.00  0.00    +0.009 C 
ENDBRANCH   5  16
ENDBRANCH   1   5
BRANCH   3  18
ATOM     18  C   UNL     1      -0.725  -3.982   1.494  0.00  0.00    +0.200 C 
BRANCH  18  19
ATOM     19  C   UNL     1      -0.073  -4.259   2.824  0.00  0.00    +0.230 C 
ATOM     20  O   UNL     1       0.359  -3.342   3.490  0.00  0.00    -0.274 OA
ATOM     21  N   UNL     1       0.029  -5.526   3.274  0.00  0.00    -0.310 N 
ATOM     22  H   UNL     1      -0.317  -6.259   2.741  0.00  0.00    +0.149 HD
BRANCH  21  23
ATOM     23  C   UNL     1       0.662  -5.795   4.567  0.00  0.00    +0.095 C 
ATOM     24  C   UNL     1      -0.382  -5.648   5.687  0.00  0.00    +0.046 C 
ATOM     25  C   UNL     1       0.223  -6.237   6.993  0.00  0.00    +0.168 C 
ATOM     26  S   UNL     1       1.067  -7.734   6.329  0.00  0.00    -0.029 S 
ATOM     27  O   UNL     1       0.178  -8.840   6.410  0.00  0.00    -0.174 OA
ATOM     28  O   UNL     1       2.360  -7.833   6.910  0.00  0.00    -0.174 OA
ATOM     29  C   UNL     1       1.236  -7.232   4.569  0.00  0.00    +0.188 C 
ENDBRANCH  21  23
ENDBRANCH  18  19
ENDBRANCH   3  18
TORSDOF 8
