REMARK  Name = ZINC09242539
REMARK  6 active torsions:
REMARK  status: ('A' for Active; 'I' for Inactive)
REMARK    1  A    between atoms: C_1  and  C_2
REMARK    2  A    between atoms: C_2  and  C_3
REMARK    3  A    between atoms: C_3  and  C_4
REMARK    4  A    between atoms: C_11  and  N_28
REMARK    5  A    between atoms: C_12  and  C_26
REMARK    6  A    between atoms: C_16  and  N_23
REMARK                            x       y       z     vdW  Elec       q    Type
REMARK                         _______ _______ _______ _____ _____    ______ ____
ROOT
ATOM      1  C   UNL     1       0.739  -2.004  -1.265  0.00  0.00    +0.045 A 
ATOM      2  C   UNL     1      -0.234  -2.806  -1.723  0.00  0.00    +0.061 A 
ATOM      3  C   UNL     1       0.183  -4.146  -1.545  0.00  0.00    +0.245 A 
ATOM      4  N   UNL     1       1.364  -4.130  -1.001  0.00  0.00    -0.135 NA
ATOM      5  N   UNL     1       1.744  -2.792  -0.818  0.00  0.00    -0.278 N 
ATOM      6  H   UNL     1       2.581  -2.484  -0.435  0.00  0.00    +0.189 HD
ATOM      7  O   UNL     1      -0.598  -5.196  -1.915  0.00  0.00    -0.421 OA
ATOM      8  C   UNL     1      -1.887  -4.946  -2.215  0.00  0.00    +0.201 C 
ATOM      9  C   UNL     1      -2.398  -3.711  -2.419  0.00  0.00    +0.110 C 
ATOM     10  C   UNL     1      -1.564  -2.464  -2.333  0.00  0.00    +0.145 C 
ATOM     11  C   UNL     1      -1.398  -1.825  -3.675  0.00  0.00    +0.001 A 
ATOM     12  C   UNL     1      -0.832  -2.287  -4.844  0.00  0.00    +0.040 A 
ATOM     13  C   UNL     1      -0.840  -1.422  -5.933  0.00  0.00    +0.127 A 
ATOM     14  C   UNL     1      -1.390  -0.159  -5.844  0.00  0.00    +0.034 A 
ATOM     15  C   UNL     1      -1.962   0.311  -4.672  0.00  0.00    +0.026 A 
ATOM     16  C   UNL     1      -1.961  -0.547  -3.571  0.00  0.00    +0.038 A 
ATOM     17  N   UNL     1      -2.458  -0.342  -2.296  0.00  0.00    -0.284 N 
ATOM     18  C   UNL     1      -2.269  -1.416  -1.500  0.00  0.00    +0.238 C 
ATOM     19  O   UNL     1      -2.603  -1.521  -0.339  0.00  0.00    -0.274 OA
ATOM     20  H   UNL     1      -2.890   0.477  -2.008  0.00  0.00    +0.155 HD
ENDROOT
BRANCH  13  21
ATOM     21  N   UNL     1      -0.245  -1.864  -7.214  0.00  0.00    +0.056 N 
ATOM     22  O   UNL     1       0.240  -2.968  -7.306  0.00  0.00    -0.126 OA
ATOM     23  O   UNL     1      -0.245  -1.122  -8.168  0.00  0.00    -0.126 OA
ENDBRANCH  13  21
BRANCH   8  24
ATOM     24  N   UNL     1      -2.740  -6.017  -2.322  0.00  0.00    -0.328 N 
ATOM     25  H   UNL     1      -2.407  -6.917  -2.182  0.00  0.00    +0.145 HD
ATOM     26  H   UNL     1      -3.675  -5.873  -2.536  0.00  0.00    +0.145 HD
ENDBRANCH   8  24
BRANCH   9  27
ATOM     27  C   UNL     1      -3.791  -3.587  -2.730  0.00  0.00    +0.102 C 
ATOM     28  N   UNL     1      -4.895  -3.488  -2.976  0.00  0.00    -0.191 NA
ENDBRANCH   9  27
BRANCH   1  29
ATOM     29  C   UNL     1       0.718  -0.497  -1.257  0.00  0.00    +0.055 C 
BRANCH  29  31
ATOM     30  C   UNL     1      -0.019   1.526   0.010  0.00  0.00    +0.004 C 
ATOM     31  C   UNL     1       0.002  -0.004   0.002  0.00  0.00    +0.003 C 
ENDBRANCH  29  31
ENDBRANCH   1  29
TORSDOF 5
