REMARK  Name = ZINC09411304
REMARK  11 active torsions:
REMARK  status: ('A' for Active; 'I' for Inactive)
REMARK    1  A    between atoms: C_1  and  C_2
REMARK    2  A    between atoms: C_2  and  O_3
REMARK    3  A    between atoms: O_3  and  C_4
REMARK    4  A    between atoms: C_4  and  C_6
REMARK    5  A    between atoms: C_8  and  C_20
REMARK    6  A    between atoms: C_10  and  C_13
REMARK    7  A    between atoms: C_13  and  C_15
REMARK    8  A    between atoms: C_15  and  C_16
REMARK    9  A    between atoms: C_15  and  C_17
REMARK   10  A    between atoms: C_15  and  O_19
REMARK   11  A    between atoms: C_23  and  N_26
REMARK                            x       y       z     vdW  Elec       q    Type
REMARK                         _______ _______ _______ _____ _____    ______ ____
ROOT
ATOM      1  C   UNL     1       3.764   3.090  -1.271  0.00  0.00    +0.211 C 
ATOM      2  C   UNL     1       3.672   2.182  -0.024  0.00  0.00    +0.105 C 
ATOM      3  C   UNL     1       3.709   3.192   1.107  0.00  0.00    +0.114 C 
ATOM      4  N   UNL     1       3.800   4.378   0.588  0.00  0.00    -0.187 NA
ATOM      5  N   UNL     1       3.837   4.439  -0.688  0.00  0.00    -0.254 N 
ATOM      6  H   UNL     1       3.904   5.260  -1.200  0.00  0.00    +0.169 HD
ENDROOT
BRANCH   2   7
ATOM      7  C   UNL     1       2.377   1.411  -0.015  0.00  0.00    -0.036 A 
ATOM      8  C   UNL     1       1.171   2.086   0.002  0.00  0.00    +0.006 A 
ATOM      9  C   UNL     1      -0.017   1.378   0.010  0.00  0.00    +0.033 A 
ATOM     10  C   UNL     1       0.002  -0.004   0.002  0.00  0.00    +0.126 A 
ATOM     11  C   UNL     1       1.208  -0.679  -0.013  0.00  0.00    +0.033 A 
ATOM     12  C   UNL     1       2.396   0.029  -0.022  0.00  0.00    +0.006 A 
BRANCH  10  13
ATOM     13  N   UNL     1      -1.270  -0.761   0.011  0.00  0.00    +0.056 N 
ATOM     14  O   UNL     1      -2.333  -0.167   0.024  0.00  0.00    -0.126 OA
ATOM     15  O   UNL     1      -1.253  -1.979   0.004  0.00  0.00    -0.126 OA
ENDBRANCH  10  13
ENDBRANCH   2   7
BRANCH   1  16
ATOM     16  C   UNL     1       2.534   2.946  -2.129  0.00  0.00    +0.330 C 
ATOM     17  O   UNL     1       1.654   3.772  -2.068  0.00  0.00    -0.249 OA
BRANCH  16  18
ATOM     18  O   UNL     1       2.414   1.899  -2.961  0.00  0.00    -0.464 OA
BRANCH  18  20
ATOM     19  C   UNL     1       1.247   0.573  -4.636  0.00  0.00    +0.048 C 
ATOM     20  C   UNL     1       1.202   1.824  -3.756  0.00  0.00    +0.229 C 
ENDBRANCH  18  20
ENDBRANCH  16  18
ENDBRANCH   1  16
BRANCH   3  21
ATOM     21  C   UNL     1       3.653   2.894   2.483  0.00  0.00    +0.211 C 
ATOM     22  O   UNL     1       3.567   1.740   2.851  0.00  0.00    -0.288 OA
BRANCH  21  23
ATOM     23  C   UNL     1       3.699   4.008   3.497  0.00  0.00    +0.136 C 
ATOM     24  C   UNL     1       2.276   4.480   3.802  0.00  0.00    +0.051 C 
BRANCH  23  25
ATOM     25  C   UNL     1       4.355   3.500   4.783  0.00  0.00    +0.122 C 
ATOM     26 BR   UNL     1       4.416   4.952   6.106  0.00  0.00    -0.088 Br
ENDBRANCH  23  25
BRANCH  23  27
ATOM     27  O   UNL     1       4.460   5.098   2.973  0.00  0.00    -0.380 OA
ATOM     28  H   UNL     1       5.375   4.871   2.756  0.00  0.00    +0.211 HD
ENDBRANCH  23  27
ENDBRANCH  21  23
ENDBRANCH   3  21
TORSDOF 9
