REMARK  Name = ZINC12534682
REMARK  6 active torsions:
REMARK  status: ('A' for Active; 'I' for Inactive)
REMARK    1  A    between atoms: C_3  and  C_24
REMARK    2  A    between atoms: C_5  and  N_7
REMARK    3  A    between atoms: N_7  and  C_8
REMARK    4  A    between atoms: C_8  and  C_9
REMARK    5  A    between atoms: N_11  and  C_12
REMARK    6  A    between atoms: C_17  and  N_18
REMARK                            x       y       z     vdW  Elec       q    Type
REMARK                         _______ _______ _______ _____ _____    ______ ____
ROOT
ATOM      1  C   UNL     1      -3.812  -0.960   0.003  0.00  0.00    +0.234 C 
ATOM      2  O   UNL     1      -4.745  -0.185   0.020  0.00  0.00    -0.274 OA
ATOM      3  N   UNL     1      -4.041  -2.289   0.001  0.00  0.00    -0.282 N 
ATOM      4  H   UNL     1      -3.299  -2.908  -0.079  0.00  0.00    +0.155 HD
ENDROOT
BRANCH   3   5
ATOM      5  C   UNL     1      -5.349  -2.774   0.116  0.00  0.00    +0.061 A 
ATOM      6  C   UNL     1      -6.401  -2.082  -0.466  0.00  0.00    +0.045 A 
ATOM      7  C   UNL     1      -7.691  -2.566  -0.356  0.00  0.00    +0.043 A 
ATOM      8  C   UNL     1      -7.939  -3.735   0.343  0.00  0.00    +0.022 A 
ATOM      9  C   UNL     1      -6.897  -4.427   0.930  0.00  0.00    +0.031 A 
ATOM     10  C   UNL     1      -5.599  -3.951   0.820  0.00  0.00    +0.088 A 
ATOM     11 CL   UNL     1      -9.006  -1.701  -1.090  0.00  0.00    -0.083 Cl
BRANCH  10  12
ATOM     12  N   UNL     1      -4.540  -4.653   1.415  0.00  0.00    -0.218 N 
ATOM     13  C   UNL     1      -4.611  -5.843   2.042  0.00  0.00    +0.225 A 
ATOM     14  N   UNL     1      -3.409  -6.156   2.453  0.00  0.00    -0.222 NA
ATOM     15  C   UNL     1      -2.551  -5.193   2.119  0.00  0.00    +0.245 A 
ATOM     16  N   UNL     1      -3.196  -4.251   1.482  0.00  0.00    -0.153 NA
ENDBRANCH  10  12
ENDBRANCH   3   5
BRANCH   1  17
ATOM     17  C   UNL     1      -2.399  -0.439  -0.017  0.00  0.00    +0.198 C 
BRANCH  17  18
ATOM     18  N   UNL     1      -2.418   1.026  -0.011  0.00  0.00    -0.335 N 
ATOM     19  H   UNL     1      -3.264   1.500   0.003  0.00  0.00    +0.147 HD
BRANCH  18  24
ATOM     20  C   UNL     1       1.185   1.764  -0.070  0.00  0.00    +0.003 A 
ATOM     21  C   UNL     1       1.177   3.145  -0.065  0.00  0.00    +0.013 A 
ATOM     22  C   UNL     1      -0.035   3.836  -0.038  0.00  0.00    +0.038 A 
ATOM     23  C   UNL     1      -1.236   3.127  -0.017  0.00  0.00    +0.036 A 
ATOM     24  C   UNL     1      -1.218   1.741  -0.027  0.00  0.00    +0.028 A 
ATOM     25  C   UNL     1      -0.005   1.062  -0.049  0.00  0.00    +0.023 A 
BRANCH  22  26
ATOM     26  C   UNL     1      -0.046   5.314  -0.032  0.00  0.00    +0.242 C 
ATOM     27  O   UNL     1      -1.103   5.914  -0.009  0.00  0.00    -0.270 OA
ATOM     28  N   UNL     1       1.116   5.997  -0.052  0.00  0.00    -0.325 N 
ATOM     29  H   UNL     1       1.959   5.518  -0.070  0.00  0.00    +0.145 HD
ATOM     30  H   UNL     1       1.109   6.967  -0.048  0.00  0.00    +0.145 HD
ENDBRANCH  22  26
ENDBRANCH  18  24
ENDBRANCH  17  18
ENDBRANCH   1  17
TORSDOF 6
