REMARK  Name = ZINC62006830
REMARK  6 active torsions:
REMARK  status: ('A' for Active; 'I' for Inactive)
REMARK    1  A    between atoms: C_1  and  C_2
REMARK    2  A    between atoms: C_2  and  C_3
REMARK    3  A    between atoms: C_2  and  N_4
REMARK    4  A    between atoms: C_5  and  C_7
REMARK    5  A    between atoms: C_8  and  N_19
REMARK    6  A    between atoms: C_9  and  C_12
REMARK                            x       y       z     vdW  Elec       q    Type
REMARK                         _______ _______ _______ _____ _____    ______ ____
ROOT
ATOM      1  C   UNL     1      -3.027  -2.242  -0.479  0.00  0.00    +0.156 A 
ATOM      2  C   UNL     1      -3.329  -3.465  -1.075  0.00  0.00    +0.076 A 
ATOM      3  C   UNL     1      -4.677  -3.813  -0.978  0.00  0.00    +0.115 A 
ATOM      4  S   UNL     1      -5.336  -2.419  -0.085  0.00  0.00    +0.019 S 
ATOM      5  N   UNL     1      -3.985  -1.551   0.103  0.00  0.00    -0.203 NA
ENDROOT
BRANCH   3   6
ATOM      6  C   UNL     1      -5.365  -5.006  -1.476  0.00  0.00    +0.257 C 
ATOM      7  O   UNL     1      -4.741  -5.864  -2.072  0.00  0.00    -0.269 OA
ATOM      8  N   UNL     1      -6.689  -5.153  -1.274  0.00  0.00    -0.297 N 
ATOM      9  C   UNL     1      -7.562  -4.196  -0.579  0.00  0.00    +0.108 C 
ATOM     10  C   UNL     1      -8.984  -4.795  -0.568  0.00  0.00    +0.020 C 
ATOM     11  C   UNL     1      -8.722  -6.313  -0.759  0.00  0.00    +0.020 C 
ATOM     12  C   UNL     1      -7.504  -6.298  -1.720  0.00  0.00    +0.108 C 
ENDBRANCH   3   6
BRANCH   1  14
ATOM     13  N   UNL     1      -1.378  -0.497  -0.016  0.00  0.00    -0.308 N 
ATOM     14  C   UNL     1      -1.645  -1.728  -0.496  0.00  0.00    +0.265 C 
ATOM     15  O   UNL     1      -0.747  -2.415  -0.942  0.00  0.00    -0.268 OA
ATOM     16  H   UNL     1      -2.095   0.051   0.340  0.00  0.00    +0.149 HD
BRANCH  13  18
ATOM     17  C   UNL     1      -0.029   1.542  -0.046  0.00  0.00    +0.027 C 
ATOM     18  C   UNL     1      -0.005   0.013  -0.032  0.00  0.00    +0.067 C 
ATOM     19  C   UNL     1       0.735  -0.474   1.216  0.00  0.00    +0.027 C 
ENDBRANCH  13  18
ENDBRANCH   1  14
BRANCH   2  20
ATOM     20  N   UNL     1      -2.381  -4.259  -1.706  0.00  0.00    -0.355 N 
ATOM     21  H   UNL     1      -1.444  -4.009  -1.681  0.00  0.00    +0.142 HD
ATOM     22  H   UNL     1      -2.655  -5.064  -2.172  0.00  0.00    +0.142 HD
ENDBRANCH   2  20
TORSDOF 4
