REMARK  Name = ZINC16976654
REMARK  5 active torsions:
REMARK  status: ('A' for Active; 'I' for Inactive)
REMARK    1  A    between atoms: C_1  and  C_2
REMARK    2  A    between atoms: C_2  and  C_3
REMARK    3  A    between atoms: C_3  and  C_5
REMARK    4  A    between atoms: C_3  and  C_6
REMARK    5  A    between atoms: C_9  and  C_12
REMARK                            x       y       z     vdW  Elec       q    Type
REMARK                         _______ _______ _______ _____ _____    ______ ____
ROOT
ATOM      1  C   UNL     1      -1.121  -3.648  -0.008  0.00  0.00    +0.074 C 
ATOM      2  C   UNL     1      -0.118  -4.780  -0.024  0.00  0.00    +0.069 A 
ATOM      3  C   UNL     1      -0.534  -6.112  -0.028  0.00  0.00    +0.259 A 
ATOM      4  O   UNL     1      -1.722  -6.395  -0.018  0.00  0.00    -0.267 OA
ATOM      5  N   UNL     1       0.407  -7.081  -0.043  0.00  0.00    -0.295 N 
ATOM      6  H   UNL     1       0.144  -8.014  -0.046  0.00  0.00    +0.172 HD
ATOM      7  C   UNL     1       1.727  -6.745  -0.053  0.00  0.00    +0.195 A 
ATOM      8  N   UNL     1       2.127  -5.494  -0.049  0.00  0.00    -0.197 NA
ATOM      9  C   UNL     1       1.241  -4.477  -0.035  0.00  0.00    +0.165 A 
ATOM     10  N   UNL     1       1.687  -3.202  -0.032  0.00  0.00    -0.231 NA
ATOM     11  C   UNL     1       0.929  -2.137  -0.018  0.00  0.00    +0.063 C 
ATOM     12  C   UNL     1      -0.533  -2.252  -0.005  0.00  0.00    +0.121 C 
ATOM     13  C   UNL     1      -1.076  -1.018   0.007  0.00  0.00    +0.174 C 
ATOM     14  C   UNL     1       0.002  -0.004   0.002  0.00  0.00    +0.027 A 
ATOM     15  C   UNL     1       1.236  -0.681  -0.013  0.00  0.00    +0.008 A 
ATOM     16  C   UNL     1       2.418   0.037  -0.021  0.00  0.00    +0.010 A 
ATOM     17  C   UNL     1       2.385   1.426  -0.014  0.00  0.00    +0.001 A 
ATOM     18  C   UNL     1       1.177   2.092   0.002  0.00  0.00    +0.001 A 
ATOM     19  C   UNL     1      -0.017   1.384   0.010  0.00  0.00    +0.012 A 
ATOM     20  O   UNL     1      -2.402  -0.749   0.021  0.00  0.00    -0.291 OA
ATOM     21  N   UNL     1       2.666  -7.743  -0.068  0.00  0.00    -0.329 N 
ATOM     22  H   UNL     1       3.610  -7.520  -0.076  0.00  0.00    +0.145 HD
ATOM     23  H   UNL     1       2.387  -8.672  -0.071  0.00  0.00    +0.145 HD
ENDROOT
BRANCH   1  27
ATOM     24  C   UNL     1      -3.567  -4.078   3.468  0.00  0.00    -0.045 A 
ATOM     25  C   UNL     1      -4.142  -4.100   2.212  0.00  0.00    +0.004 A 
ATOM     26  C   UNL     1      -3.351  -3.960   1.087  0.00  0.00    +0.004 A 
ATOM     27  C   UNL     1      -1.984  -3.800   1.218  0.00  0.00    -0.039 A 
ATOM     28  C   UNL     1      -1.408  -3.784   2.475  0.00  0.00    +0.004 A 
ATOM     29  C   UNL     1      -2.200  -3.917   3.600  0.00  0.00    +0.004 A 
BRANCH  24  30
ATOM     30  C   UNL     1      -4.429  -4.229   4.695  0.00  0.00    +0.016 C 
ATOM     31  C   UNL     1      -3.987  -5.464   5.481  0.00  0.00    +0.012 C 
BRANCH  30  33
ATOM     32  C   UNL     1      -5.255  -3.083   6.756  0.00  0.00    +0.004 C 
ATOM     33  C   UNL     1      -4.286  -2.986   5.575  0.00  0.00    +0.004 C 
ENDBRANCH  30  33
ENDBRANCH  24  30
ENDBRANCH   1  27
TORSDOF 3
