REMARK  Name = ZINC37976473
REMARK  5 active torsions:
REMARK  status: ('A' for Active; 'I' for Inactive)
REMARK    1  A    between atoms: C_1  and  C_2
REMARK    2  A    between atoms: C_5  and  C_7
REMARK    3  A    between atoms: C_7  and  C_9
REMARK    4  A    between atoms: C_7  and  N_10
REMARK    5  A    between atoms: C_11  and  C_13
REMARK                            x       y       z     vdW  Elec       q    Type
REMARK                         _______ _______ _______ _____ _____    ______ ____
ROOT
ATOM      1  N   UNL     1       2.811  -2.961  -0.914  0.00  0.00    -0.301 N 
ATOM      2  C   UNL     1       3.494  -3.975  -1.482  0.00  0.00    +0.260 C 
ATOM      3  O   UNL     1       3.174  -5.126  -1.254  0.00  0.00    -0.269 OA
ATOM      4  H   UNL     1       3.066  -2.043  -1.096  0.00  0.00    +0.150 HD
ENDROOT
BRANCH   2   5
ATOM      5  C   UNL     1       4.623  -3.690  -2.375  0.00  0.00    +0.121 C 
ATOM      6  N   UNL     1       4.959  -2.459  -2.608  0.00  0.00    -0.180 NA
ATOM      7  N   UNL     1       6.029  -2.150  -3.455  0.00  0.00    -0.207 N 
ATOM      8  C   UNL     1       6.485  -3.061  -4.337  0.00  0.00    +0.233 C 
ATOM      9  O   UNL     1       7.410  -2.785  -5.072  0.00  0.00    -0.274 OA
ATOM     10  C   UNL     1       5.843  -4.423  -4.406  0.00  0.00    +0.104 C 
ATOM     11  C   UNL     1       5.378  -4.831  -3.004  0.00  0.00    +0.071 C 
ATOM     12  H   UNL     1       6.444  -1.275  -3.407  0.00  0.00    +0.177 HD
ENDBRANCH   2   5
BRANCH   1  13
ATOM     13  C   UNL     1       1.684  -3.245  -0.023  0.00  0.00    +0.136 C 
ATOM     14  C   UNL     1       2.205  -3.494   1.394  0.00  0.00    +0.036 C 
BRANCH  13  19
ATOM     15  C   UNL     1      -0.018   1.503   0.010  0.00  0.00    +0.086 C 
ATOM     16  C   UNL     1       0.002  -0.004   0.002  0.00  0.00    +0.102 A 
ATOM     17  C   UNL     1      -1.078  -0.805   0.003  0.00  0.00    +0.045 A 
ATOM     18  C   UNL     1      -0.601  -2.136  -0.007  0.00  0.00    +0.047 A 
ATOM     19  C   UNL     1       0.742  -2.069  -0.013  0.00  0.00    +0.125 A 
ATOM     20  O   UNL     1       1.102  -0.775  -0.013  0.00  0.00    -0.463 OA
ENDBRANCH  13  19
ENDBRANCH   1  13
TORSDOF 3
