REMARK  Name = ZINC18100468
REMARK  7 active torsions:
REMARK  status: ('A' for Active; 'I' for Inactive)
REMARK    1  A    between atoms: C_1  and  C_2
REMARK    2  A    between atoms: N_10  and  C_13
REMARK    3  A    between atoms: C_13  and  C_14
REMARK    4  A    between atoms: C_14  and  C_15
REMARK    5  A    between atoms: N_17  and  C_18
REMARK    6  A    between atoms: N_17  and  C_19
REMARK    7  A    between atoms: C_19  and  C_20
REMARK                            x       y       z     vdW  Elec       q    Type
REMARK                         _______ _______ _______ _____ _____    ______ ____
ROOT
ATOM      1  C   UNL     1       2.010   6.149  -1.153  0.00  0.00    +0.217 C 
ATOM      2  O   UNL     1       2.108   5.558  -2.208  0.00  0.00    -0.276 OA
ATOM      3  N   UNL     1       2.143   5.480   0.009  0.00  0.00    -0.297 N 
ATOM      4  C   UNL     1       2.025   6.194   1.283  0.00  0.00    +0.132 C 
ENDROOT
BRANCH   1   5
ATOM      5  C   UNL     1       1.741   7.631  -1.143  0.00  0.00    +0.115 C 
BRANCH   5   6
ATOM      6  C   UNL     1       1.635   8.140  -2.582  0.00  0.00    +0.126 C 
BRANCH   6  16
ATOM      7  C   UNL     1       1.734  15.632  -2.544  0.00  0.00    +0.044 C 
ATOM      8  C   UNL     1       1.232  14.211  -2.546  0.00  0.00    -0.050 A 
ATOM      9  C   UNL     1      -0.128  13.964  -2.533  0.00  0.00    +0.004 A 
ATOM     10  C   UNL     1      -0.605  12.662  -2.536  0.00  0.00    +0.014 A 
ATOM     11  C   UNL     1       0.288  11.603  -2.551  0.00  0.00    +0.049 A 
ATOM     12  C   UNL     1       1.675  11.856  -2.563  0.00  0.00    +0.050 A 
ATOM     13  C   UNL     1       2.137  13.162  -2.561  0.00  0.00    +0.017 A 
ATOM     14  C   UNL     1       2.327  10.529  -2.577  0.00  0.00    +0.254 C 
ATOM     15  O   UNL     1       3.525  10.329  -2.590  0.00  0.00    -0.270 OA
ATOM     16  N   UNL     1       1.372   9.582  -2.572  0.00  0.00    -0.234 N 
ATOM     17  C   UNL     1       0.145  10.132  -2.562  0.00  0.00    +0.254 C 
ATOM     18  O   UNL     1      -0.905   9.522  -2.562  0.00  0.00    -0.270 OA
ENDBRANCH   6  16
ENDBRANCH   5   6
ENDBRANCH   1   5
BRANCH   3  19
ATOM     19  C   UNL     1       2.405   4.039  -0.001  0.00  0.00    +0.181 C 
BRANCH  19  20
ATOM     20  C   UNL     1       1.097   3.290   0.009  0.00  0.00    +0.128 A 
ATOM     21  N   UNL     1       1.132   1.932   0.002  0.00  0.00    -0.309 N 
ATOM     22  H   UNL     1       1.987   1.473  -0.009  0.00  0.00    +0.170 HD
ATOM     23  C   UNL     1      -0.014   1.213   0.009  0.00  0.00    +0.259 A 
ATOM     24  O   UNL     1       0.002  -0.004   0.002  0.00  0.00    -0.267 OA
ATOM     25  C   UNL     1      -1.281   1.960   0.019  0.00  0.00    +0.065 A 
ATOM     26  C   UNL     1      -2.517   1.315   0.033  0.00  0.00    +0.015 A 
ATOM     27  C   UNL     1      -3.673   2.064   0.048  0.00  0.00    +0.001 A 
ATOM     28  C   UNL     1      -3.615   3.452   0.055  0.00  0.00    +0.002 A 
ATOM     29  C   UNL     1      -2.405   4.108   0.047  0.00  0.00    +0.028 A 
ATOM     30  C   UNL     1      -1.219   3.371   0.032  0.00  0.00    +0.078 A 
ATOM     31  N   UNL     1      -0.005   3.976   0.023  0.00  0.00    -0.232 NA
ENDBRANCH  19  20
ENDBRANCH   3  19
TORSDOF 5
