REMARK  Name = ZINC19797049
REMARK  6 active torsions:
REMARK  status: ('A' for Active; 'I' for Inactive)
REMARK    1  A    between atoms: C_1  and  C_2
REMARK    2  A    between atoms: N_13  and  N_25
REMARK    3  A    between atoms: C_14  and  S_16
REMARK    4  A    between atoms: S_16  and  C_17
REMARK    5  A    between atoms: C_17  and  C_18
REMARK    6  A    between atoms: N_23  and  C_24
REMARK                            x       y       z     vdW  Elec       q    Type
REMARK                         _______ _______ _______ _____ _____    ______ ____
ROOT
ATOM      1  C   UNL     1       7.890  -1.758  -0.176  0.00  0.00    +0.008 C 
ATOM      2  C   UNL     1       6.441  -1.351  -0.449  0.00  0.00    -0.009 C 
ATOM      3  C   UNL     1       5.497  -2.216   0.393  0.00  0.00    +0.008 C 
ATOM      4  C   UNL     1       4.052  -1.991  -0.051  0.00  0.00    +0.037 C 
ATOM      5  C   UNL     1       3.760  -0.493  -0.038  0.00  0.00    -0.023 A 
ATOM      6  C   UNL     1       4.766   0.405  -0.042  0.00  0.00    -0.004 A 
ATOM      7  S   UNL     1       3.970   1.988  -0.024  0.00  0.00    -0.073 S 
ATOM      8  C   UNL     1       2.282   1.438  -0.012  0.00  0.00    +0.117 A 
ATOM      9  C   UNL     1       2.396   0.038  -0.021  0.00  0.00    +0.077 A 
ATOM     10  C   UNL     1       1.162  -0.687  -0.013  0.00  0.00    +0.280 A 
ATOM     11  O   UNL     1       1.161  -1.906  -0.019  0.00  0.00    -0.265 OA
ATOM     12  N   UNL     1       0.002  -0.004   0.002  0.00  0.00    -0.209 N 
ATOM     13  C   UNL     1      -0.016   1.361   0.009  0.00  0.00    +0.190 A 
ATOM     14  N   UNL     1       1.105   2.052   0.003  0.00  0.00    -0.215 NA
ATOM     15  C   UNL     1       6.237   0.120  -0.059  0.00  0.00    +0.046 C 
ENDROOT
BRANCH  12  16
ATOM     16  N   UNL     1      -1.179  -0.690   0.010  0.00  0.00    -0.293 N 
ATOM     17  H   UNL     1      -2.133  -0.142   0.022  0.00  0.00    +0.163 HD
ATOM     18  H   UNL     1      -1.176  -1.790   0.005  0.00  0.00    +0.163 HD
ENDBRANCH  12  16
BRANCH  13  19
ATOM     19  S   UNL     1      -1.561   2.209   0.021  0.00  0.00    -0.077 S 
BRANCH  19  20
ATOM     20  C   UNL     1      -0.978   3.923   0.028  0.00  0.00    +0.173 C 
BRANCH  20  21
ATOM     21  C   UNL     1      -2.161   4.856   0.039  0.00  0.00    +0.231 C 
ATOM     22  O   UNL     1      -3.287   4.407   0.042  0.00  0.00    -0.274 OA
ATOM     23  N   UNL     1      -1.968   6.189   0.045  0.00  0.00    -0.240 N 
ATOM     24  C   UNL     1      -3.026   7.024   0.054  0.00  0.00    +0.306 C 
ATOM     25  O   UNL     1      -4.155   6.574   0.057  0.00  0.00    -0.252 OA
ATOM     26  N   UNL     1      -2.833   8.358   0.061  0.00  0.00    -0.302 N 
ATOM     27  C   UNL     1      -3.983   9.265   0.071  0.00  0.00    +0.129 C 
ATOM     28  H   UNL     1      -0.946   6.597   0.042  0.00  0.00    +0.159 HD
ATOM     29  H   UNL     1      -1.811   8.765   0.058  0.00  0.00    +0.150 HD
ENDBRANCH  20  21
ENDBRANCH  19  20
ENDBRANCH  13  19
TORSDOF 4
