REMARK  Name = ZINC08502019
REMARK  3 active torsions:
REMARK  status: ('A' for Active; 'I' for Inactive)
REMARK    1  A    between atoms: N_14  and  C_18
REMARK    2  A    between atoms: C_18  and  C_19
REMARK    3  A    between atoms: C_24  and  C_25
REMARK                            x       y       z     vdW  Elec       q    Type
REMARK                         _______ _______ _______ _____ _____    ______ ____
ROOT
ATOM      1  C   UNL     1       1.210  -0.676  -0.014  0.00  0.00    +0.000 A 
ATOM      2  C   UNL     1       0.002  -0.004   0.002  0.00  0.00    +0.000 A 
ATOM      3  C   UNL     1      -0.017   1.376   0.010  0.00  0.00    +0.006 A 
ATOM      4  C   UNL     1       1.175   2.098   0.002  0.00  0.00    -0.012 A 
ATOM      5  C   UNL     1       2.365   1.431  -0.005  0.00  0.00    -0.042 A 
ATOM      6  C   UNL     1       2.389   0.040  -0.016  0.00  0.00    +0.004 A 
ATOM      7  C   UNL     1       3.705   2.136   0.004  0.00  0.00    +0.035 C 
ATOM      8  C   UNL     1       3.871   2.913  -1.302  0.00  0.00    +0.005 C 
ATOM      9  C   UNL     1       3.177   4.258  -1.223  0.00  0.00    +0.003 C 
ATOM     10  C   UNL     1       1.665   4.184  -1.277  0.00  0.00    +0.040 C 
ATOM     11  C   UNL     1       1.063   3.604  -0.004  0.00  0.00    +0.138 C 
ATOM     12  C   UNL     1       1.627   4.220   1.244  0.00  0.00    +0.251 C 
ATOM     13  O   UNL     1       2.780   4.296   1.608  0.00  0.00    -0.272 OA
ATOM     14  N   UNL     1       0.564   4.710   1.925  0.00  0.00    -0.220 N 
ATOM     15  C   UNL     1      -0.571   4.567   1.232  0.00  0.00    +0.310 C 
ATOM     16  O   UNL     1      -1.658   4.938   1.630  0.00  0.00    -0.252 OA
ATOM     17  N   UNL     1      -0.370   3.965   0.046  0.00  0.00    -0.281 N 
ATOM     18  H   UNL     1      -1.023   3.799  -0.649  0.00  0.00    +0.152 HD
ENDROOT
BRANCH  14  19
ATOM     19  C   UNL     1       0.654   5.332   3.248  0.00  0.00    +0.154 C 
BRANCH  19  20
ATOM     20  C   UNL     1       0.880   6.814   3.092  0.00  0.00    -0.012 A 
ATOM     21  C   UNL     1       2.149   7.338   3.230  0.00  0.00    +0.006 A 
ATOM     22  C   UNL     1       2.358   8.698   3.088  0.00  0.00    +0.000 A 
ATOM     23  C   UNL     1       1.298   9.542   2.806  0.00  0.00    +0.001 A 
ATOM     24  C   UNL     1       0.025   9.031   2.665  0.00  0.00    +0.019 A 
ATOM     25  C   UNL     1      -0.193   7.658   2.802  0.00  0.00    +0.056 A 
BRANCH  25  26
ATOM     26  C   UNL     1      -1.511   7.120   2.651  0.00  0.00    +0.099 C 
ATOM     27  N   UNL     1      -2.557   6.694   2.531  0.00  0.00    -0.191 NA
ENDBRANCH  25  26
ENDBRANCH  19  20
ENDBRANCH  14  19
TORSDOF 3
