REMARK  Name = ZINC63627311
REMARK  5 active torsions:
REMARK  status: ('A' for Active; 'I' for Inactive)
REMARK    1  A    between atoms: C_1  and  N_2
REMARK    2  A    between atoms: C_6  and  S_12
REMARK    3  A    between atoms: S_12  and  N_15
REMARK    4  A    between atoms: N_15  and  C_16
REMARK    5  A    between atoms: C_19  and  C_22
REMARK                            x       y       z     vdW  Elec       q    Type
REMARK                         _______ _______ _______ _____ _____    ______ ____
ROOT
ATOM      1  C   UNL     1      -3.120  -5.197  -2.341  0.00  0.00    +0.048 A 
ATOM      2  C   UNL     1      -1.832  -4.720  -2.128  0.00  0.00    +0.025 A 
ATOM      3  C   UNL     1      -0.777  -5.238  -2.854  0.00  0.00    +0.008 A 
ATOM      4  C   UNL     1      -1.001  -6.228  -3.792  0.00  0.00    -0.021 A 
ATOM      5  C   UNL     1      -2.282  -6.705  -4.007  0.00  0.00    +0.008 A 
ATOM      6  C   UNL     1      -3.340  -6.196  -3.281  0.00  0.00    +0.025 A 
ENDROOT
BRANCH   4   7
ATOM      7  C   UNL     1       0.152  -6.790  -4.583  0.00  0.00    +0.133 C 
ATOM      8  C   UNL     1       0.163  -6.204  -5.977  0.00  0.00    +0.012 C 
ATOM      9  C   UNL     1       0.018  -7.249  -6.824  0.00  0.00    -0.002 A 
ATOM     10  C   UNL     1      -0.047  -7.341  -8.287  0.00  0.00    +0.029 A 
ATOM     11  C   UNL     1      -0.200  -8.557  -8.862  0.00  0.00    +0.042 A 
ATOM     12  C   UNL     1      -0.297  -9.728  -8.096  0.00  0.00    +0.022 A 
ATOM     13  C   UNL     1      -0.246  -9.722  -6.747  0.00  0.00    +0.027 A 
ATOM     14  C   UNL     1      -0.087  -8.499  -6.038  0.00  0.00    +0.043 A 
ATOM     15  N   UNL     1      -0.009  -8.238  -4.754  0.00  0.00    -0.374 N 
ATOM     16 CL   UNL     1      -0.278  -8.670 -10.593  0.00  0.00    -0.084 Cl
ATOM     17  H   UNL     1      -0.052  -8.892  -4.039  0.00  0.00    +0.161 HD
ENDBRANCH   4   7
BRANCH   1  18
ATOM     18  N   UNL     1      -4.189  -4.676  -1.609  0.00  0.00    -0.216 N 
ATOM     19  H   UNL     1      -4.811  -4.062  -2.029  0.00  0.00    +0.174 HD
BRANCH  18  20
ATOM     20  S   UNL     1      -4.393  -5.106  -0.023  0.00  0.00    +0.072 S 
ATOM     21  O   UNL     1      -5.595  -4.486   0.414  0.00  0.00    -0.150 OA
ATOM     22  O   UNL     1      -3.146  -4.888   0.621  0.00  0.00    -0.150 OA
BRANCH  20  28
ATOM     23  C   UNL     1      -4.911 -12.111   0.236  0.00  0.00    +0.156 C 
ATOM     24  N   UNL     1      -5.654 -10.864   0.044  0.00  0.00    -0.277 N 
ATOM     25  C   UNL     1      -5.123  -9.575   0.072  0.00  0.00    +0.090 A 
ATOM     26  C   UNL     1      -3.845  -9.076   0.269  0.00  0.00    +0.031 A 
ATOM     27  C   UNL     1      -3.627  -7.712   0.238  0.00  0.00    +0.031 A 
ATOM     28  C   UNL     1      -4.681  -6.844   0.013  0.00  0.00    +0.112 A 
ATOM     29  C   UNL     1      -5.957  -7.334  -0.184  0.00  0.00    +0.077 A 
ATOM     30  C   UNL     1      -6.186  -8.700  -0.156  0.00  0.00    +0.159 A 
ATOM     31  O   UNL     1      -7.301  -9.455  -0.312  0.00  0.00    -0.407 OA
ATOM     32  C   UNL     1      -6.976 -10.752  -0.197  0.00  0.00    +0.421 A 
ATOM     33  O   UNL     1      -7.753 -11.682  -0.291  0.00  0.00    -0.223 OA
ENDBRANCH  20  28
ENDBRANCH  18  20
ENDBRANCH   1  18
TORSDOF 4
