REMARK  Name = ZINC65964454
REMARK  10 active torsions:
REMARK  status: ('A' for Active; 'I' for Inactive)
REMARK    1  A    between atoms: C_1  and  C_2
REMARK    2  A    between atoms: C_2  and  C_3
REMARK    3  A    between atoms: C_3  and  C_4
REMARK    4  A    between atoms: C_4  and  C_5
REMARK    5  A    between atoms: C_5  and  N_6
REMARK    6  A    between atoms: C_7  and  C_9
REMARK    7  A    between atoms: C_9  and  C_10
REMARK    8  A    between atoms: C_9  and  N_11
REMARK    9  A    between atoms: C_14  and  C_17
REMARK   10  A    between atoms: N_19  and  C_20
REMARK                            x       y       z     vdW  Elec       q    Type
REMARK                         _______ _______ _______ _____ _____    ______ ____
ROOT
ATOM      1  N   UNL     1      -5.337  -6.763   0.137  0.00  0.00    +0.387 N 
ATOM      2  C   UNL     1      -5.307  -8.227   0.240  0.00  0.00    -0.077 C 
ATOM      3  C   UNL     1      -6.737  -8.769   0.296  0.00  0.00    -0.006 C 
ATOM      4  C   UNL     1      -7.451  -8.184   1.518  0.00  0.00    +0.071 C 
ATOM      5  C   UNL     1      -7.412  -6.655   1.437  0.00  0.00    -0.006 C 
ATOM      6  C   UNL     1      -5.957  -6.192   1.339  0.00  0.00    -0.077 C 
ATOM      7  H   UNL     1      -5.873  -6.497  -0.675  0.00  0.00    -0.081 HD
ENDROOT
BRANCH   4   8
ATOM      8  C   UNL     1      -8.884  -8.651   1.535  0.00  0.00    +0.216 C 
ATOM      9  O   UNL     1      -9.295  -9.380   0.657  0.00  0.00    -0.276 OA
ATOM     10  N   UNL     1      -9.708  -8.259   2.526  0.00  0.00    -0.312 N 
ATOM     11  H   UNL     1      -9.380  -7.676   3.229  0.00  0.00    +0.149 HD
BRANCH  10  12
ATOM     12  C   UNL     1     -11.101  -8.713   2.543  0.00  0.00    +0.073 C 
ATOM     13  C   UNL     1     -11.950  -7.788   1.670  0.00  0.00    +0.022 C 
ATOM     14  C   UNL     1     -13.405  -8.262   1.687  0.00  0.00    +0.002 C 
ATOM     15  C   UNL     1     -13.933  -8.234   3.123  0.00  0.00    +0.000 C 
ATOM     16  C   UNL     1     -13.084  -9.160   3.997  0.00  0.00    +0.002 C 
ATOM     17  C   UNL     1     -11.629  -8.685   3.979  0.00  0.00    +0.022 C 
ENDBRANCH  10  12
ENDBRANCH   4   8
BRANCH   1  18
ATOM     18  C   UNL     1      -3.966  -6.254   0.006  0.00  0.00    +0.016 C 
ATOM     19  C   UNL     1      -3.322  -6.841  -1.251  0.00  0.00    -0.004 C 
BRANCH  18  21
ATOM     20  N   UNL     1      -2.948  -4.024   0.337  0.00  0.00    -0.317 N 
ATOM     21  C   UNL     1      -3.995  -4.752  -0.099  0.00  0.00    +0.199 C 
ATOM     22  O   UNL     1      -4.962  -4.196  -0.577  0.00  0.00    -0.278 OA
ATOM     23  H   UNL     1      -2.175  -4.468   0.719  0.00  0.00    +0.149 HD
BRANCH  20  24
ATOM     24  C   UNL     1      -2.977  -2.563   0.234  0.00  0.00    +0.104 C 
BRANCH  24  25
ATOM     25  C   UNL     1      -1.676  -1.986   0.796  0.00  0.00    +0.019 C 
BRANCH  25  26
ATOM     26  C   UNL     1      -1.707  -0.460   0.689  0.00  0.00    +0.001 C 
BRANCH  26  28
ATOM     27  C   UNL     1      -0.436   1.642   1.144  0.00  0.00    +0.004 C 
ATOM     28  C   UNL     1      -0.406   0.116   1.251  0.00  0.00    -0.003 C 
ENDBRANCH  26  28
ENDBRANCH  25  26
ENDBRANCH  24  25
ENDBRANCH  20  24
ENDBRANCH  18  21
ENDBRANCH   1  18
TORSDOF 8
