REMARK  Name = ZINC40497909
REMARK  6 active torsions:
REMARK  status: ('A' for Active; 'I' for Inactive)
REMARK    1  A    between atoms: C_4  and  N_7
REMARK    2  A    between atoms: C_8  and  C_24
REMARK    3  A    between atoms: C_11  and  C_13
REMARK    4  A    between atoms: N_15  and  C_16
REMARK    5  A    between atoms: C_16  and  C_17
REMARK    6  A    between atoms: C_20  and  O_23
REMARK                            x       y       z     vdW  Elec       q    Type
REMARK                         _______ _______ _______ _____ _____    ______ ____
ROOT
ATOM      1  N   UNL     1       3.619  -0.648  -0.037  0.00  0.00    -0.212 N 
ATOM      2  C   UNL     1       3.783  -2.111  -0.053  0.00  0.00    +0.189 C 
ATOM      3  C   UNL     1       5.312  -2.305  -0.067  0.00  0.00    +0.096 C 
ATOM      4  C   UNL     1       5.860  -0.896  -0.058  0.00  0.00    +0.123 C 
ATOM      5  N   UNL     1       4.879  -0.052  -0.048  0.00  0.00    -0.178 NA
ENDROOT
BRANCH   1   9
ATOM      6  C   UNL     1      -0.017   1.379   0.010  0.00  0.00    +0.000 A 
ATOM      7  C   UNL     1       1.169   2.090   0.002  0.00  0.00    +0.002 A 
ATOM      8  C   UNL     1       2.377   1.421  -0.013  0.00  0.00    +0.025 A 
ATOM      9  C   UNL     1       2.400   0.031  -0.021  0.00  0.00    +0.052 A 
ATOM     10  C   UNL     1       1.206  -0.680  -0.013  0.00  0.00    +0.025 A 
ATOM     11  C   UNL     1       0.002  -0.004   0.002  0.00  0.00    +0.002 A 
ENDBRANCH   1   9
BRANCH   2  12
ATOM     12  C   UNL     1       3.159  -2.701  -1.291  0.00  0.00    +0.233 C 
ATOM     13  O   UNL     1       2.924  -1.993  -2.248  0.00  0.00    -0.274 OA
ATOM     14  N   UNL     1       2.861  -4.014  -1.335  0.00  0.00    -0.328 N 
ATOM     15  H   UNL     1       3.049  -4.580  -0.569  0.00  0.00    +0.145 HD
ATOM     16  H   UNL     1       2.459  -4.394  -2.132  0.00  0.00    +0.145 HD
ENDBRANCH   2  12
BRANCH   4  17
ATOM     17  C   UNL     1       7.279  -0.542  -0.066  0.00  0.00    +0.260 C 
ATOM     18  O   UNL     1       8.125  -1.417  -0.082  0.00  0.00    -0.269 OA
ATOM     19  N   UNL     1       7.650   0.754  -0.057  0.00  0.00    -0.306 N 
ATOM     20  H   UNL     1       6.976   1.451  -0.045  0.00  0.00    +0.149 HD
BRANCH  19  21
ATOM     21  C   UNL     1       9.072   1.109  -0.065  0.00  0.00    +0.140 C 
BRANCH  21  22
ATOM     22  C   UNL     1       9.215   2.609  -0.052  0.00  0.00    -0.030 A 
ATOM     23  C   UNL     1       9.264   3.308  -1.244  0.00  0.00    +0.009 A 
ATOM     24  C   UNL     1       9.396   4.684  -1.235  0.00  0.00    +0.046 A 
ATOM     25  C   UNL     1       9.477   5.363  -0.028  0.00  0.00    +0.117 A 
ATOM     26  C   UNL     1       9.427   4.659   1.167  0.00  0.00    +0.046 A 
ATOM     27  C   UNL     1       9.290   3.285   1.152  0.00  0.00    +0.009 A 
BRANCH  25  28
ATOM     28  O   UNL     1       9.607   6.716  -0.016  0.00  0.00    -0.507 OA
ATOM     29  H   UNL     1       8.766   7.192  -0.001  0.00  0.00    +0.292 HD
ENDBRANCH  25  28
ENDBRANCH  21  22
ENDBRANCH  19  21
ENDBRANCH   4  17
TORSDOF 6
