REMARK  Name = ZINC51096240
REMARK  6 active torsions:
REMARK  status: ('A' for Active; 'I' for Inactive)
REMARK    1  A    between atoms: C_1  and  C_2
REMARK    2  A    between atoms: C_7  and  N_12
REMARK    3  A    between atoms: C_9  and  C_11
REMARK    4  A    between atoms: C_13  and  C_15
REMARK    5  A    between atoms: C_19  and  N_21
REMARK    6  A    between atoms: N_21  and  N_22
REMARK                            x       y       z     vdW  Elec       q    Type
REMARK                         _______ _______ _______ _____ _____    ______ ____
ROOT
ATOM      1  N   UNL     1       1.471  -2.526   2.420  0.00  0.00    -0.307 N 
ATOM      2  C   UNL     1       2.056  -3.740   2.406  0.00  0.00    +0.263 C 
ATOM      3  O   UNL     1       1.996  -4.432   1.409  0.00  0.00    -0.269 OA
ATOM      4  H   UNL     1       1.520  -1.974   3.216  0.00  0.00    +0.149 HD
ENDROOT
BRANCH   1  10
ATOM      5  C   UNL     1      -0.019   1.526   0.010  0.00  0.00    +0.008 C 
ATOM      6  C   UNL     1       0.002  -0.004   0.002  0.00  0.00    -0.009 C 
ATOM      7  C   UNL     1      -1.433  -0.534   0.013  0.00  0.00    +0.003 C 
ATOM      8  C   UNL     1      -1.413  -2.063   0.004  0.00  0.00    +0.002 C 
ATOM      9  C   UNL     1      -0.673  -2.570   1.244  0.00  0.00    +0.022 C 
ATOM     10  C   UNL     1       0.763  -2.041   1.233  0.00  0.00    +0.076 C 
ATOM     11  C   UNL     1       0.742  -0.511   1.242  0.00  0.00    +0.009 C 
ATOM     12  C   UNL     1       0.026  -0.018   2.500  0.00  0.00    +0.009 C 
ENDBRANCH   1  10
BRANCH   2  13
ATOM     13  C   UNL     1       2.773  -4.231   3.606  0.00  0.00    +0.127 A 
ATOM     14  C   UNL     1       3.379  -5.483   3.583  0.00  0.00    +0.033 A 
ATOM     15  C   UNL     1       4.048  -5.933   4.712  0.00  0.00    +0.006 A 
ATOM     16  C   UNL     1       4.088  -5.116   5.827  0.00  0.00    +0.045 A 
ATOM     17  C   UNL     1       3.459  -3.872   5.785  0.00  0.00    +0.133 A 
ATOM     18  N   UNL     1       2.835  -3.469   4.693  0.00  0.00    -0.226 NA
BRANCH  17  19
ATOM     19  N   UNL     1       3.494  -3.046   6.901  0.00  0.00    -0.268 N 
ATOM     20  H   UNL     1       3.955  -3.335   7.705  0.00  0.00    +0.167 HD
BRANCH  19  21
ATOM     21  N   UNL     1       2.881  -1.825   6.867  0.00  0.00    -0.255 NA
ATOM     22  H   UNL     1       2.991  -1.341   7.746  0.00  0.00    +0.140 HD
ATOM     23  H   UNL     1       3.228  -1.268   6.101  0.00  0.00    +0.140 HD
ENDBRANCH  19  21
ENDBRANCH  17  19
ENDBRANCH   2  13
TORSDOF 4
