REMARK  Name = ZINC63415974
REMARK  5 active torsions:
REMARK  status: ('A' for Active; 'I' for Inactive)
REMARK    1  A    between atoms: C_3  and  C_9
REMARK    2  A    between atoms: C_12  and  C_14
REMARK    3  A    between atoms: C_14  and  S_15
REMARK    4  A    between atoms: S_15  and  C_16
REMARK    5  A    between atoms: C_20  and  N_22
REMARK                            x       y       z     vdW  Elec       q    Type
REMARK                         _______ _______ _______ _____ _____    ______ ____
ROOT
ATOM      1  C   UNL     1       7.253   2.597  -0.063  0.00  0.00    +0.175 C 
ENDROOT
BRANCH   1   5
ATOM      2  C   UNL     1       3.656   2.164  -0.022  0.00  0.00    +0.250 A 
ATOM      3  N   UNL     1       3.786   3.470  -0.011  0.00  0.00    -0.107 NA
ATOM      4  N   UNL     1       5.037   3.771  -0.023  0.00  0.00    -0.111 NA
ATOM      5  C   UNL     1       5.748   2.679  -0.043  0.00  0.00    +0.228 A 
ATOM      6  O   UNL     1       4.897   1.638  -0.036  0.00  0.00    -0.419 OA
BRANCH   2   9
ATOM      7  C   UNL     1      -0.017   1.381   0.010  0.00  0.00    +0.021 A 
ATOM      8  C   UNL     1       1.166   2.090   0.002  0.00  0.00    +0.016 A 
ATOM      9  C   UNL     1       2.385   1.409  -0.013  0.00  0.00    +0.057 A 
ATOM     10  C   UNL     1       2.398   0.012  -0.021  0.00  0.00    +0.055 A 
ATOM     11  C   UNL     1       1.207  -0.686  -0.013  0.00  0.00    +0.040 A 
ATOM     12  C   UNL     1       0.002  -0.004   0.002  0.00  0.00    +0.042 A 
ATOM     13 CL   UNL     1      -1.492  -0.889   0.012  0.00  0.00    -0.083 Cl
ATOM     14 CL   UNL     1       3.908  -0.843  -0.040  0.00  0.00    -0.083 Cl
ENDBRANCH   2   9
ENDBRANCH   1   5
BRANCH   1  15
ATOM     15  S   UNL     1       7.879   2.548   1.639  0.00  0.00    -0.076 S 
BRANCH  15  16
ATOM     16  C   UNL     1       9.628   2.455   1.447  0.00  0.00    +0.192 A 
ATOM     17  N   UNL     1      10.144   2.443   0.226  0.00  0.00    -0.207 NA
ATOM     18  C   UNL     1      11.460   2.374   0.043  0.00  0.00    +0.122 A 
ATOM     19  C   UNL     1      12.296   2.313   1.155  0.00  0.00    +0.086 A 
ATOM     20  C   UNL     1      11.718   2.327   2.421  0.00  0.00    +0.122 A 
ATOM     21  N   UNL     1      10.394   2.403   2.527  0.00  0.00    -0.207 NA
ATOM     22  N   UNL     1      11.992   2.362  -1.237  0.00  0.00    -0.343 N 
ATOM     23  H   UNL     1      11.403   2.404  -2.007  0.00  0.00    +0.144 HD
ATOM     24  H   UNL     1      12.952   2.312  -1.363  0.00  0.00    +0.144 HD
BRANCH  20  25
ATOM     25  N   UNL     1      12.512   2.268   3.556  0.00  0.00    -0.343 N 
ATOM     26  H   UNL     1      13.477   2.217   3.471  0.00  0.00    +0.144 HD
ATOM     27  H   UNL     1      12.102   2.279   4.435  0.00  0.00    +0.144 HD
ENDBRANCH  20  25
ENDBRANCH  15  16
ENDBRANCH   1  15
TORSDOF 5
