REMARK  Name = ZINC40314942
REMARK  5 active torsions:
REMARK  status: ('A' for Active; 'I' for Inactive)
REMARK    1  A    between atoms: C_1  and  C_2
REMARK    2  A    between atoms: C_2  and  C_3
REMARK    3  A    between atoms: N_8  and  S_10
REMARK    4  A    between atoms: S_10  and  C_13
REMARK    5  A    between atoms: C_15  and  N_21
REMARK                            x       y       z     vdW  Elec       q    Type
REMARK                         _______ _______ _______ _____ _____    ______ ____
ROOT
ATOM      1  S   UNL     1       0.767  -3.475  -3.622  0.00  0.00    +0.062 S 
ATOM      2  O   UNL     1      -0.636  -3.252  -3.584  0.00  0.00    -0.153 OA
ATOM      3  O   UNL     1       1.535  -3.294  -4.803  0.00  0.00    -0.153 OA
ENDROOT
BRANCH   1   4
ATOM      4  C   UNL     1       1.027  -5.138  -3.102  0.00  0.00    +0.126 A 
ATOM      5  C   UNL     1      -0.054  -5.940  -2.787  0.00  0.00    +0.055 A 
ATOM      6  C   UNL     1       0.151  -7.250  -2.378  0.00  0.00    +0.062 A 
ATOM      7  C   UNL     1       1.445  -7.753  -2.285  0.00  0.00    +0.145 A 
ATOM      8  C   UNL     1       2.522  -6.946  -2.601  0.00  0.00    +0.062 A 
ATOM      9  C   UNL     1       2.313  -5.641  -3.014  0.00  0.00    +0.070 A 
ATOM     10 CL   UNL     1       3.667  -4.632  -3.416  0.00  0.00    -0.081 Cl
ATOM     11  F   UNL     1       1.648  -9.027  -1.887  0.00  0.00    -0.204 F 
BRANCH   6  12
ATOM     12  N   UNL     1      -0.942  -8.063  -2.059  0.00  0.00    -0.356 N 
ATOM     13  H   UNL     1      -1.843  -7.712  -2.123  0.00  0.00    +0.142 HD
ATOM     14  H   UNL     1      -0.797  -8.979  -1.773  0.00  0.00    +0.142 HD
ENDBRANCH   6  12
ENDBRANCH   1   4
BRANCH   1  19
ATOM     15  C   UNL     1       0.718  -0.497  -1.257  0.00  0.00    +0.005 C 
ATOM     16  C   UNL     1       2.188  -0.075  -1.207  0.00  0.00    +0.006 C 
ATOM     17  C   UNL     1       2.898  -0.539  -2.481  0.00  0.00    +0.017 C 
ATOM     18  C   UNL     1       2.837  -2.068  -2.566  0.00  0.00    +0.109 C 
ATOM     19  N   UNL     1       1.433  -2.491  -2.468  0.00  0.00    -0.176 NA
ATOM     20  C   UNL     1       0.632  -2.025  -1.328  0.00  0.00    +0.113 C 
BRANCH  15  22
ATOM     21  C   UNL     1      -0.019   1.526   0.010  0.00  0.00    +0.004 C 
ATOM     22  C   UNL     1       0.002  -0.004   0.002  0.00  0.00    +0.001 C 
ENDBRANCH  15  22
ENDBRANCH   1  19
TORSDOF 4
