REMARK  Name = ZINC14994175
REMARK  10 active torsions:
REMARK  status: ('A' for Active; 'I' for Inactive)
REMARK    1  A    between atoms: C_1  and  C_2
REMARK    2  A    between atoms: C_2  and  O_3
REMARK    3  A    between atoms: O_3  and  C_4
REMARK    4  A    between atoms: C_6  and  C_12
REMARK    5  A    between atoms: C_9  and  O_10
REMARK    6  A    between atoms: O_10  and  C_11
REMARK    7  A    between atoms: C_12  and  N_72
REMARK    8  A    between atoms: C_15  and  C_18
REMARK    9  A    between atoms: C_15  and  O_35
REMARK   10  A    between atoms: C_25  and  C_27
REMARK                            x       y       z     vdW  Elec       q    Type
REMARK                         _______ _______ _______ _____ _____    ______ ____
ROOT
ATOM      1  C   UNL     1       1.977  -2.605   5.192  0.00  0.00    -0.075 C 
ATOM      2  C   UNL     1       1.374  -4.011   5.137  0.00  0.00    +0.021 C 
ATOM      3  C   UNL     1       2.432  -4.995   4.632  0.00  0.00    +0.088 C 
ATOM      4  C   UNL     1       2.927  -4.539   3.256  0.00  0.00    +0.021 C 
ATOM      5  C   UNL     1       3.485  -3.118   3.366  0.00  0.00    -0.075 C 
ATOM      6  N   UNL     1       2.411  -2.216   3.834  0.00  0.00    +0.383 N 
ATOM      7  H   UNL     1       1.612  -2.291   3.194  0.00  0.00    -0.081 HD
ENDROOT
BRANCH   3   8
ATOM      8  C   UNL     1       1.827  -6.371   4.518  0.00  0.00    -0.015 A 
ATOM      9  C   UNL     1       1.220  -6.762   3.332  0.00  0.00    +0.010 A 
ATOM     10  C   UNL     1       0.660  -8.014   3.206  0.00  0.00    +0.047 A 
ATOM     11  C   UNL     1       0.700  -8.901   4.276  0.00  0.00    +0.136 A 
ATOM     12  C   UNL     1       1.316  -8.500   5.476  0.00  0.00    +0.021 A 
ATOM     13  C   UNL     1       1.883  -7.227   5.581  0.00  0.00    +0.018 A 
ATOM     14  C   UNL     1       1.192  -9.638   6.386  0.00  0.00    +0.063 A 
ATOM     15  C   UNL     1       0.536 -10.604   5.692  0.00  0.00    +0.191 A 
ATOM     16  O   UNL     1       0.251 -10.159   4.450  0.00  0.00    -0.450 OA
BRANCH  15  17
ATOM     17  C   UNL     1       0.188 -11.932   6.215  0.00  0.00    +0.282 C 
ATOM     18  O   UNL     1       0.375 -12.193   7.388  0.00  0.00    -0.267 OA
ATOM     19  N   UNL     1      -0.340 -12.863   5.394  0.00  0.00    -0.295 N 
ATOM     20  C   UNL     1      -0.823 -14.144   5.927  0.00  0.00    +0.108 C 
ATOM     21  C   UNL     1      -2.273 -14.350   5.463  0.00  0.00    +0.019 C 
ATOM     22  C   UNL     1      -2.335 -14.241   3.938  0.00  0.00    +0.003 C 
ATOM     23  C   UNL     1      -1.886 -12.843   3.506  0.00  0.00    +0.019 C 
ATOM     24  C   UNL     1      -0.437 -12.617   3.949  0.00  0.00    +0.108 C 
ENDBRANCH  15  17
ENDBRANCH   3   8
BRANCH   3  25
ATOM     25  O   UNL     1       3.529  -5.031   5.546  0.00  0.00    -0.384 OA
ATOM     26  H   UNL     1       3.288  -5.312   6.440  0.00  0.00    +0.211 HD
ENDBRANCH   3  25
BRANCH   6  27
ATOM     27  C   UNL     1       2.893  -0.819   3.839  0.00  0.00    -0.043 C 
BRANCH  27  30
ATOM     28  C   UNL     1      -0.103   1.416   3.295  0.00  0.00    +0.162 A 
ATOM     29  C   UNL     1       0.967   0.571   3.052  0.00  0.00    +0.051 A 
ATOM     30  C   UNL     1       1.725   0.096   4.106  0.00  0.00    -0.060 A 
ATOM     31  C   UNL     1       1.412   0.453   5.404  0.00  0.00    +0.005 A 
ATOM     32  C   UNL     1       0.342   1.292   5.654  0.00  0.00    +0.049 A 
ATOM     33  C   UNL     1      -0.419   1.776   4.602  0.00  0.00    +0.162 A 
BRANCH  33  34
ATOM     34  O   UNL     1      -1.472   2.601   4.846  0.00  0.00    -0.491 OA
ATOM     35  C   UNL     1      -1.738   2.928   6.212  0.00  0.00    +0.277 C 
ENDBRANCH  33  34
BRANCH  28  36
ATOM     36  O   UNL     1      -0.847   1.889   2.260  0.00  0.00    -0.489 OA
BRANCH  36  38
ATOM     37  C   UNL     1      -1.411   2.106  -0.080  0.00  0.00    +0.048 C 
ATOM     38  C   UNL     1      -0.465   1.478   0.946  0.00  0.00    +0.226 C 
ENDBRANCH  36  38
ENDBRANCH  28  36
ENDBRANCH  27  30
ENDBRANCH   6  27
TORSDOF 8
