REMARK  Name = ZINC12702152
REMARK  11 active torsions:
REMARK  status: ('A' for Active; 'I' for Inactive)
REMARK    1  A    between atoms: C_1  and  C_2
REMARK    2  A    between atoms: C_5  and  C_8
REMARK    3  A    between atoms: C_8  and  C_10
REMARK    4  A    between atoms: C_8  and  N_18
REMARK    5  A    between atoms: N_12  and  C_13
REMARK    6  A    between atoms: N_18  and  C_19
REMARK    7  A    between atoms: C_22  and  C_26
REMARK    8  A    between atoms: C_24  and  C_25
REMARK    9  A    between atoms: C_27  and  C_29
REMARK   10  A    between atoms: C_30  and  N_37
REMARK   11  A    between atoms: C_31  and  C_34
REMARK                            x       y       z     vdW  Elec       q    Type
REMARK                         _______ _______ _______ _____ _____    ______ ____
ROOT
ATOM      1  N   UNL     1       0.998  -2.950  -0.245  0.00  0.00    -0.251 N 
ATOM      2  C   UNL     1       2.006  -3.172  -1.112  0.00  0.00    +0.262 C 
ATOM      3  O   UNL     1       3.140  -3.330  -0.699  0.00  0.00    -0.269 OA
ENDROOT
BRANCH   1   4
ATOM      4  C   UNL     1      -0.305  -2.769  -0.719  0.00  0.00    +0.041 A 
ATOM      5  C   UNL     1      -0.735  -1.507  -1.110  0.00  0.00    +0.024 A 
ATOM      6  C   UNL     1      -2.022  -1.332  -1.578  0.00  0.00    +0.005 A 
ATOM      7  C   UNL     1      -2.883  -2.411  -1.659  0.00  0.00    -0.050 A 
ATOM      8  C   UNL     1      -2.459  -3.668  -1.271  0.00  0.00    +0.008 A 
ATOM      9  C   UNL     1      -1.173  -3.851  -0.802  0.00  0.00    -0.029 A 
ATOM     10  C   UNL     1      -0.711  -5.222  -0.379  0.00  0.00    +0.045 C 
ATOM     11  C   UNL     1      -4.287  -2.216  -2.171  0.00  0.00    +0.044 C 
ENDBRANCH   1   4
BRANCH   2  12
ATOM     12  C   UNL     1       1.737  -3.223  -2.550  0.00  0.00    +0.116 A 
ATOM     13  C   UNL     1       2.621  -3.437  -3.608  0.00  0.00    +0.076 A 
ATOM     14  C   UNL     1       1.984  -3.415  -4.849  0.00  0.00    +0.155 A 
ATOM     15  N   UNL     1       0.687  -3.207  -4.903  0.00  0.00    -0.203 NA
ATOM     16  S   UNL     1       0.192  -3.036  -3.417  0.00  0.00    +0.019 S 
BRANCH  14  17
ATOM     17  C   UNL     1       2.757  -3.623  -6.087  0.00  0.00    +0.262 C 
ATOM     18  O   UNL     1       3.957  -3.814  -6.030  0.00  0.00    -0.269 OA
ATOM     19  N   UNL     1       2.135  -3.600  -7.282  0.00  0.00    -0.324 N 
ATOM     20  H   UNL     1       1.178  -3.447  -7.328  0.00  0.00    +0.145 HD
ATOM     21  H   UNL     1       2.644  -3.736  -8.097  0.00  0.00    +0.145 HD
ENDBRANCH  14  17
BRANCH  13  22
ATOM     22  N   UNL     1       3.984  -3.649  -3.445  0.00  0.00    -0.355 N 
ATOM     23  H   UNL     1       4.370  -3.654  -2.555  0.00  0.00    +0.142 HD
ATOM     24  H   UNL     1       4.549  -3.792  -4.220  0.00  0.00    +0.142 HD
ENDBRANCH  13  22
ENDBRANCH   2  12
BRANCH   1  25
ATOM     25  C   UNL     1       1.267  -2.899   1.194  0.00  0.00    +0.197 C 
BRANCH  25  30
ATOM     26  C   UNL     1       4.735   1.577   2.346  0.00  0.00    +0.044 C 
ATOM     27  C   UNL     1       3.831   0.410   2.046  0.00  0.00    -0.050 A 
ATOM     28  C   UNL     1       4.105  -0.834   2.584  0.00  0.00    +0.004 A 
ATOM     29  C   UNL     1       3.276  -1.905   2.308  0.00  0.00    +0.006 A 
ATOM     30  C   UNL     1       2.171  -1.732   1.495  0.00  0.00    -0.018 A 
ATOM     31  C   UNL     1       1.899  -0.489   0.953  0.00  0.00    +0.006 A 
ATOM     32  C   UNL     1       2.726   0.583   1.233  0.00  0.00    +0.004 A 
ENDBRANCH  25  30
BRANCH  25  33
ATOM     33  C   UNL     1      -0.031  -2.735   1.943  0.00  0.00    +0.239 C 
ATOM     34  O   UNL     1      -0.859  -1.938   1.554  0.00  0.00    -0.273 OA
ATOM     35  N   UNL     1      -0.272  -3.474   3.044  0.00  0.00    -0.311 N 
ATOM     36  H   UNL     1       0.390  -4.111   3.355  0.00  0.00    +0.149 HD
BRANCH  35  37
ATOM     37  C   UNL     1      -1.534  -3.314   3.771  0.00  0.00    +0.073 C 
ATOM     38  C   UNL     1      -1.401  -2.190   4.819  0.00  0.00    +0.022 C 
ATOM     39  C   UNL     1      -2.226  -2.698   6.028  0.00  0.00    +0.002 C 
ATOM     40  C   UNL     1      -1.916  -4.216   6.039  0.00  0.00    +0.002 C 
ATOM     41  C   UNL     1      -1.861  -4.602   4.547  0.00  0.00    +0.022 C 
ENDBRANCH  35  37
ENDBRANCH  25  33
ENDBRANCH   1  25
TORSDOF 8
