REMARK  Name = ZINC06743916
REMARK  8 active torsions:
REMARK  status: ('A' for Active; 'I' for Inactive)
REMARK    1  A    between atoms: C_1  and  C_2
REMARK    2  A    between atoms: C_5  and  C_8
REMARK    3  A    between atoms: C_10  and  C_13
REMARK    4  A    between atoms: C_13  and  N_14
REMARK    5  A    between atoms: N_14  and  C_15
REMARK    6  A    between atoms: C_15  and  C_16
REMARK    7  A    between atoms: C_15  and  C_17
REMARK    8  A    between atoms: N_20  and  C_21
REMARK                            x       y       z     vdW  Elec       q    Type
REMARK                         _______ _______ _______ _____ _____    ______ ____
ROOT
ATOM      1  N   UNL     1       1.397   1.479  -0.541  0.00  0.00    -0.274 N 
ATOM      2  C   UNL     1       0.152   0.962  -0.523  0.00  0.00    +0.307 C 
ATOM      3  O   UNL     1      -0.771   1.583  -1.014  0.00  0.00    -0.252 OA
ATOM      4  N   UNL     1      -0.070  -0.240   0.043  0.00  0.00    -0.269 N 
ATOM      5  H   UNL     1       0.642  -0.688   0.526  0.00  0.00    +0.156 HD
ENDROOT
BRANCH   4   6
ATOM      6  C   UNL     1      -1.328  -0.844  -0.068  0.00  0.00    +0.035 A 
ATOM      7  C   UNL     1      -2.479  -0.070  -0.003  0.00  0.00    +0.025 A 
ATOM      8  C   UNL     1      -3.719  -0.668  -0.118  0.00  0.00    +0.022 A 
ATOM      9  C   UNL     1      -3.815  -2.038  -0.286  0.00  0.00    +0.041 A 
ATOM     10  C   UNL     1      -2.670  -2.812  -0.345  0.00  0.00    +0.022 A 
ATOM     11  C   UNL     1      -1.427  -2.219  -0.237  0.00  0.00    +0.025 A 
ATOM     12 CL   UNL     1      -5.375  -2.787  -0.423  0.00  0.00    -0.084 Cl
ENDBRANCH   4   6
BRANCH   1  13
ATOM     13  C   UNL     1       1.668   2.711  -1.287  0.00  0.00    +0.072 C 
ATOM     14  C   UNL     1       2.270   3.756  -0.345  0.00  0.00    +0.028 C 
ATOM     15  C   UNL     1       2.656   2.415  -2.417  0.00  0.00    +0.028 C 
ENDBRANCH   1  13
BRANCH   1  16
ATOM     16  C   UNL     1       2.478   0.810   0.186  0.00  0.00    +0.208 C 
BRANCH  16  19
ATOM     17  C   UNL     1       4.431  -1.133  -2.123  0.00  0.00    +0.202 A 
ATOM     18  N   UNL     1       4.174   0.043  -1.507  0.00  0.00    -0.190 NA
ATOM     19  C   UNL     1       3.152  -0.187  -0.721  0.00  0.00    +0.245 A 
ATOM     20  O   UNL     1       2.822  -1.474  -0.871  0.00  0.00    -0.336 OA
ATOM     21  N   UNL     1       3.558  -2.000  -1.679  0.00  0.00    -0.056 NA
BRANCH  17  26
ATOM     22  C   UNL     1       8.586  -2.136  -5.983  0.00  0.00    +0.044 C 
ATOM     23  C   UNL     1       7.499  -1.874  -4.972  0.00  0.00    -0.050 A 
ATOM     24  C   UNL     1       6.647  -2.896  -4.596  0.00  0.00    +0.004 A 
ATOM     25  C   UNL     1       5.649  -2.661  -3.672  0.00  0.00    +0.012 A 
ATOM     26  C   UNL     1       5.502  -1.392  -3.117  0.00  0.00    +0.022 A 
ATOM     27  C   UNL     1       6.360  -0.364  -3.503  0.00  0.00    +0.012 A 
ATOM     28  C   UNL     1       7.357  -0.612  -4.425  0.00  0.00    +0.004 A 
ENDBRANCH  17  26
ENDBRANCH  16  19
ENDBRANCH   1  16
TORSDOF 5
