REMARK  Name = ZINC36710086
REMARK  7 active torsions:
REMARK  status: ('A' for Active; 'I' for Inactive)
REMARK    1  A    between atoms: C_1  and  C_2
REMARK    2  A    between atoms: N_11  and  C_15
REMARK    3  A    between atoms: C_15  and  C_16
REMARK    4  A    between atoms: N_18  and  C_19
REMARK    5  A    between atoms: C_21  and  C_26
REMARK    6  A    between atoms: C_26  and  O_28
REMARK    7  A    between atoms: O_28  and  C_29
REMARK                            x       y       z     vdW  Elec       q    Type
REMARK                         _______ _______ _______ _____ _____    ______ ____
ROOT
ATOM      1  C   UNL     1       0.793   1.443   4.394  0.00  0.00    +0.214 C 
ENDROOT
BRANCH   1  11
ATOM      2  C   UNL     1       0.024   1.542   0.005  0.00  0.00    +0.010 C 
ATOM      3  C   UNL     1       0.038   0.012  -0.005  0.00  0.00    +0.018 C 
ATOM      4  C   UNL     1       0.759  -0.483  -1.262  0.00  0.00    +0.006 C 
ATOM      5  C   UNL     1       0.790  -2.012  -1.262  0.00  0.00    +0.000 C 
ATOM      6  C   UNL     1       1.540  -2.509  -0.025  0.00  0.00    +0.003 C 
ATOM      7  C   UNL     1       0.822  -2.022   1.237  0.00  0.00    +0.035 C 
ATOM      8  C   UNL     1       0.765  -0.498   1.234  0.00  0.00    +0.115 C 
ATOM      9  C   UNL     1       0.090   0.007   2.488  0.00  0.00    +0.247 C 
ATOM     10  O   UNL     1      -1.046  -0.212   2.849  0.00  0.00    -0.273 OA
ATOM     11  N   UNL     1       1.019   0.752   3.121  0.00  0.00    -0.215 N 
ATOM     12  C   UNL     1       2.173   0.784   2.443  0.00  0.00    +0.310 C 
ATOM     13  O   UNL     1       3.159   1.390   2.814  0.00  0.00    -0.252 OA
ATOM     14  N   UNL     1       2.119   0.067   1.304  0.00  0.00    -0.285 N 
ATOM     15  H   UNL     1       2.833  -0.052   0.658  0.00  0.00    +0.151 HD
ENDBRANCH   1  11
BRANCH   1  16
ATOM     16  C   UNL     1       1.159   0.528   5.534  0.00  0.00    +0.235 C 
ATOM     17  O   UNL     1       1.569  -0.591   5.306  0.00  0.00    -0.274 OA
ATOM     18  N   UNL     1       1.032   0.953   6.806  0.00  0.00    -0.283 N 
ATOM     19  H   UNL     1       0.767   1.868   6.988  0.00  0.00    +0.155 HD
BRANCH  18  20
ATOM     20  C   UNL     1       1.282   0.073   7.866  0.00  0.00    +0.053 A 
ATOM     21  C   UNL     1       2.272  -0.889   7.749  0.00  0.00    +0.039 A 
ATOM     22  C   UNL     1       2.518  -1.764   8.809  0.00  0.00    +0.061 A 
ATOM     23  C   UNL     1       1.764  -1.663   9.981  0.00  0.00    +0.016 A 
ATOM     24  C   UNL     1       0.781  -0.702  10.088  0.00  0.00    +0.022 A 
ATOM     25  C   UNL     1       0.541   0.169   9.040  0.00  0.00    +0.062 A 
ATOM     26 CL   UNL     1      -0.694   1.380   9.186  0.00  0.00    -0.082 Cl
BRANCH  22  27
ATOM     27  C   UNL     1       3.571  -2.793   8.691  0.00  0.00    +0.339 C 
ATOM     28  O   UNL     1       4.224  -2.879   7.671  0.00  0.00    -0.245 OA
BRANCH  27  29
ATOM     29  O   UNL     1       3.806  -3.636   9.715  0.00  0.00    -0.464 OA
ATOM     30  C   UNL     1       4.840  -4.606   9.532  0.00  0.00    +0.280 C 
ENDBRANCH  27  29
ENDBRANCH  22  27
ENDBRANCH  18  20
ENDBRANCH   1  16
TORSDOF 5
