REMARK  Name = ZINC24937026
REMARK  9 active torsions:
REMARK  status: ('A' for Active; 'I' for Inactive)
REMARK    1  A    between atoms: C_1  and  C_2
REMARK    2  A    between atoms: C_2  and  C_3
REMARK    3  A    between atoms: C_3  and  C_4
REMARK    4  A    between atoms: C_7  and  C_10
REMARK    5  A    between atoms: C_10  and  C_25
REMARK    6  A    between atoms: N_13  and  C_17
REMARK    7  A    between atoms: C_17  and  C_18
REMARK    8  A    between atoms: C_19  and  C_24
REMARK    9  A    between atoms: C_22  and  C_23
REMARK                            x       y       z     vdW  Elec       q    Type
REMARK                         _______ _______ _______ _____ _____    ______ ____
ROOT
ATOM      1  C   UNL     1      -0.729   1.579   1.267  0.00  0.00    +0.135 C 
ATOM      2  C   UNL     1      -0.026   1.077   2.512  0.00  0.00    +0.251 C 
ATOM      3  O   UNL     1       1.113   1.313   2.856  0.00  0.00    -0.272 OA
ATOM      4  N   UNL     1      -0.929   0.314   3.158  0.00  0.00    -0.219 N 
ATOM      5  C   UNL     1      -2.094   0.265   2.501  0.00  0.00    +0.310 C 
ATOM      6  O   UNL     1      -3.062  -0.361   2.887  0.00  0.00    -0.252 OA
ATOM      7  N   UNL     1      -2.073   0.985   1.365  0.00  0.00    -0.281 N 
ATOM      8  C   UNL     1      -0.013   1.086   0.008  0.00  0.00    +0.047 C 
ATOM      9  H   UNL     1      -2.820   1.181   0.581  0.00  0.00    +0.152 HD
ENDROOT
BRANCH   1  13
ATOM     10  C   UNL     1      -0.956   5.845   1.288  0.00  0.00    -0.047 A 
ATOM     11  C   UNL     1      -1.960   5.102   0.695  0.00  0.00    +0.004 A 
ATOM     12  C   UNL     1      -1.887   3.722   0.689  0.00  0.00    +0.006 A 
ATOM     13  C   UNL     1      -0.809   3.084   1.274  0.00  0.00    -0.015 A 
ATOM     14  C   UNL     1       0.193   3.827   1.871  0.00  0.00    +0.006 A 
ATOM     15  C   UNL     1       0.122   5.207   1.873  0.00  0.00    +0.004 A 
BRANCH  10  16
ATOM     16  C   UNL     1      -1.036   7.350   1.295  0.00  0.00    +0.035 C 
BRANCH  16  18
ATOM     17  C   UNL     1      -1.853   9.343   2.560  0.00  0.00    +0.004 C 
ATOM     18  C   UNL     1      -1.772   7.815   2.553  0.00  0.00    +0.001 C 
ENDBRANCH  16  18
ENDBRANCH  10  16
ENDBRANCH   1  13
BRANCH   4  19
ATOM     19  C   UNL     1      -0.669  -0.378   4.423  0.00  0.00    +0.158 C 
BRANCH  19  20
ATOM     20  C   UNL     1      -1.031   0.526   5.573  0.00  0.00    +0.035 A 
ATOM     21  C   UNL     1      -2.278   0.642   6.230  0.00  0.00    +0.085 A 
ATOM     22  N   UNL     1      -2.122   1.542   7.157  0.00  0.00    -0.083 NA
ATOM     23  O   UNL     1      -0.995   1.982   7.166  0.00  0.00    -0.359 OA
ATOM     24  C   UNL     1      -0.236   1.410   6.221  0.00  0.00    +0.139 A 
ATOM     25  C   UNL     1       1.216   1.697   5.935  0.00  0.00    +0.089 C 
ATOM     26  C   UNL     1      -3.537  -0.124   5.918  0.00  0.00    +0.069 C 
ENDBRANCH  19  20
ENDBRANCH   4  19
TORSDOF 5
