REMARK  Name = ZINC44966795
REMARK  4 active torsions:
REMARK  status: ('A' for Active; 'I' for Inactive)
REMARK    1  A    between atoms: C_1  and  C_2
REMARK    2  A    between atoms: C_3  and  N_21
REMARK    3  A    between atoms: C_5  and  C_9
REMARK    4  A    between atoms: C_9  and  N_11
REMARK                            x       y       z     vdW  Elec       q    Type
REMARK                         _______ _______ _______ _____ _____    ______ ____
ROOT
ATOM      1  C   UNL     1       0.135  -4.252  -0.030  0.00  0.00    +0.270 C 
ATOM      2  O   UNL     1       0.078  -4.853  -1.086  0.00  0.00    -0.268 OA
ENDROOT
BRANCH   1   3
ATOM      3  N   UNL     1       0.251  -4.932   1.127  0.00  0.00    -0.141 NA
ATOM      4  C   UNL     1       0.303  -6.245   1.115  0.00  0.00    +0.223 A 
ATOM      5  N   UNL     1       0.257  -7.062   0.007  0.00  0.00    -0.246 N 
ATOM      6  N   UNL     1       0.333  -8.289   0.387  0.00  0.00    -0.153 NA
ATOM      7  C   UNL     1       0.431  -8.356   1.722  0.00  0.00    +0.160 A 
ATOM      8  N   UNL     1       0.420  -7.079   2.213  0.00  0.00    -0.271 N 
ATOM      9  C   UNL     1       0.512  -6.841   3.527  0.00  0.00    +0.096 A 
ATOM     10  C   UNL     1       0.624  -7.890   4.433  0.00  0.00    +0.018 A 
ATOM     11  C   UNL     1       0.641  -9.194   3.974  0.00  0.00    +0.005 A 
ATOM     12  C   UNL     1       0.536  -9.435   2.597  0.00  0.00    +0.048 A 
ATOM     13  H   UNL     1       0.179  -6.761  -0.912  0.00  0.00    +0.192 HD
ENDBRANCH   1   3
BRANCH   1  18
ATOM     14  C   UNL     1      -0.096   1.501   0.017  0.00  0.00    +0.049 C 
ATOM     15  C   UNL     1      -0.035  -0.005   0.005  0.00  0.00    +0.015 A 
ATOM     16  C   UNL     1      -0.099  -0.688  -1.197  0.00  0.00    +0.133 A 
ATOM     17  C   UNL     1      -0.044  -2.066  -1.215  0.00  0.00    +0.046 A 
ATOM     18  C   UNL     1       0.076  -2.774  -0.017  0.00  0.00    +0.044 A 
ATOM     19  C   UNL     1       0.141  -2.081   1.193  0.00  0.00    +0.051 A 
ATOM     20  C   UNL     1       0.090  -0.700   1.198  0.00  0.00    +0.129 A 
ATOM     21  F   UNL     1       0.158  -0.026   2.367  0.00  0.00    -0.205 F 
BRANCH  16  22
ATOM     22  N   UNL     1      -0.227   0.062  -2.466  0.00  0.00    +0.057 N 
ATOM     23  O   UNL     1      -0.967  -0.418  -3.443  0.00  0.00    -0.126 OA
ATOM     24  O   UNL     1       0.401   1.210  -2.618  0.00  0.00    -0.126 OA
ENDBRANCH  16  22
ENDBRANCH   1  18
TORSDOF 3
