REMARK  Name = ZINC54527587
REMARK  7 active torsions:
REMARK  status: ('A' for Active; 'I' for Inactive)
REMARK    1  A    between atoms: C_1  and  C_2
REMARK    2  A    between atoms: C_6  and  N_9
REMARK    3  A    between atoms: C_7  and  C_8
REMARK    4  A    between atoms: C_16  and  N_25
REMARK    5  A    between atoms: C_17  and  N_21
REMARK    6  A    between atoms: N_21  and  C_22
REMARK    7  A    between atoms: C_22  and  C_23
REMARK                            x       y       z     vdW  Elec       q    Type
REMARK                         _______ _______ _______ _____ _____    ______ ____
ROOT
ATOM      1  N   UNL     1      -0.026  -2.792   2.397  0.00  0.00    -0.327 N 
ATOM      2  C   UNL     1      -1.269  -3.188   3.074  0.00  0.00    +0.124 C 
ATOM      3  C   UNL     1      -1.243  -4.705   3.297  0.00  0.00    +0.125 C 
ATOM      4  N   UNL     1       0.043  -5.069   3.908  0.00  0.00    -0.311 N 
ATOM      5  C   UNL     1       1.286  -4.673   3.230  0.00  0.00    +0.125 C 
ATOM      6  C   UNL     1       1.260  -3.160   3.004  0.00  0.00    +0.124 C 
ATOM      7  C   UNL     1       0.084  -5.774   5.105  0.00  0.00    +0.147 A 
ATOM      8  C   UNL     1       0.029  -7.169   5.108  0.00  0.00    +0.105 A 
ATOM      9  C   UNL     1       0.074  -7.827   6.338  0.00  0.00    +0.145 A 
ATOM     10  N   UNL     1       0.168  -7.106   7.452  0.00  0.00    -0.219 NA
ATOM     11  C   UNL     1       0.218  -5.790   7.405  0.00  0.00    +0.225 A 
ATOM     12  N   UNL     1       0.183  -5.130   6.265  0.00  0.00    -0.219 NA
ENDROOT
BRANCH   1  18
ATOM     13  C   UNL     1      -0.134   1.510   0.023  0.00  0.00    +0.044 C 
ATOM     14  C   UNL     1      -0.120   0.003   0.013  0.00  0.00    -0.046 A 
ATOM     15  C   UNL     1      -0.149  -0.680  -1.190  0.00  0.00    +0.004 A 
ATOM     16  C   UNL     1      -0.137  -2.063  -1.204  0.00  0.00    +0.002 A 
ATOM     17  C   UNL     1      -0.096  -2.767  -0.016  0.00  0.00    +0.023 A 
ATOM     18  C   UNL     1      -0.067  -2.084   1.194  0.00  0.00    +0.033 A 
ATOM     19  C   UNL     1      -0.074  -0.695   1.204  0.00  0.00    -0.027 A 
ATOM     20  C   UNL     1      -0.037   0.051   2.513  0.00  0.00    +0.046 C 
ENDBRANCH   1  18
BRANCH   8  21
ATOM     21  N   UNL     1      -0.071  -7.890   3.907  0.00  0.00    -0.353 N 
ATOM     22  H   UNL     1      -0.011  -7.426   3.057  0.00  0.00    +0.143 HD
ATOM     23  H   UNL     1      -0.199  -8.851   3.927  0.00  0.00    +0.143 HD
ENDBRANCH   8  21
BRANCH   9  24
ATOM     24  N   UNL     1       0.021  -9.215   6.398  0.00  0.00    -0.324 N 
ATOM     25  H   UNL     1      -0.048  -9.733   5.581  0.00  0.00    +0.148 HD
BRANCH  24  26
ATOM     26  C   UNL     1       0.069  -9.894   7.695  0.00  0.00    +0.130 C 
BRANCH  26  27
ATOM     27  C   UNL     1      -0.003 -11.385   7.484  0.00  0.00    -0.016 C 
ATOM     28  C   UNL     1       0.926 -12.163   7.981  0.00  0.00    +0.005 C 
ENDBRANCH  26  27
ENDBRANCH  24  26
ENDBRANCH   9  24
TORSDOF 5
