REMARK  Name = ZINC04741511
REMARK  5 active torsions:
REMARK  status: ('A' for Active; 'I' for Inactive)
REMARK    1  A    between atoms: C_1  and  C_2
REMARK    2  A    between atoms: C_9  and  N_30
REMARK    3  A    between atoms: C_10  and  C_28
REMARK    4  A    between atoms: N_18  and  C_21
REMARK    5  A    between atoms: C_21  and  C_22
REMARK                            x       y       z     vdW  Elec       q    Type
REMARK                         _______ _______ _______ _____ _____    ______ ____
ROOT
ATOM      1  C   UNL     1      -0.018   1.503   0.010  0.00  0.00    +0.068 C 
ATOM      2  C   UNL     1       0.002  -0.004   0.002  0.00  0.00    +0.068 A 
ATOM      3  C   UNL     1       0.008  -0.813  -1.126  0.00  0.00    +0.061 A 
ATOM      4  C   UNL     1       0.027  -2.117  -0.712  0.00  0.00    +0.223 A 
ATOM      5  N   UNL     1       0.034  -2.116   0.630  0.00  0.00    -0.246 N 
ATOM      6  H   UNL     1       0.048  -2.899   1.202  0.00  0.00    +0.192 HD
ATOM      7  N   UNL     1       0.023  -0.780   1.060  0.00  0.00    -0.176 NA
ATOM      8  O   UNL     1       0.036  -3.159  -1.581  0.00  0.00    -0.423 OA
ATOM      9  C   UNL     1      -0.242  -2.904  -2.875  0.00  0.00    +0.201 C 
ATOM     10  C   UNL     1      -0.278  -1.659  -3.405  0.00  0.00    +0.110 C 
ATOM     11  C   UNL     1      -0.003  -0.432  -2.580  0.00  0.00    +0.145 C 
ATOM     12  C   UNL     1       1.283   0.216  -2.982  0.00  0.00    -0.001 A 
ATOM     13  C   UNL     1       2.582  -0.245  -2.976  0.00  0.00    +0.007 A 
ATOM     14  C   UNL     1       3.564   0.632  -3.423  0.00  0.00    +0.000 A 
ATOM     15  C   UNL     1       3.250   1.906  -3.851  0.00  0.00    +0.002 A 
ATOM     16  C   UNL     1       1.947   2.376  -3.861  0.00  0.00    +0.024 A 
ATOM     17  C   UNL     1       0.950   1.506  -3.415  0.00  0.00    +0.041 A 
ATOM     18  N   UNL     1      -0.415   1.709  -3.320  0.00  0.00    -0.265 N 
ATOM     19  C   UNL     1      -1.056   0.622  -2.840  0.00  0.00    +0.241 C 
ATOM     20  O   UNL     1      -2.249   0.511  -2.653  0.00  0.00    -0.274 OA
ENDROOT
BRANCH   9  21
ATOM     21  N   UNL     1      -0.504  -3.968  -3.703  0.00  0.00    -0.328 N 
ATOM     22  H   UNL     1      -0.485  -4.872  -3.351  0.00  0.00    +0.145 HD
ATOM     23  H   UNL     1      -0.707  -3.816  -4.639  0.00  0.00    +0.145 HD
ENDBRANCH   9  21
BRANCH  10  24
ATOM     24  C   UNL     1      -0.587  -1.505  -4.795  0.00  0.00    +0.102 C 
ATOM     25  N   UNL     1      -0.832  -1.383  -5.897  0.00  0.00    -0.191 NA
ENDBRANCH  10  24
BRANCH  18  26
ATOM     26  C   UNL     1      -1.086   2.956  -3.695  0.00  0.00    +0.148 C 
BRANCH  26  27
ATOM     27  C   UNL     1      -1.481   2.896  -5.148  0.00  0.00    -0.030 A 
ATOM     28  C   UNL     1      -0.605   3.339  -6.121  0.00  0.00    +0.005 A 
ATOM     29  C   UNL     1      -0.967   3.284  -7.454  0.00  0.00    +0.000 A 
ATOM     30  C   UNL     1      -2.205   2.786  -7.814  0.00  0.00    +0.000 A 
ATOM     31  C   UNL     1      -3.081   2.342  -6.842  0.00  0.00    +0.000 A 
ATOM     32  C   UNL     1      -2.717   2.393  -5.509  0.00  0.00    +0.005 A 
ENDBRANCH  26  27
ENDBRANCH  18  26
TORSDOF 4
