REMARK  Name = ZINC06488157
REMARK  9 active torsions:
REMARK  status: ('A' for Active; 'I' for Inactive)
REMARK    1  A    between atoms: C_1  and  C_2
REMARK    2  A    between atoms: C_5  and  N_9
REMARK    3  A    between atoms: C_7  and  C_8
REMARK    4  A    between atoms: C_10  and  C_12
REMARK    5  A    between atoms: C_14  and  N_15
REMARK    6  A    between atoms: N_15  and  N_16
REMARK    7  A    between atoms: N_22  and  C_25
REMARK    8  A    between atoms: C_28  and  C_32
REMARK    9  A    between atoms: C_29  and  C_31
REMARK                            x       y       z     vdW  Elec       q    Type
REMARK                         _______ _______ _______ _____ _____    ______ ____
ROOT
ATOM      1  C   UNL     1      -0.130  -6.304  -1.187  0.00  0.00    +0.127 C 
ATOM      2  C   UNL     1      -0.135  -7.138  -2.296  0.00  0.00    +0.125 C 
ATOM      3  C   UNL     1      -0.244  -8.527  -1.763  0.00  0.00    +0.274 C 
ATOM      4  O   UNL     1      -0.280  -9.542  -2.426  0.00  0.00    -0.268 OA
ATOM      5  N   UNL     1      -0.298  -8.460  -0.422  0.00  0.00    -0.201 N 
ATOM      6  C   UNL     1      -0.229  -7.184  -0.009  0.00  0.00    +0.265 C 
ATOM      7  O   UNL     1      -0.249  -6.815   1.149  0.00  0.00    -0.269 OA
ENDROOT
BRANCH   5   8
ATOM      8  C   UNL     1      -0.403  -9.569   0.428  0.00  0.00    +0.045 A 
ATOM      9  C   UNL     1      -0.457  -9.389   1.804  0.00  0.00    +0.024 A 
ATOM     10  C   UNL     1      -0.561 -10.484   2.639  0.00  0.00    +0.005 A 
ATOM     11  C   UNL     1      -0.612 -11.759   2.107  0.00  0.00    -0.047 A 
ATOM     12  C   UNL     1      -0.558 -11.942   0.737  0.00  0.00    -0.046 A 
ATOM     13  C   UNL     1      -0.460 -10.851  -0.103  0.00  0.00    +0.027 A 
ATOM     14  C   UNL     1      -0.613 -13.334   0.161  0.00  0.00    +0.044 C 
ATOM     15  C   UNL     1      -0.726 -12.952   3.021  0.00  0.00    +0.044 C 
ENDBRANCH   5   8
BRANCH   1  17
ATOM     16  N   UNL     1       0.062  -4.169  -0.021  0.00  0.00    -0.281 N 
ATOM     17  C   UNL     1      -0.038  -4.838  -1.187  0.00  0.00    +0.255 C 
ATOM     18  O   UNL     1      -0.053  -4.227  -2.239  0.00  0.00    -0.270 OA
ATOM     19  H   UNL     1       0.159  -4.657   0.811  0.00  0.00    +0.155 HD
BRANCH  16  24
ATOM     20  C   UNL     1      -0.080   1.501   0.016  0.00  0.00    +0.044 C 
ATOM     21  C   UNL     1      -0.042  -0.005   0.006  0.00  0.00    -0.047 A 
ATOM     22  C   UNL     1       0.605  -0.686   1.022  0.00  0.00    +0.005 A 
ATOM     23  C   UNL     1       0.641  -2.066   1.016  0.00  0.00    +0.023 A 
ATOM     24  C   UNL     1       0.027  -2.771  -0.011  0.00  0.00    +0.034 A 
ATOM     25  C   UNL     1      -0.622  -2.085  -1.029  0.00  0.00    +0.027 A 
ATOM     26  C   UNL     1      -0.659  -0.704  -1.015  0.00  0.00    -0.046 A 
ATOM     27  C   UNL     1      -1.368   0.042  -2.116  0.00  0.00    +0.044 C 
ENDBRANCH  16  24
ENDBRANCH   1  17
BRANCH   2  29
ATOM     28  H   UNL     1      -0.060  -5.824  -3.842  0.00  0.00    +0.170 HD
ATOM     29  N   UNL     1      -0.055  -6.764  -3.605  0.00  0.00    -0.258 N 
BRANCH  29  30
ATOM     30  N   UNL     1       0.034  -7.739  -4.608  0.00  0.00    -0.220 N 
ATOM     31  C   UNL     1       0.214  -7.371  -5.891  0.00  0.00    +0.313 C 
ATOM     32  O   UNL     1       0.292  -8.217  -6.761  0.00  0.00    -0.252 OA
ATOM     33  N   UNL     1       0.310  -6.065  -6.211  0.00  0.00    -0.312 N 
ATOM     34  H   UNL     1      -0.035  -8.679  -4.378  0.00  0.00    +0.174 HD
ATOM     35  H   UNL     1       0.248  -5.390  -5.517  0.00  0.00    +0.147 HD
ATOM     36  H   UNL     1       0.440  -5.800  -7.135  0.00  0.00    +0.147 HD
ENDBRANCH  29  30
ENDBRANCH   2  29
TORSDOF 5
