REMARK  Name = ZINC65734332
REMARK  6 active torsions:
REMARK  status: ('A' for Active; 'I' for Inactive)
REMARK    1  A    between atoms: C_1  and  C_2
REMARK    2  A    between atoms: C_10  and  C_14
REMARK    3  A    between atoms: C_14  and  N_15
REMARK    4  A    between atoms: C_16  and  C_18
REMARK    5  A    between atoms: C_18  and  C_21
REMARK    6  A    between atoms: N_19  and  O_20
REMARK                            x       y       z     vdW  Elec       q    Type
REMARK                         _______ _______ _______ _____ _____    ______ ____
ROOT
ATOM      1  N   UNL     1      -0.621  -4.199  -1.898  0.00  0.00    -0.307 N 
ATOM      2  C   UNL     1      -1.556  -5.165  -1.794  0.00  0.00    +0.268 C 
ATOM      3  O   UNL     1      -1.345  -6.268  -2.258  0.00  0.00    -0.268 OA
ATOM      4  H   UNL     1      -0.758  -3.342  -1.466  0.00  0.00    +0.149 HD
ENDROOT
BRANCH   2   5
ATOM      5  C   UNL     1      -2.841  -4.880  -1.114  0.00  0.00    +0.190 C 
ATOM      6  N   UNL     1      -2.935  -5.005   0.180  0.00  0.00    -0.080 NA
BRANCH   5   7
ATOM      7  C   UNL     1      -4.017  -4.455  -1.903  0.00  0.00    +0.107 A 
ATOM      8  C   UNL     1      -5.208  -4.185  -1.282  0.00  0.00    +0.078 A 
ATOM      9  S   UNL     1      -6.221  -3.737  -2.685  0.00  0.00    -0.060 S 
ATOM     10  C   UNL     1      -4.972  -3.951  -3.945  0.00  0.00    +0.156 A 
ATOM     11  N   UNL     1      -3.930  -4.325  -3.226  0.00  0.00    -0.223 NA
ATOM     12  N   UNL     1      -5.069  -3.769  -5.314  0.00  0.00    -0.338 N 
ATOM     13  H   UNL     1      -5.909  -3.484  -5.707  0.00  0.00    +0.144 HD
ATOM     14  H   UNL     1      -4.298  -3.925  -5.881  0.00  0.00    +0.144 HD
ENDBRANCH   5   7
BRANCH   6  15
ATOM     15  O   UNL     1      -1.784  -5.306   0.948  0.00  0.00    -0.409 OA
ATOM     16  H   UNL     1      -1.952  -5.379   1.897  0.00  0.00    +0.328 HD
ENDBRANCH   6  15
ENDBRANCH   2   5
BRANCH   1  17
ATOM     17  C   UNL     1       0.603  -4.445  -2.665  0.00  0.00    +0.142 C 
BRANCH  17  26
ATOM     18  C   UNL     1       0.134   1.386   0.354  0.00  0.00    +0.053 C 
ATOM     19  C   UNL     1       0.112  -0.142   0.274  0.00  0.00    +0.184 C 
ATOM     20  C   UNL     1       0.871  -0.624  -0.979  0.00  0.00    +0.095 C 
ATOM     21  C   UNL     1       1.481  -1.925  -0.487  0.00  0.00    +0.128 C 
ATOM     22  C   UNL     1       1.631  -1.710   0.980  0.00  0.00    +0.354 C 
ATOM     23  O   UNL     1       2.371  -2.341   1.706  0.00  0.00    -0.244 OA
ATOM     24  O   UNL     1       0.823  -0.710   1.382  0.00  0.00    -0.457 OA
ATOM     25  N   UNL     1       1.760  -2.965  -1.135  0.00  0.00    -0.265 NA
ATOM     26  C   UNL     1       1.536  -3.239  -2.538  0.00  0.00    +0.180 C 
ATOM     27  S   UNL     1       0.793  -1.832  -3.402  0.00  0.00    -0.132 S 
ATOM     28  C   UNL     1      -0.120  -0.951  -2.100  0.00  0.00    +0.084 C 
ENDBRANCH  17  26
ENDBRANCH   1  17
TORSDOF 5
