REMARK  Name = ZINC11197555
REMARK  7 active torsions:
REMARK  status: ('A' for Active; 'I' for Inactive)
REMARK    1  A    between atoms: C_1  and  C_2
REMARK    2  A    between atoms: C_6  and  N_8
REMARK    3  A    between atoms: C_12  and  S_13
REMARK    4  A    between atoms: S_13  and  C_14
REMARK    5  A    between atoms: C_14  and  C_16
REMARK    6  A    between atoms: C_14  and  C_17
REMARK    7  A    between atoms: C_22  and  C_25
REMARK                            x       y       z     vdW  Elec       q    Type
REMARK                         _______ _______ _______ _____ _____    ______ ____
ROOT
ATOM      1  S   UNL     1       0.362   6.628  -0.551  0.00  0.00    -0.075 S 
ENDROOT
BRANCH   1   6
ATOM      2  N   UNL     1       0.855   9.342  -0.963  0.00  0.00    -0.295 N 
ATOM      3  C   UNL     1       1.918  10.214  -0.856  0.00  0.00    +0.113 A 
ATOM      4  C   UNL     1       2.973   9.496  -0.434  0.00  0.00    +0.131 A 
ATOM      5  N   UNL     1       2.582   8.220  -0.278  0.00  0.00    -0.230 NA
ATOM      6  C   UNL     1       1.313   8.111  -0.597  0.00  0.00    +0.174 A 
BRANCH   2  12
ATOM      7  C   UNL     1      -3.128  12.200  -0.566  0.00  0.00    +0.044 C 
ATOM      8  C   UNL     1      -2.401  11.040  -1.195  0.00  0.00    -0.048 A 
ATOM      9  C   UNL     1      -3.019  10.287  -2.177  0.00  0.00    +0.003 A 
ATOM     10  C   UNL     1      -2.355   9.222  -2.756  0.00  0.00    +0.002 A 
ATOM     11  C   UNL     1      -1.071   8.906  -2.356  0.00  0.00    +0.026 A 
ATOM     12  C   UNL     1      -0.448   9.660  -1.372  0.00  0.00    +0.049 A 
ATOM     13  C   UNL     1      -1.119  10.726  -0.788  0.00  0.00    +0.029 A 
ENDBRANCH   2  12
ENDBRANCH   1   6
BRANCH   1  14
ATOM     14  C   UNL     1       1.625   5.462   0.015  0.00  0.00    +0.137 C 
ATOM     15  C   UNL     1       2.063   5.832   1.433  0.00  0.00    +0.029 C 
BRANCH  14  16
ATOM     16  C   UNL     1       1.057   4.066   0.013  0.00  0.00    +0.231 C 
ATOM     17  O   UNL     1      -0.145   3.900   0.024  0.00  0.00    -0.274 OA
ATOM     18  N   UNL     1       1.883   3.002  -0.000  0.00  0.00    -0.267 N 
ATOM     19  C   UNL     1       1.357   1.710  -0.002  0.00  0.00    +0.168 A 
ATOM     20  C   UNL     1      -0.016   1.348   0.009  0.00  0.00    +0.091 A 
ATOM     21  C   UNL     1       0.002  -0.004   0.002  0.00  0.00    +0.136 A 
ATOM     22  O   UNL     1       1.292  -0.370  -0.012  0.00  0.00    -0.358 OA
ATOM     23  N   UNL     1       2.029   0.589  -0.014  0.00  0.00    -0.063 NA
ATOM     24  C   UNL     1      -1.194  -0.921   0.008  0.00  0.00    +0.089 C 
ATOM     25  H   UNL     1       2.844   3.134  -0.009  0.00  0.00    +0.156 HD
ENDBRANCH  14  16
ENDBRANCH   1  14
TORSDOF 4
