REMARK  Name = ZINC32421723
REMARK  13 active torsions:
REMARK  status: ('A' for Active; 'I' for Inactive)
REMARK    1  A    between atoms: C_1  and  C_2
REMARK    2  A    between atoms: C_2  and  O_3
REMARK    3  A    between atoms: O_3  and  C_4
REMARK    4  A    between atoms: C_7  and  N_16
REMARK    5  A    between atoms: C_9  and  S_10
REMARK    6  A    between atoms: S_10  and  N_13
REMARK    7  A    between atoms: N_13  and  C_14
REMARK    8  A    between atoms: N_13  and  C_15
REMARK    9  A    between atoms: C_17  and  C_19
REMARK   10  A    between atoms: C_19  and  C_20
REMARK   11  A    between atoms: C_20  and  C_22
REMARK   12  A    between atoms: C_20  and  N_29
REMARK   13  A    between atoms: C_27  and  C_28
REMARK                            x       y       z     vdW  Elec       q    Type
REMARK                         _______ _______ _______ _____ _____    ______ ____
ROOT
ATOM      1  N   UNL     1       1.192  -5.854  -1.666  0.00  0.00    -0.285 N 
ATOM      2  C   UNL     1       0.722  -6.727  -0.753  0.00  0.00    +0.219 C 
ATOM      3  O   UNL     1       0.060  -6.328   0.182  0.00  0.00    -0.275 OA
ATOM      4  H   UNL     1       1.664  -6.179  -2.449  0.00  0.00    +0.155 HD
ENDROOT
BRANCH   1   8
ATOM      5  C   UNL     1       0.619  -1.759  -1.125  0.00  0.00    +0.147 A 
ATOM      6  C   UNL     1      -0.360  -2.656  -0.720  0.00  0.00    +0.049 A 
ATOM      7  C   UNL     1      -0.171  -4.012  -0.899  0.00  0.00    +0.027 A 
ATOM      8  C   UNL     1       0.999  -4.478  -1.484  0.00  0.00    +0.035 A 
ATOM      9  C   UNL     1       1.978  -3.581  -1.889  0.00  0.00    +0.055 A 
ATOM     10  C   UNL     1       1.785  -2.224  -1.714  0.00  0.00    +0.149 A 
BRANCH  10  11
ATOM     11  S   UNL     1       3.024  -1.084  -2.234  0.00  0.00    +0.064 S 
ATOM     12  O   UNL     1       3.246  -0.201  -1.143  0.00  0.00    -0.153 OA
ATOM     13  O   UNL     1       4.067  -1.855  -2.814  0.00  0.00    -0.153 OA
BRANCH  11  14
ATOM     14  N   UNL     1       2.372  -0.175  -3.455  0.00  0.00    -0.183 NA
ATOM     15  C   UNL     1       1.665   1.070  -3.143  0.00  0.00    +0.131 C 
ATOM     16  C   UNL     1       2.502  -0.616  -4.846  0.00  0.00    +0.131 C 
ENDBRANCH  11  14
ENDBRANCH  10  11
BRANCH   5  17
ATOM     17  O   UNL     1       0.432  -0.424  -0.949  0.00  0.00    -0.490 OA
BRANCH  17  19
ATOM     18  C   UNL     1      -0.822   1.510  -0.222  0.00  0.00    +0.048 C 
ATOM     19  C   UNL     1      -0.792  -0.016  -0.335  0.00  0.00    +0.226 C 
ENDBRANCH  17  19
ENDBRANCH   5  17
ENDBRANCH   1   8
BRANCH   2  20
ATOM     20  C   UNL     1       1.018  -8.197  -0.893  0.00  0.00    +0.123 C 
BRANCH  20  21
ATOM     21  C   UNL     1       0.374  -8.961   0.265  0.00  0.00    +0.114 C 
BRANCH  21  22
ATOM     22  C   UNL     1       0.565 -10.441   0.060  0.00  0.00    -0.024 A 
ATOM     23  C   UNL     1       1.496 -10.898  -0.855  0.00  0.00    +0.006 A 
ATOM     24  C   UNL     1       1.672 -12.255  -1.044  0.00  0.00    +0.000 A 
ATOM     25  C   UNL     1       0.917 -13.158  -0.317  0.00  0.00    +0.000 A 
ATOM     26  C   UNL     1      -0.013 -12.702   0.598  0.00  0.00    +0.004 A 
ATOM     27  C   UNL     1      -0.186 -11.343   0.790  0.00  0.00    -0.045 A 
ATOM     28  C   UNL     1      -1.196 -10.846   1.791  0.00  0.00    +0.044 C 
ENDBRANCH  21  22
BRANCH  21  29
ATOM     29  N   UNL     1       1.003  -8.557   1.526  0.00  0.00    -0.292 N 
ATOM     30  C   UNL     1       2.305  -8.826   1.745  0.00  0.00    +0.298 C 
ATOM     31  O   UNL     1       2.981  -9.321   0.864  0.00  0.00    -0.253 OA
ATOM     32  N   UNL     1       2.859  -8.545   2.941  0.00  0.00    -0.313 N 
ATOM     33  H   UNL     1       0.482  -8.097   2.202  0.00  0.00    +0.151 HD
ATOM     34  H   UNL     1       2.320  -8.149   3.644  0.00  0.00    +0.146 HD
ATOM     35  H   UNL     1       3.796  -8.738   3.099  0.00  0.00    +0.146 HD
ENDBRANCH  21  29
ENDBRANCH  20  21
ENDBRANCH   2  20
TORSDOF 9
