REMARK  Name = ZINC43238534
REMARK  8 active torsions:
REMARK  status: ('A' for Active; 'I' for Inactive)
REMARK    1  A    between atoms: C_1  and  C_2
REMARK    2  A    between atoms: C_2  and  C_4
REMARK    3  A    between atoms: C_2  and  N_21
REMARK    4  A    between atoms: C_4  and  C_6
REMARK    5  A    between atoms: C_4  and  S_12
REMARK    6  A    between atoms: N_9  and  C_11
REMARK    7  A    between atoms: S_12  and  C_13
REMARK    8  A    between atoms: C_17  and  N_19
REMARK                            x       y       z     vdW  Elec       q    Type
REMARK                         _______ _______ _______ _____ _____    ______ ____
ROOT
ATOM      1  C   UNL     1      -1.452  -0.518  -0.003  0.00  0.00    +0.072 C 
ENDROOT
BRANCH   1   2
ATOM      2  C   UNL     1      -1.867  -1.967  -0.001  0.00  0.00    +0.002 A 
ATOM      3  C   UNL     1      -1.706  -2.871  -1.056  0.00  0.00    +0.139 A 
ATOM      4  N   UNL     1      -2.186  -4.028  -0.680  0.00  0.00    -0.180 NA
ATOM      5  N   UNL     1      -2.669  -3.897   0.628  0.00  0.00    -0.274 N 
ATOM      6  C   UNL     1      -2.457  -2.625   1.024  0.00  0.00    +0.112 A 
ATOM      7  C   UNL     1      -3.289  -4.956   1.428  0.00  0.00    +0.172 C 
ENDBRANCH   1   2
BRANCH   1   9
ATOM      8  C   UNL     1       0.638  -1.040  -1.268  0.00  0.00    -0.013 C 
ATOM      9  C   UNL     1       0.075  -0.425   0.015  0.00  0.00    -0.060 C 
BRANCH   9  10
ATOM     10  N   UNL     1       0.597  -1.156   1.177  0.00  0.00    +0.381 N 
ATOM     11  H   UNL     1       1.594  -1.019   1.241  0.00  0.00    -0.090 HD
ATOM     12  H   UNL     1       0.156  -0.811   2.017  0.00  0.00    -0.090 HD
ATOM     13  H   UNL     1       0.398  -2.140   1.073  0.00  0.00    -0.090 HD
ENDBRANCH   9  10
ENDBRANCH   1   9
BRANCH   1  14
ATOM     14  S   UNL     1      -2.090   0.291  -1.496  0.00  0.00    -0.079 S 
BRANCH  14  15
ATOM     15  C   UNL     1      -1.791   2.005  -1.212  0.00  0.00    +0.192 A 
ATOM     16  N   UNL     1      -1.160   2.376  -0.107  0.00  0.00    -0.207 NA
ATOM     17  C   UNL     1      -0.917   3.660   0.140  0.00  0.00    +0.122 A 
ATOM     18  C   UNL     1      -1.334   4.618  -0.780  0.00  0.00    +0.086 A 
ATOM     19  C   UNL     1      -1.993   4.191  -1.929  0.00  0.00    +0.122 A 
ATOM     20  N   UNL     1      -2.197   2.888  -2.112  0.00  0.00    -0.207 NA
ATOM     21  N   UNL     1      -0.257   4.040   1.298  0.00  0.00    -0.343 N 
ATOM     22  H   UNL     1       0.031   3.367   1.935  0.00  0.00    +0.144 HD
ATOM     23  H   UNL     1      -0.083   4.978   1.472  0.00  0.00    +0.144 HD
BRANCH  19  24
ATOM     24  N   UNL     1      -2.426   5.109  -2.873  0.00  0.00    -0.343 N 
ATOM     25  H   UNL     1      -2.271   6.056  -2.735  0.00  0.00    +0.144 HD
ATOM     26  H   UNL     1      -2.885   4.804  -3.671  0.00  0.00    +0.144 HD
ENDBRANCH  19  24
ENDBRANCH  14  15
ENDBRANCH   1  14
TORSDOF 6
