REMARK  Name = ZINC12357779
REMARK  5 active torsions:
REMARK  status: ('A' for Active; 'I' for Inactive)
REMARK    1  A    between atoms: C_1  and  C_2
REMARK    2  A    between atoms: C_2  and  C_3
REMARK    3  A    between atoms: C_3  and  N_4
REMARK    4  A    between atoms: C_5  and  N_11
REMARK    5  A    between atoms: C_7  and  C_9
REMARK                            x       y       z     vdW  Elec       q    Type
REMARK                         _______ _______ _______ _____ _____    ______ ____
ROOT
ATOM      1  N   UNL     1      -0.020   1.094   2.454  0.00  0.00    -0.249 N 
ATOM      2  C   UNL     1       0.988   1.734   3.101  0.00  0.00    +0.133 A 
ATOM      3  C   UNL     1       1.366   0.948   4.147  0.00  0.00    +0.103 A 
ATOM      4  C   UNL     1       0.565  -0.198   4.133  0.00  0.00    +0.080 A 
ATOM      5  N   UNL     1      -0.266  -0.110   3.127  0.00  0.00    -0.173 NA
ATOM      6  C   UNL     1       0.642  -1.338   5.116  0.00  0.00    +0.069 C 
ATOM      7 CL   UNL     1       2.619   1.305   5.294  0.00  0.00    -0.078 Cl
ENDROOT
BRANCH   2   8
ATOM      8  N   UNL     1       1.536   2.967   2.757  0.00  0.00    -0.342 N 
ATOM      9  H   UNL     1       1.196   3.452   1.988  0.00  0.00    +0.144 HD
ATOM     10  H   UNL     1       2.258   3.342   3.286  0.00  0.00    +0.144 HD
ENDBRANCH   2   8
BRANCH   1  11
ATOM     11  C   UNL     1      -0.729   1.579   1.267  0.00  0.00    +0.145 C 
BRANCH  11  13
ATOM     12  C   UNL     1      -0.753   1.593  -1.232  0.00  0.00    +0.005 C 
ATOM     13  C   UNL     1      -0.013   1.086   0.008  0.00  0.00    +0.020 C 
ENDBRANCH  11  13
ENDBRANCH   1  11
TORSDOF 3
