REMARK  Name = ZINC16689962
REMARK  4 active torsions:
REMARK  status: ('A' for Active; 'I' for Inactive)
REMARK    1  A    between atoms: C_1  and  C_2
REMARK    2  A    between atoms: C_11  and  C_14
REMARK    3  A    between atoms: N_16  and  C_17
REMARK    4  A    between atoms: C_23  and  C_25
REMARK                            x       y       z     vdW  Elec       q    Type
REMARK                         _______ _______ _______ _____ _____    ______ ____
ROOT
ATOM      1  C   UNL     1       0.007   1.503   0.009  0.00  0.00    +0.044 C 
ATOM      2  C   UNL     1       0.026  -0.004   0.001  0.00  0.00    -0.046 A 
ATOM      3  C   UNL     1       0.044  -0.703  -1.214  0.00  0.00    +0.021 A 
ATOM      4  C   UNL     1       0.060  -2.054  -1.219  0.00  0.00    +0.096 A 
ATOM      5  N   UNL     1       0.060  -2.759  -0.050  0.00  0.00    -0.267 N 
ATOM      6  C   UNL     1       0.042  -2.105   1.151  0.00  0.00    +0.144 A 
ATOM      7  C   UNL     1       0.030  -0.696   1.174  0.00  0.00    +0.050 A 
ATOM      8  N   UNL     1       0.041  -2.764   2.307  0.00  0.00    -0.190 NA
ATOM      9  C   UNL     1       0.058  -4.097   2.350  0.00  0.00    +0.290 A 
ATOM     10  O   UNL     1       0.056  -4.683   3.422  0.00  0.00    -0.265 OA
ATOM     11  C   UNL     1       0.077  -4.850   1.086  0.00  0.00    +0.167 A 
ATOM     12  C   UNL     1       0.077  -4.128  -0.102  0.00  0.00    +0.274 A 
ATOM     13  O   UNL     1       0.094  -4.767  -1.289  0.00  0.00    -0.266 OA
ENDROOT
BRANCH  11  14
ATOM     14  C   UNL     1       0.096  -6.318   1.080  0.00  0.00    +0.255 C 
ATOM     15  O   UNL     1       0.006  -6.923   0.028  0.00  0.00    -0.270 OA
ATOM     16  N   UNL     1       0.212  -6.995   2.239  0.00  0.00    -0.308 N 
ATOM     17  H   UNL     1       0.209  -6.516   3.083  0.00  0.00    +0.149 HD
BRANCH  16  18
ATOM     18  C   UNL     1       0.343  -8.454   2.225  0.00  0.00    +0.076 C 
ATOM     19  C   UNL     1       1.812  -8.832   2.027  0.00  0.00    +0.022 C 
ATOM     20  C   UNL     1       2.647  -8.256   3.173  0.00  0.00    +0.002 C 
ATOM     21  C   UNL     1       2.148  -8.826   4.503  0.00  0.00    +0.000 C 
ATOM     22  C   UNL     1       0.679  -8.447   4.701  0.00  0.00    +0.005 C 
ATOM     23  C   UNL     1      -0.155  -9.024   3.555  0.00  0.00    +0.006 C 
ATOM     24  C   UNL     1      -1.624  -8.645   3.753  0.00  0.00    +0.009 C 
ENDBRANCH  16  18
ENDBRANCH  11  14
TORSDOF 2
