REMARK  Name = ZINC23154092
REMARK  6 active torsions:
REMARK  status: ('A' for Active; 'I' for Inactive)
REMARK    1  A    between atoms: C_1  and  C_2
REMARK    2  A    between atoms: C_2  and  C_24
REMARK    3  A    between atoms: C_3  and  C_4
REMARK    4  A    between atoms: N_6  and  C_7
REMARK    5  A    between atoms: C_11  and  S_13
REMARK    6  A    between atoms: S_13  and  N_16
REMARK                            x       y       z     vdW  Elec       q    Type
REMARK                         _______ _______ _______ _____ _____    ______ ____
ROOT
ATOM      1  C   UNL     1       0.415  -0.094   4.883  0.00  0.00    +0.036 A 
ATOM      2  C   UNL     1       0.181   1.273   4.965  0.00  0.00    +0.023 A 
ATOM      3  C   UNL     1       0.280   1.917   6.183  0.00  0.00    +0.004 A 
ATOM      4  C   UNL     1       0.611   1.202   7.319  0.00  0.00    +0.029 A 
ATOM      5  C   UNL     1       0.845  -0.158   7.241  0.00  0.00    +0.114 A 
ATOM      6  C   UNL     1       0.742  -0.809   6.028  0.00  0.00    +0.052 A 
ENDROOT
BRANCH   1   9
ATOM      7  C   UNL     1       0.705  -0.124   2.523  0.00  0.00    +0.241 C 
ATOM      8  O   UNL     1       1.069   1.036   2.564  0.00  0.00    -0.270 OA
ATOM      9  N   UNL     1       0.316  -0.749   3.652  0.00  0.00    -0.282 N 
ATOM     10  H   UNL     1      -0.033  -1.653   3.610  0.00  0.00    +0.155 HD
BRANCH   7  13
ATOM     11  C   UNL     1       1.409   1.238   0.150  0.00  0.00    +0.039 C 
ATOM     12  C   UNL     1       1.102  -0.237   0.131  0.00  0.00    -0.071 C 
ATOM     13  C   UNL     1       0.690  -0.845   1.241  0.00  0.00    +0.066 C 
ATOM     14  C   UNL     1       1.261  -1.025  -1.144  0.00  0.00    +0.039 C 
ENDBRANCH   7  13
ENDBRANCH   1   9
BRANCH   5  15
ATOM     15  S   UNL     1       1.269  -1.063   8.693  0.00  0.00    +0.100 S 
ATOM     16  O   UNL     1       1.971  -2.220   8.259  0.00  0.00    -0.146 OA
ATOM     17  O   UNL     1       1.829  -0.129   9.605  0.00  0.00    -0.146 OA
BRANCH  15  18
ATOM     18  N   UNL     1      -0.147  -1.594   9.369  0.00  0.00    -0.118 NA
ATOM     19  C   UNL     1      -0.121  -2.292  10.457  0.00  0.00    +0.117 C 
ATOM     20  C   UNL     1      -1.425  -2.788  11.079  0.00  0.00    +0.073 C 
ATOM     21  C   UNL     1      -1.463  -4.291  10.904  0.00  0.00    +0.008 C 
ATOM     22  C   UNL     1      -0.792  -5.054  12.047  0.00  0.00    +0.002 C 
ATOM     23  C   UNL     1       0.530  -4.428  12.492  0.00  0.00    +0.019 C 
ATOM     24  C   UNL     1       1.398  -3.981  11.336  0.00  0.00    +0.102 C 
ATOM     25  N   UNL     1       1.030  -2.583  11.029  0.00  0.00    -0.331 N 
ATOM     26  H   UNL     1       1.647  -1.869  11.255  0.00  0.00    +0.147 HD
ENDBRANCH  15  18
ENDBRANCH   5  15
TORSDOF 4
