REMARK  Name = ZINC51036952
REMARK  6 active torsions:
REMARK  status: ('A' for Active; 'I' for Inactive)
REMARK    1  A    between atoms: C_1  and  C_2
REMARK    2  A    between atoms: C_7  and  C_8
REMARK    3  A    between atoms: C_8  and  O_10
REMARK    4  A    between atoms: O_10  and  C_11
REMARK    5  A    between atoms: C_14  and  N_17
REMARK    6  A    between atoms: C_18  and  C_20
REMARK                            x       y       z     vdW  Elec       q    Type
REMARK                         _______ _______ _______ _____ _____    ______ ____
ROOT
ATOM      1  O   UNL     1       0.043  -1.277   3.475  0.00  0.00    -0.421 OA
ENDROOT
BRANCH   1   2
ATOM      2  C   UNL     1       0.157  -0.839   4.757  0.00  0.00    +0.132 A 
ATOM      3  C   UNL     1      -0.933  -0.261   5.392  0.00  0.00    +0.048 A 
ATOM      4  C   UNL     1      -0.819   0.184   6.694  0.00  0.00    +0.027 A 
ATOM      5  C   UNL     1       0.388   0.053   7.368  0.00  0.00    +0.034 A 
ATOM      6  C   UNL     1       1.479  -0.525   6.732  0.00  0.00    +0.027 A 
ATOM      7  C   UNL     1       1.361  -0.974   5.432  0.00  0.00    +0.048 A 
BRANCH   5   8
ATOM      8  N   UNL     1       0.505   0.505   8.688  0.00  0.00    -0.279 N 
ATOM      9  C   UNL     1      -0.540   0.400   9.531  0.00  0.00    +0.284 C 
ATOM     10  O   UNL     1      -1.612  -0.009   9.124  0.00  0.00    -0.266 OA
ATOM     11  H   UNL     1       1.340   0.893   8.995  0.00  0.00    +0.155 HD
BRANCH   9  12
ATOM     12  C   UNL     1      -0.388   0.780  10.939  0.00  0.00    +0.189 A 
ATOM     13  C   UNL     1      -1.359   0.718  11.897  0.00  0.00    +0.054 A 
ATOM     14  C   UNL     1      -0.778   1.174  13.091  0.00  0.00    +0.042 A 
ATOM     15  C   UNL     1       0.506   1.490  12.813  0.00  0.00    +0.196 A 
ATOM     16  O   UNL     1       0.739   1.246  11.517  0.00  0.00    -0.458 OA
ENDBRANCH   9  12
ENDBRANCH   5   8
ENDBRANCH   1   2
BRANCH   1  17
ATOM     17  C   UNL     1       0.029  -0.356   2.490  0.00  0.00    +0.361 C 
ATOM     18  O   UNL     1       0.025   0.829   2.765  0.00  0.00    -0.243 OA
BRANCH  17  25
ATOM     19  C   UNL     1      -0.003   1.553   0.015  0.00  0.00    +0.047 C 
ATOM     20  C   UNL     1       0.004   0.046  -0.001  0.00  0.00    -0.008 A 
ATOM     21  C   UNL     1       0.004  -0.778  -1.132  0.00  0.00    +0.042 A 
ATOM     22  C   UNL     1       0.011  -2.102  -0.692  0.00  0.00    +0.027 A 
ATOM     23  N   UNL     1       0.018  -2.091   0.641  0.00  0.00    -0.352 N 
ATOM     24  H   UNL     1       0.027  -2.878   1.208  0.00  0.00    +0.166 HD
ATOM     25  C   UNL     1       0.019  -0.783   1.087  0.00  0.00    +0.129 A 
ATOM     26  C   UNL     1       0.007  -3.278  -1.636  0.00  0.00    +0.054 C 
ATOM     27  C   UNL     1      -0.507  -2.824  -3.005  0.00  0.00    +0.014 C 
ATOM     28  C   UNL     1       0.278  -1.607  -3.502  0.00  0.00    +0.080 C 
ATOM     29  C   UNL     1       0.002  -0.441  -2.564  0.00  0.00    +0.165 C 
ATOM     30  O   UNL     1      -0.206   0.684  -2.968  0.00  0.00    -0.292 OA
ENDBRANCH  17  25
ENDBRANCH   1  17
TORSDOF 5
