REMARK  Name = ZINC49765500
REMARK  4 active torsions:
REMARK  status: ('A' for Active; 'I' for Inactive)
REMARK    1  A    between atoms: C_4  and  C_7
REMARK    2  A    between atoms: C_7  and  N_8
REMARK    3  A    between atoms: N_16  and  C_17
REMARK    4  A    between atoms: C_17  and  C_19
REMARK                            x       y       z     vdW  Elec       q    Type
REMARK                         _______ _______ _______ _____ _____    ______ ____
ROOT
ATOM      1  N   UNL     1       4.153  -0.953   1.342  0.00  0.00    +0.386 N 
ATOM      2  C   UNL     1       5.489  -1.562   1.326  0.00  0.00    -0.072 C 
ATOM      3  C   UNL     1       6.093  -1.550   2.734  0.00  0.00    +0.035 C 
ATOM      4  C   UNL     1       5.080  -2.174   3.686  0.00  0.00    +0.024 A 
ATOM      5  C   UNL     1       3.797  -2.294   3.308  0.00  0.00    -0.004 A 
ATOM      6  S   UNL     1       3.021  -3.058   4.702  0.00  0.00    -0.059 S 
ATOM      7  C   UNL     1       4.375  -3.184   5.696  0.00  0.00    +0.164 A 
ATOM      8  N   UNL     1       5.367  -2.643   4.938  0.00  0.00    -0.339 N 
ATOM      9  N   UNL     1       4.454  -3.689   6.925  0.00  0.00    -0.152 NA
ATOM     10  C   UNL     1       3.204  -1.866   2.007  0.00  0.00    -0.033 C 
ATOM     11  H   UNL     1       6.272  -2.591   5.284  0.00  0.00    +0.167 HD
ATOM     12  H   UNL     1       4.188  -0.079   1.845  0.00  0.00    -0.081 HD
ENDROOT
BRANCH   9  13
ATOM     13  C   UNL     1       5.626  -3.704   7.567  0.00  0.00    +0.276 C 
ATOM     14  O   UNL     1       6.623  -3.255   7.027  0.00  0.00    -0.268 OA
BRANCH  13  15
ATOM     15  C   UNL     1       5.714  -4.264   8.930  0.00  0.00    +0.124 A 
ATOM     16  C   UNL     1       6.915  -4.288   9.623  0.00  0.00    +0.031 A 
ATOM     17  C   UNL     1       6.928  -4.872  10.917  0.00  0.00    +0.018 A 
ATOM     18  C   UNL     1       8.055  -4.748  11.742  0.00  0.00    +0.011 A 
ATOM     19  C   UNL     1       8.037  -5.280  12.999  0.00  0.00    +0.001 A 
ATOM     20  C   UNL     1       6.915  -5.950  13.466  0.00  0.00    +0.004 A 
ATOM     21  C   UNL     1       5.802  -6.102  12.664  0.00  0.00    +0.047 A 
ATOM     22  C   UNL     1       5.801  -5.575  11.380  0.00  0.00    +0.139 A 
ATOM     23  O   UNL     1       4.731  -5.753  10.567  0.00  0.00    -0.422 OA
ATOM     24  C   UNL     1       4.528  -4.815   9.610  0.00  0.00    +0.350 A 
ATOM     25  O   UNL     1       3.407  -4.442   9.319  0.00  0.00    -0.244 OA
ENDBRANCH  13  15
ENDBRANCH   9  13
BRANCH   1  26
ATOM     26  C   UNL     1       3.711  -0.707  -0.038  0.00  0.00    -0.043 C 
BRANCH  26  30
ATOM     27  C   UNL     1      -0.017   1.378   0.010  0.00  0.00    +0.000 A 
ATOM     28  C   UNL     1       1.171   2.086   0.002  0.00  0.00    +0.000 A 
ATOM     29  C   UNL     1       2.377   1.411  -0.013  0.00  0.00    +0.002 A 
ATOM     30  C   UNL     1       2.396   0.029  -0.020  0.00  0.00    -0.064 A 
ATOM     31  C   UNL     1       1.208  -0.679  -0.012  0.00  0.00    +0.002 A 
ATOM     32  C   UNL     1       0.002  -0.004   0.002  0.00  0.00    +0.000 A 
ENDBRANCH  26  30
ENDBRANCH   1  26
TORSDOF 4
