REMARK  Name = ZINC66135954
REMARK  7 active torsions:
REMARK  status: ('A' for Active; 'I' for Inactive)
REMARK    1  A    between atoms: C_1  and  C_2
REMARK    2  A    between atoms: C_3  and  C_20
REMARK    3  A    between atoms: C_4  and  C_9
REMARK    4  A    between atoms: C_9  and  C_11
REMARK    5  A    between atoms: C_9  and  O_12
REMARK    6  A    between atoms: O_12  and  C_13
REMARK    7  A    between atoms: N_22  and  C_23
REMARK                            x       y       z     vdW  Elec       q    Type
REMARK                         _______ _______ _______ _____ _____    ______ ____
ROOT
ATOM      1  C   UNL     1       0.672   1.434   0.344  0.00  0.00    +0.066 C 
ATOM      2  C   UNL     1       0.461  -0.054   0.226  0.00  0.00    +0.056 A 
ATOM      3  C   UNL     1       0.442  -0.671  -1.032  0.00  0.00    +0.083 A 
ATOM      4  C   UNL     1       0.243  -2.057  -1.088  0.00  0.00    +0.099 A 
ATOM      5  N   UNL     1       0.083  -2.726   0.038  0.00  0.00    -0.215 NA
ATOM      6  C   UNL     1       0.108  -2.105   1.210  0.00  0.00    +0.213 A 
ATOM      7  N   UNL     1       0.298  -0.795   1.305  0.00  0.00    -0.219 NA
ATOM      8  N   UNL     1      -0.064  -2.842   2.363  0.00  0.00    -0.327 N 
ATOM      9  H   UNL     1      -0.201  -3.801   2.309  0.00  0.00    +0.145 HD
ATOM     10  H   UNL     1      -0.048  -2.402   3.227  0.00  0.00    +0.145 HD
ENDROOT
BRANCH   3  11
ATOM     11  C   UNL     1       0.625   0.118  -2.265  0.00  0.00    +0.247 C 
ATOM     12  O   UNL     1       1.741   0.292  -2.716  0.00  0.00    -0.270 OA
ATOM     13  N   UNL     1      -0.445   0.646  -2.893  0.00  0.00    -0.314 N 
ATOM     14  C   UNL     1      -0.263   1.429  -4.118  0.00  0.00    +0.128 C 
ATOM     15  H   UNL     1      -1.335   0.507  -2.534  0.00  0.00    +0.149 HD
ENDBRANCH   3  11
BRANCH   4  16
ATOM     16  C   UNL     1       0.212  -2.772  -2.414  0.00  0.00    +0.220 C 
ATOM     17  C   UNL     1      -1.232  -3.138  -2.763  0.00  0.00    +0.059 C 
BRANCH  16  18
ATOM     18  O   UNL     1       0.998  -3.962  -2.331  0.00  0.00    -0.482 OA
BRANCH  18  19
ATOM     19  C   UNL     1       1.514  -4.444  -3.494  0.00  0.00    +0.140 A 
ATOM     20  C   UNL     1       1.175  -3.851  -4.701  0.00  0.00    +0.047 A 
ATOM     21  C   UNL     1       1.701  -4.341  -5.881  0.00  0.00    +0.004 A 
ATOM     22  C   UNL     1       2.563  -5.422  -5.859  0.00  0.00    +0.002 A 
ATOM     23  C   UNL     1       2.902  -6.015  -4.657  0.00  0.00    +0.023 A 
ATOM     24  C   UNL     1       2.384  -5.525  -3.473  0.00  0.00    +0.083 A 
ATOM     25 CL   UNL     1       2.815  -6.265  -1.963  0.00  0.00    -0.080 Cl
ENDBRANCH  18  19
ENDBRANCH  16  18
ENDBRANCH   4  16
TORSDOF 4
