REMARK  Name = ZINC00452192
REMARK  6 active torsions:
REMARK  status: ('A' for Active; 'I' for Inactive)
REMARK    1  A    between atoms: C_2  and  C_3
REMARK    2  A    between atoms: C_7  and  N_9
REMARK    3  A    between atoms: C_10  and  C_12
REMARK    4  A    between atoms: C_12  and  O_13
REMARK    5  A    between atoms: O_13  and  C_14
REMARK    6  A    between atoms: C_18  and  N_20
REMARK                            x       y       z     vdW  Elec       q    Type
REMARK                         _______ _______ _______ _____ _____    ______ ____
ROOT
ATOM      1  N   UNL     1       2.036   8.193   0.025  0.00  0.00    -0.283 N 
ATOM      2  C   UNL     1       0.978   7.358   0.029  0.00  0.00    +0.255 C 
ATOM      3  O   UNL     1      -0.149   7.806   0.033  0.00  0.00    -0.272 OA
ATOM      4  H   UNL     1       2.936   7.837   0.089  0.00  0.00    +0.155 HD
ENDROOT
BRANCH   1   9
ATOM      5  C   UNL     1       0.538  11.537   0.434  0.00  0.00    +0.026 A 
ATOM      6  C   UNL     1       1.454  12.318  -0.273  0.00  0.00    +0.017 A 
ATOM      7  C   UNL     1       2.548  11.726  -0.872  0.00  0.00    +0.003 A 
ATOM      8  C   UNL     1       2.744  10.362  -0.769  0.00  0.00    +0.023 A 
ATOM      9  C   UNL     1       1.835   9.575  -0.072  0.00  0.00    +0.035 A 
ATOM     10  C   UNL     1       0.733  10.160   0.533  0.00  0.00    +0.040 A 
BRANCH   5  12
ATOM     11  C   UNL     1      -1.529  12.649   1.566  0.00  0.00    +0.009 C 
ATOM     12  C   UNL     1      -0.598  12.148   1.056  0.00  0.00    -0.070 C 
ENDBRANCH   5  12
ENDBRANCH   1   9
BRANCH   2  13
ATOM     13  C   UNL     1       1.196   5.867   0.028  0.00  0.00    +0.324 C 
BRANCH  13  14
ATOM     14  O   UNL     1      -0.068   5.200   0.033  0.00  0.00    -0.483 OA
BRANCH  14  15
ATOM     15  C   UNL     1      -0.050   3.842   0.033  0.00  0.00    +0.123 A 
ATOM     16  C   UNL     1       1.161   3.163   0.028  0.00  0.00    +0.046 A 
ATOM     17  C   UNL     1       1.177   1.782   0.028  0.00  0.00    +0.006 A 
ATOM     18  C   UNL     1      -0.011   1.075   0.032  0.00  0.00    +0.033 A 
ATOM     19  C   UNL     1      -1.219   1.749   0.030  0.00  0.00    +0.130 A 
ATOM     20  C   UNL     1      -1.240   3.131   0.037  0.00  0.00    +0.078 A 
BRANCH  19  21
ATOM     21  N   UNL     1      -2.489   0.990   0.028  0.00  0.00    +0.057 N 
ATOM     22  O   UNL     1      -2.471  -0.228   0.027  0.00  0.00    -0.126 OA
ATOM     23  O   UNL     1      -3.553   1.583   0.027  0.00  0.00    -0.126 OA
ENDBRANCH  19  21
ENDBRANCH  14  15
ENDBRANCH  13  14
ENDBRANCH   2  13
TORSDOF 6
