REMARK  Name = ZINC20837396
REMARK  11 active torsions:
REMARK  status: ('A' for Active; 'I' for Inactive)
REMARK    1  A    between atoms: C_1  and  C_2
REMARK    2  A    between atoms: C_2  and  C_25
REMARK    3  A    between atoms: N_3  and  N_4
REMARK    4  A    between atoms: C_7  and  S_10
REMARK    5  A    between atoms: S_10  and  C_11
REMARK    6  A    between atoms: C_11  and  C_12
REMARK    7  A    between atoms: N_14  and  C_15
REMARK    8  A    between atoms: C_17  and  C_23
REMARK    9  A    between atoms: C_17  and  C_24
REMARK   10  A    between atoms: C_19  and  C_21
REMARK   11  A    between atoms: C_19  and  C_22
REMARK                            x       y       z     vdW  Elec       q    Type
REMARK                         _______ _______ _______ _____ _____    ______ ____
ROOT
ATOM      1  N   UNL     1      -3.163   4.769   3.564  0.00  0.00    -0.205 N 
ATOM      2  C   UNL     1      -4.303   5.553   3.452  0.00  0.00    +0.232 A 
ATOM      3  N   UNL     1      -5.037   6.058   4.489  0.00  0.00    -0.186 NA
ATOM      4  C   UNL     1      -6.076   6.771   3.963  0.00  0.00    +0.211 A 
ATOM      5  N   UNL     1      -5.990   6.710   2.656  0.00  0.00    -0.144 NA
ATOM      6  N   UNL     1      -4.863   5.943   2.333  0.00  0.00    -0.245 N 
ATOM      7  H   UNL     1      -2.774   4.503   4.558  0.00  0.00    +0.177 HD
ATOM      8  H   UNL     1      -4.424   5.650   1.367  0.00  0.00    +0.192 HD
ENDROOT
BRANCH   1  11
ATOM      9  C   UNL     1      -0.922   3.231   3.877  0.00  0.00    +0.063 C 
ATOM     10  C   UNL     1      -1.455   3.595   2.515  0.00  0.00    +0.040 C 
ATOM     11  N   UNL     1      -2.507   4.317   2.412  0.00  0.00    -0.189 NA
BRANCH  10  12
ATOM     12  C   UNL     1      -0.750   3.109   1.275  0.00  0.00    +0.011 C 
ATOM     13  C   UNL     1      -0.729   1.579   1.267  0.00  0.00    +0.016 C 
ATOM     14  C   UNL     1      -0.013   1.086   0.008  0.00  0.00    -0.010 C 
ATOM     15  C   UNL     1      -0.753   1.593  -1.232  0.00  0.00    +0.007 C 
ATOM     16  C   UNL     1      -0.773   3.123  -1.223  0.00  0.00    -0.010 C 
ATOM     17  C   UNL     1      -1.490   3.616   0.036  0.00  0.00    +0.016 C 
ATOM     18  C   UNL     1       0.662   3.652  -1.234  0.00  0.00    +0.007 C 
ATOM     19  C   UNL     1       1.402   3.145   0.006  0.00  0.00    -0.010 C 
ATOM     20  C   UNL     1       1.423   1.615  -0.003  0.00  0.00    +0.007 C 
ATOM     21  C   UNL     1       0.686   3.639   1.264  0.00  0.00    +0.016 C 
ENDBRANCH  10  12
ENDBRANCH   1  11
BRANCH   4  22
ATOM     22  S   UNL     1      -7.315   7.625   4.881  0.00  0.00    -0.075 S 
BRANCH  22  23
ATOM     23  C   UNL     1      -8.380   8.354   3.606  0.00  0.00    +0.173 C 
BRANCH  23  24
ATOM     24  C   UNL     1      -9.497   9.123   4.264  0.00  0.00    +0.224 C 
ATOM     25  O   UNL     1      -9.567   9.173   5.474  0.00  0.00    -0.275 OA
ATOM     26  N   UNL     1     -10.417   9.754   3.509  0.00  0.00    -0.312 N 
ATOM     27  H   UNL     1     -10.353   9.708   2.411  0.00  0.00    +0.149 HD
BRANCH  26  28
ATOM     28  C   UNL     1     -11.505  10.503   4.150  0.00  0.00    +0.070 C 
ATOM     29  C   UNL     1     -12.662   9.550   4.453  0.00  0.00    +0.009 C 
ATOM     30  C   UNL     1     -13.819  10.307   5.100  0.00  0.00    -0.072 C 
ATOM     31  N   UNL     1     -14.181  11.511   4.381  0.00  0.00    +0.386 N 
ATOM     32  C   UNL     1     -13.152  12.366   3.826  0.00  0.00    -0.072 C 
ATOM     33  C   UNL     1     -12.005  11.584   3.192  0.00  0.00    +0.009 C 
ATOM     34  C   UNL     1     -12.596  13.323   4.887  0.00  0.00    -0.010 C 
ATOM     35  C   UNL     1     -13.792  13.233   2.719  0.00  0.00    -0.010 C 
ATOM     36  C   UNL     1     -13.474  10.618   6.561  0.00  0.00    -0.010 C 
ATOM     37  C   UNL     1     -15.043   9.365   5.110  0.00  0.00    -0.010 C 
ATOM     38  H   UNL     1     -14.800  11.246   3.511  0.00  0.00    -0.084 HD
ATOM     39  H   UNL     1     -14.748  12.179   5.045  0.00  0.00    -0.084 HD
ENDBRANCH  26  28
ENDBRANCH  23  24
ENDBRANCH  22  23
ENDBRANCH   4  22
TORSDOF 6
