REMARK  Name = ZINC16269594
REMARK  7 active torsions:
REMARK  status: ('A' for Active; 'I' for Inactive)
REMARK    1  A    between atoms: C_1  and  N_2
REMARK    2  A    between atoms: C_6  and  C_7
REMARK    3  A    between atoms: N_9  and  N_10
REMARK    4  A    between atoms: C_11  and  C_13
REMARK    5  A    between atoms: C_13  and  O_14
REMARK    6  A    between atoms: O_14  and  C_15
REMARK    7  A    between atoms: C_20  and  N_21
REMARK                            x       y       z     vdW  Elec       q    Type
REMARK                         _______ _______ _______ _____ _____    ______ ____
ROOT
ATOM      1  N   UNL     1      -0.396   1.369   4.115  0.00  0.00    -0.231 N 
ATOM      2  C   UNL     1      -0.600   2.671   4.394  0.00  0.00    +0.267 C 
ATOM      3  O   UNL     1      -0.779   3.463   3.493  0.00  0.00    -0.271 OA
ATOM      4  H   UNL     1      -0.253   0.735   4.836  0.00  0.00    +0.173 HD
ENDROOT
BRANCH   1   7
ATOM      5  C   UNL     1      -0.188  -0.374   2.507  0.00  0.00    +0.277 C 
ATOM      6  O   UNL     1      -0.101  -1.183   3.412  0.00  0.00    -0.267 OA
ATOM      7  N   UNL     1      -0.392   0.929   2.785  0.00  0.00    -0.229 N 
ATOM      8  H   UNL     1      -0.535   1.562   2.065  0.00  0.00    +0.173 HD
BRANCH   5  14
ATOM      9  C   UNL     1       0.070  -3.305   1.538  0.00  0.00    +0.149 C 
ATOM     10  N   UNL     1       0.043  -2.118   0.680  0.00  0.00    -0.345 N 
ATOM     11  C   UNL     1       0.121  -2.119  -0.674  0.00  0.00    +0.101 A 
ATOM     12  C   UNL     1       0.064  -0.840  -1.117  0.00  0.00    +0.036 A 
ATOM     13  C   UNL     1      -0.054  -0.004  -0.001  0.00  0.00    +0.047 A 
ATOM     14  C   UNL     1      -0.072  -0.817   1.113  0.00  0.00    +0.107 A 
ATOM     15 BR   UNL     1       0.133  -0.283  -2.922  0.00  0.00    -0.049 Br
ENDBRANCH   5  14
ENDBRANCH   1   7
BRANCH   2  16
ATOM     16  C   UNL     1      -0.605   3.144   5.825  0.00  0.00    +0.326 C 
BRANCH  16  17
ATOM     17  O   UNL     1      -0.839   4.554   5.860  0.00  0.00    -0.480 OA
BRANCH  17  18
ATOM     18  C   UNL     1      -0.874   5.143   7.084  0.00  0.00    +0.151 A 
ATOM     19  C   UNL     1      -0.682   4.381   8.228  0.00  0.00    +0.048 A 
ATOM     20  C   UNL     1      -0.717   4.983   9.470  0.00  0.00    +0.004 A 
ATOM     21  C   UNL     1      -0.945   6.343   9.576  0.00  0.00    +0.002 A 
ATOM     22  C   UNL     1      -1.138   7.104   8.438  0.00  0.00    +0.036 A 
ATOM     23  C   UNL     1      -1.097   6.508   7.192  0.00  0.00    +0.168 A 
BRANCH  23  24
ATOM     24  N   UNL     1      -1.298   7.324   5.973  0.00  0.00    +0.060 N 
ATOM     25  O   UNL     1      -1.492   8.514   6.068  0.00  0.00    -0.126 OA
ATOM     26  O   UNL     1      -1.267   6.801   4.884  0.00  0.00    -0.126 OA
ENDBRANCH  23  24
ENDBRANCH  17  18
ENDBRANCH  16  17
ENDBRANCH   2  16
TORSDOF 6
