REMARK  Name = ZINC29509681
REMARK  8 active torsions:
REMARK  status: ('A' for Active; 'I' for Inactive)
REMARK    1  A    between atoms: C_1  and  C_2
REMARK    2  A    between atoms: C_2  and  C_3
REMARK    3  A    between atoms: C_4  and  C_20
REMARK    4  A    between atoms: C_5  and  C_19
REMARK    5  A    between atoms: C_6  and  C_9
REMARK    6  A    between atoms: C_15  and  C_18
REMARK    7  A    between atoms: C_20  and  O_22
REMARK    8  A    between atoms: O_22  and  C_23
REMARK                            x       y       z     vdW  Elec       q    Type
REMARK                         _______ _______ _______ _____ _____    ______ ____
ROOT
ATOM      1  C   UNL     1      -2.001  -1.128  -1.093  0.00  0.00    +0.031 A 
ATOM      2  C   UNL     1      -1.243  -0.789   0.013  0.00  0.00    +0.083 A 
ATOM      3  C   UNL     1      -1.942  -1.248   1.152  0.00  0.00    -0.006 A 
ATOM      4  C   UNL     1      -3.082  -1.848   0.705  0.00  0.00    +0.106 A 
ATOM      5  N   UNL     1      -3.102  -1.770  -0.670  0.00  0.00    -0.353 N 
ATOM      6  H   UNL     1      -3.840  -2.134  -1.400  0.00  0.00    +0.166 HD
ATOM      7  C   UNL     1      -1.509  -1.103   2.588  0.00  0.00    +0.047 C 
ENDROOT
BRANCH   4   8
ATOM      8  C   UNL     1      -4.112  -2.471   1.546  0.00  0.00    +0.263 C 
ATOM      9  O   UNL     1      -5.161  -1.890   1.753  0.00  0.00    -0.268 OA
ATOM     10  N   UNL     1      -3.896  -3.686   2.088  0.00  0.00    -0.296 N 
ATOM     11  C   UNL     1      -2.595  -4.352   1.937  0.00  0.00    +0.108 C 
ATOM     12  C   UNL     1      -2.823  -5.752   1.357  0.00  0.00    +0.019 C 
ATOM     13  C   UNL     1      -3.818  -6.509   2.240  0.00  0.00    +0.006 C 
ATOM     14  C   UNL     1      -5.157  -5.768   2.253  0.00  0.00    +0.003 C 
ATOM     15  C   UNL     1      -4.954  -4.366   2.847  0.00  0.00    +0.111 C 
ATOM     16  C   UNL     1      -6.162  -6.543   3.108  0.00  0.00    +0.009 C 
ENDBRANCH   4   8
BRANCH   1  18
ATOM     17  C   UNL     1      -0.732  -1.932  -3.066  0.00  0.00    +0.010 C 
ATOM     18  C   UNL     1      -1.650  -0.832  -2.528  0.00  0.00    +0.050 C 
ENDBRANCH   1  18
BRANCH   2  19
ATOM     19  C   UNL     1       0.046  -0.077   0.005  0.00  0.00    +0.341 C 
ATOM     20  O   UNL     1       1.085  -0.704  -0.059  0.00  0.00    -0.245 OA
BRANCH  19  21
ATOM     21  O   UNL     1       0.073   1.269   0.068  0.00  0.00    -0.464 OA
ATOM     22  C   UNL     1       1.379   1.903   0.056  0.00  0.00    +0.280 C 
ENDBRANCH  19  21
ENDBRANCH   2  19
TORSDOF 4
