REMARK  Name = ZINC61887136
REMARK  4 active torsions:
REMARK  status: ('A' for Active; 'I' for Inactive)
REMARK    1  A    between atoms: C_5  and  C_6
REMARK    2  A    between atoms: N_8  and  C_9
REMARK    3  A    between atoms: C_14  and  C_16
REMARK    4  A    between atoms: N_17  and  O_18
REMARK                            x       y       z     vdW  Elec       q    Type
REMARK                         _______ _______ _______ _____ _____    ______ ____
ROOT
ATOM      1  C   UNL     1      -1.012  -1.060   0.358  0.00  0.00    +0.251 C 
ATOM      2  O   UNL     1      -2.142  -0.610   0.414  0.00  0.00    -0.270 OA
ATOM      3  N   UNL     1      -0.822  -2.387   0.218  0.00  0.00    -0.307 N 
ATOM      4  H   UNL     1       0.078  -2.746   0.172  0.00  0.00    +0.149 HD
ENDROOT
BRANCH   1   9
ATOM      5  C   UNL     1       0.164   1.216   0.584  0.00  0.00    +0.024 A 
ATOM      6  C   UNL     1       1.412   1.819   0.636  0.00  0.00    -0.036 A 
ATOM      7  C   UNL     1       2.495   0.995   0.540  0.00  0.00    -0.006 A 
ATOM      8  S   UNL     1       1.879  -0.549   0.386  0.00  0.00    -0.088 S 
ATOM      9  C   UNL     1       0.141  -0.159   0.441  0.00  0.00    +0.074 A 
ATOM     10  C   UNL     1       3.938   1.404   0.569  0.00  0.00    +0.043 C 
ATOM     11  C   UNL     1       4.019   2.920   0.343  0.00  0.00    +0.005 C 
ATOM     12  C   UNL     1       3.014   3.610   1.270  0.00  0.00    +0.005 C 
ATOM     13  C   UNL     1       1.589   3.327   0.792  0.00  0.00    +0.036 C 
ENDBRANCH   1   9
BRANCH   3  14
ATOM     14  C   UNL     1      -1.974  -3.288   0.134  0.00  0.00    +0.083 C 
ATOM     15  C   UNL     1      -2.338  -3.812   1.539  0.00  0.00    +0.023 C 
ATOM     16  C   UNL     1      -2.769  -5.280   1.297  0.00  0.00    +0.003 C 
ATOM     17  C   UNL     1      -1.780  -5.750   0.202  0.00  0.00    +0.013 C 
ATOM     18  C   UNL     1      -1.620  -4.520  -0.717  0.00  0.00    +0.076 C 
BRANCH  18  19
ATOM     19  C   UNL     1      -0.196  -4.420  -1.202  0.00  0.00    +0.136 C 
ATOM     20  N   UNL     1       0.053  -3.954  -2.381  0.00  0.00    -0.076 NA
ATOM     21  N   UNL     1       0.839  -4.824  -0.389  0.00  0.00    -0.344 N 
ATOM     22  H   UNL     1       0.651  -5.174   0.496  0.00  0.00    +0.144 HD
ATOM     23  H   UNL     1       1.755  -4.760  -0.701  0.00  0.00    +0.144 HD
BRANCH  20  24
ATOM     24  O   UNL     1      -0.999  -3.433  -3.174  0.00  0.00    -0.408 OA
ATOM     25  H   UNL     1      -0.706  -3.040  -4.007  0.00  0.00    +0.328 HD
ENDBRANCH  20  24
ENDBRANCH  18  19
ENDBRANCH   3  14
TORSDOF 4
