REMARK  Name = ZINC36207392
REMARK  17 active torsions:
REMARK  status: ('A' for Active; 'I' for Inactive)
REMARK    1  A    between atoms: C_1  and  C_2
REMARK    2  A    between atoms: C_8  and  C_19
REMARK    3  A    between atoms: C_12  and  C_13
REMARK    4  A    between atoms: C_13  and  O_15
REMARK    5  A    between atoms: O_15  and  C_16
REMARK    6  A    between atoms: C_16  and  C_17
REMARK    7  A    between atoms: C_16  and  C_18
REMARK    8  A    between atoms: C_19  and  N_20
REMARK    9  A    between atoms: N_20  and  C_21
REMARK   10  A    between atoms: N_20  and  C_27
REMARK   11  A    between atoms: C_21  and  C_22
REMARK   12  A    between atoms: C_27  and  C_28
REMARK   13  A    between atoms: C_28  and  C_30
REMARK   14  A    between atoms: C_28  and  O_35
REMARK   15  A    between atoms: C_30  and  O_31
REMARK   16  A    between atoms: O_31  and  C_32
REMARK   17  A    between atoms: C_32  and  C_33
REMARK                            x       y       z     vdW  Elec       q    Type
REMARK                         _______ _______ _______ _____ _____    ______ ____
ROOT
ATOM      1  C   UNL     1      -5.736  -2.017  -8.370  0.00  0.00    +0.046 C 
ATOM      2  C   UNL     1      -5.100  -3.251  -7.782  0.00  0.00    -0.015 A 
ATOM      3  C   UNL     1      -3.983  -3.135  -6.952  0.00  0.00    +0.076 A 
ATOM      4  C   UNL     1      -3.263  -1.916  -6.518  0.00  0.00    +0.260 A 
ATOM      5  O   UNL     1      -3.622  -0.812  -6.888  0.00  0.00    -0.267 OA
ATOM      6  N   UNL     1      -2.198  -2.059  -5.705  0.00  0.00    -0.312 N 
ATOM      7  H   UNL     1      -1.715  -1.271  -5.411  0.00  0.00    +0.170 HD
ATOM      8  C   UNL     1      -1.789  -3.283  -5.287  0.00  0.00    +0.094 A 
ATOM      9  N   UNL     1      -2.402  -4.376  -5.650  0.00  0.00    -0.229 NA
ATOM     10  C   UNL     1      -3.461  -4.348  -6.449  0.00  0.00    +0.116 A 
ATOM     11  S   UNL     1      -4.535  -5.576  -7.148  0.00  0.00    -0.062 S 
ATOM     12  C   UNL     1      -5.619  -4.484  -8.054  0.00  0.00    +0.102 A 
ENDROOT
BRANCH  12  13
ATOM     13  C   UNL     1      -6.775  -4.826  -8.884  0.00  0.00    +0.346 C 
ATOM     14  O   UNL     1      -7.408  -3.947  -9.438  0.00  0.00    -0.244 OA
BRANCH  13  15
ATOM     15  O   UNL     1      -7.139  -6.116  -9.036  0.00  0.00    -0.458 OA
BRANCH  15  16
ATOM     16  C   UNL     1      -8.277  -6.377  -9.860  0.00  0.00    +0.171 C 
ATOM     17  C   UNL     1      -8.124  -7.749 -10.521  0.00  0.00    +0.052 C 
ATOM     18  C   UNL     1      -9.543  -6.363  -9.002  0.00  0.00    +0.052 C 
ENDBRANCH  15  16
ENDBRANCH  13  15
ENDBRANCH  12  13
BRANCH   8  19
ATOM     19  C   UNL     1      -0.592  -3.382  -4.377  0.00  0.00    -0.003 C 
BRANCH  19  20
ATOM     20  N   UNL     1      -0.375  -4.787  -4.005  0.00  0.00    +0.391 N 
ATOM     21  H   UNL     1      -1.233  -5.174  -3.641  0.00  0.00    -0.080 HD
BRANCH  20  22
ATOM     22  C   UNL     1       0.673  -4.865  -2.979  0.00  0.00    -0.002 C 
BRANCH  22  23
ATOM     23  C   UNL     1       0.224  -4.123  -1.746  0.00  0.00    +0.089 A 
ATOM     24  C   UNL     1      -0.382  -4.669  -0.676  0.00  0.00    +0.042 A 
ATOM     25  C   UNL     1      -0.623  -3.619   0.239  0.00  0.00    +0.041 A 
ATOM     26  C   UNL     1      -0.150  -2.494  -0.327  0.00  0.00    +0.195 A 
ATOM     27  O   UNL     1       0.367  -2.806  -1.526  0.00  0.00    -0.470 OA
ENDBRANCH  22  23
ENDBRANCH  20  22
BRANCH  20  28
ATOM     28  C   UNL     1       0.042  -5.548  -5.190  0.00  0.00    -0.044 C 
BRANCH  28  29
ATOM     29  C   UNL     1       0.091  -7.039  -4.847  0.00  0.00    +0.124 C 
BRANCH  29  30
ATOM     30  O   UNL     1       1.167  -7.284  -3.940  0.00  0.00    -0.391 OA
ATOM     31  H   UNL     1       2.037  -7.043  -4.287  0.00  0.00    +0.210 HD
ENDBRANCH  29  30
BRANCH  29  32
ATOM     32  C   UNL     1       0.307  -7.849  -6.127  0.00  0.00    +0.189 C 
BRANCH  32  33
ATOM     33  O   UNL     1       0.236  -9.244  -5.824  0.00  0.00    -0.373 OA
BRANCH  33  34
ATOM     34  C   UNL     1       0.426 -10.095  -6.957  0.00  0.00    +0.186 C 
BRANCH  34  35
ATOM     35  C   UNL     1       0.332 -11.535  -6.525  0.00  0.00    -0.007 C 
ATOM     36  C   UNL     1      -0.368 -12.387  -7.232  0.00  0.00    +0.006 C 
ENDBRANCH  34  35
ENDBRANCH  33  34
ENDBRANCH  32  33
ENDBRANCH  29  32
ENDBRANCH  28  29
ENDBRANCH  20  28
ENDBRANCH  19  20
ENDBRANCH   8  19
TORSDOF 14
