REMARK  Name = ZINC66876219
REMARK  7 active torsions:
REMARK  status: ('A' for Active; 'I' for Inactive)
REMARK    1  A    between atoms: C_1  and  C_2
REMARK    2  A    between atoms: C_2  and  C_4
REMARK    3  A    between atoms: C_2  and  N_15
REMARK    4  A    between atoms: C_9  and  C_12
REMARK    5  A    between atoms: C_18  and  N_21
REMARK    6  A    between atoms: C_22  and  C_24
REMARK    7  A    between atoms: C_24  and  C_25
REMARK                            x       y       z     vdW  Elec       q    Type
REMARK                         _______ _______ _______ _____ _____    ______ ____
ROOT
ATOM      1  N   UNL     1       0.681  -0.564  -1.179  0.00  0.00    +0.387 N 
ATOM      2  C   UNL     1       2.065  -0.076  -1.152  0.00  0.00    -0.076 C 
ATOM      3  C   UNL     1       2.806  -0.564  -2.399  0.00  0.00    +0.004 C 
ATOM      4  C   UNL     1       2.804  -2.095  -2.421  0.00  0.00    +0.069 C 
ATOM      5  C   UNL     1       1.357  -2.594  -2.373  0.00  0.00    +0.004 C 
ATOM      6  C   UNL     1       0.669  -2.031  -1.127  0.00  0.00    -0.076 C 
ATOM      7  H   UNL     1       0.233  -0.255  -2.028  0.00  0.00    -0.081 HD
ENDROOT
BRANCH   4   8
ATOM      8  N   UNL     1       3.445  -2.568  -3.650  0.00  0.00    -0.313 N 
ATOM      9  C   UNL     1       4.011  -3.791  -3.687  0.00  0.00    +0.213 C 
ATOM     10  O   UNL     1       3.989  -4.499  -2.703  0.00  0.00    -0.276 OA
ATOM     11  H   UNL     1       3.462  -2.001  -4.437  0.00  0.00    +0.149 HD
BRANCH   9  12
ATOM     12  C   UNL     1       4.670  -4.277  -4.952  0.00  0.00    +0.099 C 
BRANCH  12  13
ATOM     13  C   UNL     1       5.228  -5.684  -4.727  0.00  0.00    -0.002 C 
ATOM     14  C   UNL     1       6.404  -5.633  -3.729  0.00  0.00    +0.004 C 
ATOM     15  C   UNL     1       7.404  -6.688  -4.265  0.00  0.00    +0.000 C 
ATOM     16  C   UNL     1       7.293  -6.513  -5.800  0.00  0.00    +0.000 C 
ATOM     17  C   UNL     1       5.794  -6.244  -6.044  0.00  0.00    +0.004 C 
ENDBRANCH  12  13
ENDBRANCH   9  12
ENDBRANCH   4   8
BRANCH   1  19
ATOM     18  C   UNL     1       0.053   1.497  -0.015  0.00  0.00    -0.004 C 
ATOM     19  C   UNL     1      -0.048  -0.029  -0.021  0.00  0.00    +0.016 C 
BRANCH  19  20
ATOM     20  C   UNL     1      -1.496  -0.436  -0.107  0.00  0.00    +0.202 C 
ATOM     21  O   UNL     1      -1.974  -0.755  -1.175  0.00  0.00    -0.277 OA
ATOM     22  N   UNL     1      -2.261  -0.447   1.003  0.00  0.00    -0.303 N 
ATOM     23  C   UNL     1      -1.673  -0.161   2.319  0.00  0.00    +0.108 C 
ATOM     24  C   UNL     1      -2.021  -1.308   3.274  0.00  0.00    +0.032 C 
ATOM     25  C   UNL     1      -3.538  -1.508   3.293  0.00  0.00    +0.078 C 
ATOM     26  C   UNL     1      -4.022  -1.883   1.890  0.00  0.00    +0.032 C 
ATOM     27  C   UNL     1      -3.698  -0.738   0.919  0.00  0.00    +0.108 C 
BRANCH  25  28
ATOM     28  C   UNL     1      -3.887  -2.612   4.257  0.00  0.00    +0.214 C 
ATOM     29  O   UNL     1      -3.009  -3.183   4.868  0.00  0.00    -0.276 OA
ATOM     30  N   UNL     1      -5.174  -2.966   4.439  0.00  0.00    -0.329 N 
ATOM     31  H   UNL     1      -5.877  -2.510   3.950  0.00  0.00    +0.145 HD
ATOM     32  H   UNL     1      -5.399  -3.677   5.060  0.00  0.00    +0.145 HD
ENDBRANCH  25  28
ENDBRANCH  19  20
ENDBRANCH   1  19
TORSDOF 6
