REMARK  Name = ZINC48836062
REMARK  4 active torsions:
REMARK  status: ('A' for Active; 'I' for Inactive)
REMARK    1  A    between atoms: C_1  and  C_2
REMARK    2  A    between atoms: C_7  and  C_9
REMARK    3  A    between atoms: C_7  and  N_12
REMARK    4  A    between atoms: C_18  and  N_21
REMARK                            x       y       z     vdW  Elec       q    Type
REMARK                         _______ _______ _______ _____ _____    ______ ____
ROOT
ATOM      1  N   UNL     1       1.444  -2.513   0.026  0.00  0.00    -0.283 N 
ATOM      2  C   UNL     1       1.588  -3.835  -0.194  0.00  0.00    +0.303 C 
ATOM      3  O   UNL     1       1.230  -4.634   0.650  0.00  0.00    -0.253 OA
ATOM      4  N   UNL     1       2.128  -4.272  -1.349  0.00  0.00    -0.286 N 
ATOM      5  C   UNL     1       2.181  -5.708  -1.655  0.00  0.00    +0.108 C 
ATOM      6  C   UNL     1       3.626  -6.087  -1.994  0.00  0.00    +0.003 C 
ATOM      7  C   UNL     1       4.135  -5.185  -3.120  0.00  0.00    -0.072 C 
ATOM      8  C   UNL     1       4.114  -3.726  -2.657  0.00  0.00    +0.003 C 
ATOM      9  C   UNL     1       2.669  -3.320  -2.329  0.00  0.00    +0.108 C 
ATOM     10  H   UNL     1       1.793  -1.875  -0.615  0.00  0.00    +0.151 HD
ENDROOT
BRANCH   1  16
ATOM     11  C   UNL     1      -0.039   1.520   0.006  0.00  0.00    +0.007 C 
ATOM     12  C   UNL     1      -0.013  -0.010   0.001  0.00  0.00    -0.012 C 
ATOM     13  C   UNL     1      -1.446  -0.545   0.019  0.00  0.00    +0.003 C 
ATOM     14  C   UNL     1      -1.419  -2.075   0.013  0.00  0.00    +0.003 C 
ATOM     15  C   UNL     1      -0.672  -2.577   1.251  0.00  0.00    +0.037 C 
ATOM     16  C   UNL     1       0.761  -2.041   1.233  0.00  0.00    +0.137 C 
ATOM     17  C   UNL     1       0.735  -0.511   1.238  0.00  0.00    +0.040 C 
BRANCH  16  18
ATOM     18  C   UNL     1       1.497  -2.535   2.452  0.00  0.00    +0.379 C 
ATOM     19  O   UNL     1       2.499  -3.218   2.324  0.00  0.00    -0.244 OA
ATOM     20  O   UNL     1       1.091  -2.252   3.566  0.00  0.00    -0.244 OA
ENDBRANCH  16  18
ENDBRANCH   1  16
BRANCH   7  21
ATOM     21  N   UNL     1       5.509  -5.567  -3.470  0.00  0.00    +0.380 N 
ATOM     22  H   UNL     1       5.523  -6.529  -3.777  0.00  0.00    -0.090 HD
ATOM     23  H   UNL     1       5.845  -4.973  -4.213  0.00  0.00    -0.090 HD
ATOM     24  H   UNL     1       6.104  -5.464  -2.662  0.00  0.00    -0.090 HD
ENDBRANCH   7  21
TORSDOF 3
