REMARK  Name = ZINC14697658
REMARK  10 active torsions:
REMARK  status: ('A' for Active; 'I' for Inactive)
REMARK    1  A    between atoms: C_1  and  C_2
REMARK    2  A    between atoms: C_6  and  C_9
REMARK    3  A    between atoms: C_7  and  C_8
REMARK    4  A    between atoms: N_11  and  C_12
REMARK    5  A    between atoms: N_11  and  C_20
REMARK    6  A    between atoms: C_12  and  C_13
REMARK    7  A    between atoms: C_13  and  C_14
REMARK    8  A    between atoms: C_21  and  N_36
REMARK    9  A    between atoms: N_22  and  C_29
REMARK   10  A    between atoms: C_29  and  C_30
REMARK                            x       y       z     vdW  Elec       q    Type
REMARK                         _______ _______ _______ _____ _____    ______ ____
ROOT
ATOM      1  C   UNL     1       0.214   4.202   1.995  0.00  0.00    +0.251 C 
ATOM      2  O   UNL     1       0.103   5.401   2.165  0.00  0.00    -0.270 OA
ATOM      3  N   UNL     1      -0.688   3.542   1.242  0.00  0.00    -0.260 N 
ENDROOT
BRANCH   3   4
ATOM      4  C   UNL     1      -1.703   4.254   0.571  0.00  0.00    +0.140 A 
ATOM      5  C   UNL     1      -3.027   4.089   0.923  0.00  0.00    +0.128 A 
ATOM      6  N   UNL     1      -3.994   4.803   0.254  0.00  0.00    -0.276 N 
ATOM      7  C   UNL     1      -3.654   5.643  -0.741  0.00  0.00    +0.331 A 
ATOM      8  O   UNL     1      -4.524   6.260  -1.324  0.00  0.00    -0.246 OA
ATOM      9  N   UNL     1      -2.370   5.812  -1.101  0.00  0.00    -0.273 N 
ATOM     10  H   UNL     1      -2.144   6.443  -1.844  0.00  0.00    +0.173 HD
ATOM     11  C   UNL     1      -1.384   5.142  -0.474  0.00  0.00    +0.277 A 
ATOM     12  O   UNL     1      -0.222   5.303  -0.809  0.00  0.00    -0.266 OA
BRANCH   5  13
ATOM     13  N   UNL     1      -3.375   3.227   1.935  0.00  0.00    -0.343 N 
ATOM     14  H   UNL     1      -2.697   2.676   2.358  0.00  0.00    +0.144 HD
ATOM     15  H   UNL     1      -4.299   3.168   2.226  0.00  0.00    +0.144 HD
ENDBRANCH   5  13
BRANCH   6  16
ATOM     16  C   UNL     1      -5.403   4.642   0.621  0.00  0.00    +0.163 C 
BRANCH  16  17
ATOM     17  C   UNL     1      -6.010   3.526  -0.191  0.00  0.00    -0.028 A 
ATOM     18  C   UNL     1      -6.604   3.802  -1.408  0.00  0.00    +0.005 A 
ATOM     19  C   UNL     1      -7.156   2.778  -2.155  0.00  0.00    +0.000 A 
ATOM     20  C   UNL     1      -7.123   1.480  -1.680  0.00  0.00    +0.000 A 
ATOM     21  C   UNL     1      -6.534   1.206  -0.460  0.00  0.00    +0.000 A 
ATOM     22  C   UNL     1      -5.977   2.229   0.284  0.00  0.00    +0.005 A 
ENDBRANCH  16  17
ENDBRANCH   6  16
ENDBRANCH   3   4
BRANCH   1  28
ATOM     23  C   UNL     1       5.122   3.504   2.565  0.00  0.00    +0.044 C 
ATOM     24  C   UNL     1       3.699   3.129   2.892  0.00  0.00    -0.047 A 
ATOM     25  C   UNL     1       3.444   2.094   3.775  0.00  0.00    +0.003 A 
ATOM     26  C   UNL     1       2.141   1.743   4.080  0.00  0.00    +0.001 A 
ATOM     27  C   UNL     1       1.087   2.424   3.505  0.00  0.00    +0.013 A 
ATOM     28  C   UNL     1       1.338   3.469   2.615  0.00  0.00    +0.040 A 
ATOM     29  C   UNL     1       2.655   3.814   2.307  0.00  0.00    -0.035 A 
ATOM     30  C   UNL     1       2.935   4.937   1.342  0.00  0.00    +0.045 C 
ENDBRANCH   1  28
BRANCH   3  31
ATOM     31  C   UNL     1      -0.614   2.083   1.121  0.00  0.00    +0.118 C 
BRANCH  31  32
ATOM     32  C   UNL     1       0.190   1.716  -0.128  0.00  0.00    +0.050 C 
BRANCH  32  33
ATOM     33  C   UNL     1       0.266   0.216  -0.253  0.00  0.00    -0.072 C 
ATOM     34  C   UNL     1      -0.607  -0.376  -1.003  0.00  0.00    -0.028 C 
ATOM     35  C   UNL     1      -0.664  -1.860  -1.217  0.00  0.00    +0.027 C 
ATOM     36  C   UNL     1       0.659  -2.505  -0.795  0.00  0.00    +0.004 C 
ATOM     37  C   UNL     1       1.024  -1.991   0.603  0.00  0.00    +0.005 C 
ATOM     38  C   UNL     1       1.353  -0.498   0.496  0.00  0.00    +0.030 C 
ENDBRANCH  32  33
ENDBRANCH  31  32
ENDBRANCH   3  31
TORSDOF 8
