REMARK  Name = ZINC12845184
REMARK  4 active torsions:
REMARK  status: ('A' for Active; 'I' for Inactive)
REMARK    1  A    between atoms: C_1  and  C_2
REMARK    2  A    between atoms: C_5  and  C_25
REMARK    3  A    between atoms: C_10  and  C_12
REMARK    4  A    between atoms: N_14  and  C_15
REMARK                            x       y       z     vdW  Elec       q    Type
REMARK                         _______ _______ _______ _____ _____    ______ ____
ROOT
ATOM      1  C   UNL     1       2.284   0.039  -1.789  0.00  0.00    +0.028 C 
ATOM      2  C   UNL     1       2.478   0.262  -0.288  0.00  0.00    +0.072 C 
ATOM      3  C   UNL     1       1.384  -0.481   0.487  0.00  0.00    +0.054 C 
ATOM      4  C   UNL     1       0.003  -0.004   0.021  0.00  0.00    +0.178 C 
ATOM      5  N   UNL     1      -0.017   1.459   0.026  0.00  0.00    -0.224 N 
ATOM      6  C   UNL     1       1.095   2.239   0.025  0.00  0.00    +0.215 A 
ATOM      7  N   UNL     1       0.719   3.486   0.033  0.00  0.00    -0.189 NA
ATOM      8  C   UNL     1      -0.626   3.550   0.036  0.00  0.00    +0.238 A 
ATOM      9  N   UNL     1      -1.112   2.324   0.037  0.00  0.00    -0.143 NA
ATOM     10  N   UNL     1       2.376   1.702   0.016  0.00  0.00    -0.311 N 
ATOM     11  H   UNL     1       3.160   2.243   0.200  0.00  0.00    +0.149 HD
ENDROOT
BRANCH   8  12
ATOM     12  C   UNL     1      -1.427   4.792   0.043  0.00  0.00    +0.287 C 
ATOM     13  O   UNL     1      -2.641   4.732   0.045  0.00  0.00    -0.266 OA
ATOM     14  N   UNL     1      -0.812   5.991   0.047  0.00  0.00    -0.279 N 
ATOM     15  H   UNL     1       0.155   6.040   0.113  0.00  0.00    +0.155 HD
BRANCH  14  16
ATOM     16  C   UNL     1      -1.566   7.165  -0.044  0.00  0.00    +0.034 A 
ATOM     17  C   UNL     1      -2.816   7.238   0.559  0.00  0.00    +0.023 A 
ATOM     18  C   UNL     1      -3.556   8.399   0.467  0.00  0.00    +0.006 A 
ATOM     19  C   UNL     1      -3.059   9.492  -0.225  0.00  0.00    -0.044 A 
ATOM     20  C   UNL     1      -1.815   9.422  -0.827  0.00  0.00    -0.042 A 
ATOM     21  C   UNL     1      -1.067   8.261  -0.732  0.00  0.00    +0.027 A 
ATOM     22  C   UNL     1      -1.504  10.735  -1.513  0.00  0.00    +0.036 C 
ATOM     23  C   UNL     1      -2.488  11.754  -0.900  0.00  0.00    +0.009 C 
ATOM     24  C   UNL     1      -3.667  10.857  -0.467  0.00  0.00    +0.036 C 
ENDBRANCH  14  16
ENDBRANCH   8  12
BRANCH   4  25
ATOM     25  C   UNL     1      -1.071  -0.535   0.972  0.00  0.00    +0.365 C 
ATOM     26  F   UNL     1      -1.050  -1.933   0.966  0.00  0.00    -0.207 F 
ATOM     27  F   UNL     1      -0.818  -0.070   2.267  0.00  0.00    -0.207 F 
ENDBRANCH   4  25
TORSDOF 3
