REMARK  Name = ZINC39634573
REMARK  12 active torsions:
REMARK  status: ('A' for Active; 'I' for Inactive)
REMARK    1  A    between atoms: C_1  and  N_2
REMARK    2  A    between atoms: N_2  and  C_3
REMARK    3  A    between atoms: N_2  and  C_4
REMARK    4  A    between atoms: C_8  and  C_10
REMARK    5  A    between atoms: C_14  and  C_23
REMARK    6  A    between atoms: N_25  and  C_26
REMARK    7  A    between atoms: C_26  and  C_27
REMARK    8  A    between atoms: C_27  and  C_28
REMARK    9  A    between atoms: C_31  and  O_36
REMARK   10  A    between atoms: C_32  and  O_34
REMARK   11  A    between atoms: O_34  and  C_35
REMARK   12  A    between atoms: O_36  and  C_37
REMARK                            x       y       z     vdW  Elec       q    Type
REMARK                         _______ _______ _______ _____ _____    ______ ____
ROOT
ATOM      1  C   UNL     1      -0.035   0.045  -4.897  0.00  0.00    +0.247 C 
ATOM      2  O   UNL     1      -0.154   1.254  -4.899  0.00  0.00    -0.270 OA
ATOM      3  N   UNL     1       0.066  -0.625  -6.062  0.00  0.00    -0.296 N 
ATOM      4  C   UNL     1       0.088  -2.092  -6.268  0.00  0.00    +0.121 C 
ATOM      5  C   UNL     1      -0.755  -2.321  -7.543  0.00  0.00    +0.100 C 
ATOM      6  C   UNL     1      -0.691  -0.984  -8.300  0.00  0.00    -0.004 C 
ATOM      7  C   UNL     1       0.171  -0.059  -7.429  0.00  0.00    +0.115 C 
ATOM      8  C   UNL     1      -0.040  -1.181  -9.666  0.00  0.00    -0.010 C 
ATOM      9  C   UNL     1      -0.041   0.150 -10.424  0.00  0.00    -0.082 C 
ATOM     10  N   UNL     1      -1.420   0.625 -10.581  0.00  0.00    +0.379 N 
ATOM     11  C   UNL     1      -2.007   0.901  -9.264  0.00  0.00    -0.082 C 
ATOM     12  C   UNL     1      -2.091  -0.398  -8.458  0.00  0.00    -0.010 C 
ATOM     13  H   UNL     1      -1.423   1.470 -11.133  0.00  0.00    -0.086 HD
ATOM     14  H   UNL     1      -1.967  -0.081 -11.050  0.00  0.00    -0.086 HD
ENDROOT
BRANCH   1  19
ATOM     15  C   UNL     1      -0.553  -0.843  -1.279  0.00  0.00    +0.030 A 
ATOM     16  C   UNL     1       0.073  -2.083  -1.216  0.00  0.00    +0.023 A 
ATOM     17  C   UNL     1       0.659  -2.624  -2.344  0.00  0.00    +0.003 A 
ATOM     18  C   UNL     1       0.627  -1.938  -3.541  0.00  0.00    +0.013 A 
ATOM     19  C   UNL     1       0.001  -0.693  -3.615  0.00  0.00    +0.039 A 
ATOM     20  C   UNL     1      -0.596  -0.148  -2.478  0.00  0.00    +0.036 A 
BRANCH  15  22
ATOM     21  C   UNL     1      -1.810   1.004  -0.204  0.00  0.00    +0.129 C 
ATOM     22  N   UNL     1      -1.145  -0.300  -0.136  0.00  0.00    -0.336 N 
ATOM     23  C   UNL     1      -1.100  -1.034   1.131  0.00  0.00    +0.129 C 
ENDBRANCH  15  22
ENDBRANCH   1  19
BRANCH   5  24
ATOM     24  C   UNL     1      -0.159  -3.427  -8.374  0.00  0.00    +0.218 C 
ATOM     25  O   UNL     1       1.023  -3.684  -8.285  0.00  0.00    -0.275 OA
ATOM     26  N   UNL     1      -0.939  -4.131  -9.218  0.00  0.00    -0.315 N 
ATOM     27  H   UNL     1      -1.885  -3.926  -9.289  0.00  0.00    +0.149 HD
BRANCH  26  28
ATOM     28  C   UNL     1      -0.360  -5.207 -10.026  0.00  0.00    +0.109 C 
BRANCH  28  29
ATOM     29  C   UNL     1      -1.452  -5.840 -10.890  0.00  0.00    +0.054 C 
BRANCH  29  30
ATOM     30  C   UNL     1      -0.857  -6.947 -11.722  0.00  0.00    -0.042 A 
ATOM     31  C   UNL     1      -0.342  -6.667 -12.975  0.00  0.00    +0.007 A 
ATOM     32  C   UNL     1       0.206  -7.679 -13.741  0.00  0.00    +0.049 A 
ATOM     33  C   UNL     1       0.240  -8.976 -13.255  0.00  0.00    +0.161 A 
ATOM     34  C   UNL     1      -0.277  -9.257 -11.994  0.00  0.00    +0.162 A 
ATOM     35  C   UNL     1      -0.821  -8.237 -11.229  0.00  0.00    +0.053 A 
BRANCH  34  36
ATOM     36  O   UNL     1      -0.246 -10.528 -11.512  0.00  0.00    -0.491 OA
ATOM     37  C   UNL     1      -0.795 -10.742 -10.211  0.00  0.00    +0.277 C 
ENDBRANCH  34  36
BRANCH  33  38
ATOM     38  O   UNL     1       0.778  -9.972 -14.008  0.00  0.00    -0.491 OA
ATOM     39  C   UNL     1       1.290  -9.610 -15.292  0.00  0.00    +0.277 C 
ENDBRANCH  33  38
ENDBRANCH  29  30
ENDBRANCH  28  29
ENDBRANCH  26  28
ENDBRANCH   5  24
TORSDOF 8
