REMARK  Name = ZINC05123669
REMARK  9 active torsions:
REMARK  status: ('A' for Active; 'I' for Inactive)
REMARK    1  A    between atoms: C_1  and  C_2
REMARK    2  A    between atoms: C_2  and  C_3
REMARK    3  A    between atoms: C_3  and  C_4
REMARK    4  A    between atoms: C_4  and  N_5
REMARK    5  A    between atoms: N_5  and  C_6
REMARK    6  A    between atoms: N_9  and  C_10
REMARK    7  A    between atoms: N_15  and  C_17
REMARK    8  A    between atoms: C_20  and  C_24
REMARK    9  A    between atoms: C_21  and  C_23
REMARK                            x       y       z     vdW  Elec       q    Type
REMARK                         _______ _______ _______ _____ _____    ______ ____
ROOT
ATOM      1  C   UNL     1      -4.752   0.576  -0.342  0.00  0.00    +0.101 C 
ATOM      2  C   UNL     1      -3.967  -0.725  -0.057  0.00  0.00    +0.120 C 
ATOM      3  C   UNL     1      -2.516  -0.297  -0.084  0.00  0.00    +0.222 C 
ATOM      4  O   UNL     1      -1.571  -1.050  -0.183  0.00  0.00    -0.275 OA
ATOM      5  N   UNL     1      -2.427   1.041   0.019  0.00  0.00    -0.270 N 
ATOM      6  C   UNL     1      -3.755   1.655   0.140  0.00  0.00    +0.136 C 
ENDROOT
BRANCH   5   7
ATOM      7  C   UNL     1      -1.224   1.754   0.017  0.00  0.00    +0.037 A 
ATOM      8  C   UNL     1      -1.238   3.143   0.014  0.00  0.00    +0.024 A 
ATOM      9  C   UNL     1      -0.049   3.845   0.007  0.00  0.00    +0.005 A 
ATOM     10  C   UNL     1       1.156   3.166   0.007  0.00  0.00    -0.047 A 
ATOM     11  C   UNL     1       1.174   1.783   0.016  0.00  0.00    -0.046 A 
ATOM     12  C   UNL     1      -0.013   1.076   0.023  0.00  0.00    +0.027 A 
ATOM     13  C   UNL     1       2.489   1.048   0.017  0.00  0.00    +0.044 C 
ATOM     14  C   UNL     1       2.452   3.934  -0.002  0.00  0.00    +0.044 C 
ENDBRANCH   5   7
BRANCH   1  19
ATOM     15  N   UNL     1      -8.249   0.092   0.686  0.00  0.00    -0.289 N 
ATOM     16  C   UNL     1      -8.267   0.765   1.987  0.00  0.00    +0.133 C 
ATOM     17  C   UNL     1      -7.111   0.049  -0.035  0.00  0.00    +0.302 C 
ATOM     18  O   UNL     1      -7.097  -0.509  -1.115  0.00  0.00    -0.253 OA
ATOM     19  N   UNL     1      -5.989   0.624   0.442  0.00  0.00    -0.294 N 
ATOM     20  H   UNL     1      -6.001   1.069   1.304  0.00  0.00    +0.151 HD
BRANCH  15  21
ATOM     21  C   UNL     1      -9.469  -0.532   0.167  0.00  0.00    +0.109 C 
BRANCH  21  22
ATOM     22  C   UNL     1      -9.533  -1.989   0.632  0.00  0.00    +0.019 C 
BRANCH  22  24
ATOM     23  C   UNL     1     -10.870  -4.098   0.555  0.00  0.00    +0.004 C 
ATOM     24  C   UNL     1     -10.806  -2.641   0.091  0.00  0.00    -0.002 C 
ENDBRANCH  22  24
ENDBRANCH  21  22
ENDBRANCH  15  21
ENDBRANCH   1  19
TORSDOF 5
