REMARK  Name = ZINC43541073
REMARK  8 active torsions:
REMARK  status: ('A' for Active; 'I' for Inactive)
REMARK    1  A    between atoms: C_1  and  C_2
REMARK    2  A    between atoms: C_2  and  C_3
REMARK    3  A    between atoms: C_3  and  C_5
REMARK    4  A    between atoms: C_3  and  N_8
REMARK    5  A    between atoms: C_5  and  N_7
REMARK    6  A    between atoms: C_9  and  C_15
REMARK    7  A    between atoms: C_10  and  C_14
REMARK    8  A    between atoms: C_11  and  C_13
REMARK                            x       y       z     vdW  Elec       q    Type
REMARK                         _______ _______ _______ _____ _____    ______ ____
ROOT
ATOM      1  C   UNL     1      -1.394  -0.643  -0.030  0.00  0.00    +0.158 C 
ENDROOT
BRANCH   1   2
ATOM      2  N   UNL     1      -1.321  -2.092   0.172  0.00  0.00    -0.259 N 
ATOM      3  C   UNL     1      -1.896  -2.783   1.178  0.00  0.00    +0.040 A 
ATOM      4  C   UNL     1      -1.593  -4.091   1.006  0.00  0.00    -0.007 A 
ATOM      5  C   UNL     1      -0.806  -4.202  -0.145  0.00  0.00    +0.063 A 
ATOM      6  N   UNL     1      -0.647  -3.005  -0.649  0.00  0.00    -0.175 NA
ATOM      7  C   UNL     1      -0.243  -5.481  -0.710  0.00  0.00    +0.068 C 
ATOM      8  C   UNL     1      -2.026  -5.226   1.897  0.00  0.00    +0.047 C 
ATOM      9  C   UNL     1      -2.727  -2.203   2.294  0.00  0.00    +0.065 C 
ENDBRANCH   1   2
BRANCH   1  11
ATOM     10  C   UNL     1       0.623  -0.227   1.385  0.00  0.00    +0.006 C 
ATOM     11  C   UNL     1       0.017  -0.053  -0.009  0.00  0.00    +0.030 C 
ENDBRANCH   1  11
BRANCH   1  12
ATOM     12  C   UNL     1      -2.040  -0.353  -1.360  0.00  0.00    +0.071 C 
ATOM     13  S   UNL     1      -2.360  -1.549  -2.372  0.00  0.00    -0.038 S 
BRANCH  12  14
ATOM     14  N   UNL     1      -2.349   0.915  -1.698  0.00  0.00    -0.354 N 
ATOM     15  H   UNL     1      -2.219   1.633  -1.058  0.00  0.00    +0.143 HD
ATOM     16  H   UNL     1      -2.702   1.110  -2.580  0.00  0.00    +0.143 HD
ENDBRANCH  12  14
ENDBRANCH   1  12
TORSDOF 4
