REMARK  Name = ZINC04933168
REMARK  4 active torsions:
REMARK  status: ('A' for Active; 'I' for Inactive)
REMARK    1  A    between atoms: C_1  and  C_2
REMARK    2  A    between atoms: C_7  and  C_8
REMARK    3  A    between atoms: C_14  and  S_21
REMARK    4  A    between atoms: S_21  and  N_24
REMARK                            x       y       z     vdW  Elec       q    Type
REMARK                         _______ _______ _______ _____ _____    ______ ____
ROOT
ATOM      1  C   UNL     1       2.221   4.252   0.253  0.00  0.00    +0.191 C 
ATOM      2  N   UNL     1       3.254   3.635   1.081  0.00  0.00    -0.322 N 
ATOM      3  C   UNL     1       3.115   3.431   2.451  0.00  0.00    +0.057 A 
ATOM      4  C   UNL     1       3.903   2.460   3.069  0.00  0.00    +0.047 A 
ATOM      5  C   UNL     1       3.801   2.245   4.428  0.00  0.00    +0.069 A 
ATOM      6  C   UNL     1       2.918   2.993   5.189  0.00  0.00    +0.125 A 
ATOM      7  C   UNL     1       2.129   3.953   4.581  0.00  0.00    +0.060 A 
ATOM      8  C   UNL     1       2.223   4.164   3.221  0.00  0.00    +0.128 A 
ATOM      9  S   UNL     1       1.184   5.365   2.444  0.00  0.00    +0.062 S 
ATOM     10  O   UNL     1      -0.109   4.786   2.334  0.00  0.00    -0.153 OA
ATOM     11  O   UNL     1       1.421   6.604   3.099  0.00  0.00    -0.153 OA
ATOM     12  N   UNL     1       1.787   5.509   0.896  0.00  0.00    -0.166 NA
ATOM     13 CL   UNL     1       4.785   1.033   5.188  0.00  0.00    -0.081 Cl
ATOM     14  H   UNL     1       4.079   3.354   0.655  0.00  0.00    +0.148 HD
ATOM     15  H   UNL     1       1.849   6.366   0.445  0.00  0.00    +0.150 HD
ENDROOT
BRANCH   1  22
ATOM     16  C   UNL     1       0.435   4.467  -2.008  0.00  0.00    +0.044 C 
ATOM     17  C   UNL     1       0.192   3.419  -0.953  0.00  0.00    -0.044 A 
ATOM     18  C   UNL     1      -0.885   2.560  -1.067  0.00  0.00    +0.004 A 
ATOM     19  C   UNL     1      -1.111   1.603  -0.096  0.00  0.00    +0.000 A 
ATOM     20  C   UNL     1      -0.254   1.497   0.984  0.00  0.00    +0.000 A 
ATOM     21  C   UNL     1       0.823   2.355   1.097  0.00  0.00    +0.007 A 
ATOM     22  C   UNL     1       1.046   3.316   0.129  0.00  0.00    -0.009 A 
ENDBRANCH   1  22
BRANCH   6  23
ATOM     23  S   UNL     1       2.800   2.722   6.926  0.00  0.00    +0.057 S 
ATOM     24  O   UNL     1       4.129   2.723   7.428  0.00  0.00    -0.153 OA
ATOM     25  O   UNL     1       1.803   3.612   7.408  0.00  0.00    -0.153 OA
BRANCH  23  26
ATOM     26  N   UNL     1       2.212   1.189   7.143  0.00  0.00    -0.203 NA
ATOM     27  H   UNL     1       2.461   0.682   7.932  0.00  0.00    +0.144 HD
ATOM     28  H   UNL     1       1.619   0.799   6.483  0.00  0.00    +0.144 HD
ENDBRANCH  23  26
ENDBRANCH   6  23
TORSDOF 3
