REMARK  Name = ZINC09867887
REMARK  5 active torsions:
REMARK  status: ('A' for Active; 'I' for Inactive)
REMARK    1  A    between atoms: C_1  and  C_2
REMARK    2  A    between atoms: N_11  and  C_15
REMARK    3  A    between atoms: C_15  and  N_63
REMARK    4  A    between atoms: N_18  and  C_21
REMARK    5  A    between atoms: N_24  and  C_29
REMARK                            x       y       z     vdW  Elec       q    Type
REMARK                         _______ _______ _______ _____ _____    ______ ____
ROOT
ATOM      1  C   UNL     1       0.150   0.061   0.644  0.00  0.00    -0.057 C 
ATOM      2  C   UNL     1       0.171   1.586   0.772  0.00  0.00    +0.086 C 
ATOM      3  N   UNL     1       1.370   2.115   0.108  0.00  0.00    -0.331 N 
ATOM      4  C   UNL     1       2.590   1.558   0.709  0.00  0.00    +0.086 C 
ATOM      5  C   UNL     1       2.569   0.034   0.581  0.00  0.00    -0.057 C 
ATOM      6  N   UNL     1       1.371  -0.486   1.272  0.00  0.00    +0.392 N 
ATOM      7  H   UNL     1       1.400  -0.195   2.256  0.00  0.00    -0.079 HD
ENDROOT
BRANCH   3   8
ATOM      8  C   UNL     1       1.387   3.500   0.142  0.00  0.00    +0.074 A 
ATOM      9  C   UNL     1       1.427   4.181   1.377  0.00  0.00    +0.158 A 
ATOM     10  N   UNL     1       1.448   5.484   1.411  0.00  0.00    -0.170 NA
ATOM     11  N   UNL     1       1.420   6.237   0.232  0.00  0.00    -0.195 N 
ATOM     12  C   UNL     1       1.377   5.628  -0.969  0.00  0.00    +0.292 A 
ATOM     13  O   UNL     1       1.352   6.291  -1.994  0.00  0.00    -0.264 OA
ATOM     14  C   UNL     1       1.359   4.227  -1.034  0.00  0.00    +0.129 A 
ATOM     15 CL   UNL     1       1.304   3.418  -2.569  0.00  0.00    -0.076 Cl
BRANCH  11  16
ATOM     16  C   UNL     1       1.438   7.635   0.301  0.00  0.00    +0.069 A 
ATOM     17  C   UNL     1       2.326   8.359  -0.484  0.00  0.00    +0.028 A 
ATOM     18  C   UNL     1       2.336   9.738  -0.419  0.00  0.00    +0.002 A 
ATOM     19  C   UNL     1       1.472  10.398   0.436  0.00  0.00    +0.000 A 
ATOM     20  C   UNL     1       0.591   9.680   1.224  0.00  0.00    +0.002 A 
ATOM     21  C   UNL     1       0.571   8.300   1.158  0.00  0.00    +0.028 A 
ENDBRANCH  11  16
ENDBRANCH   3   8
BRANCH   6  22
ATOM     22  C   UNL     1       1.352  -1.964   1.209  0.00  0.00    +0.043 C 
BRANCH  22  32
ATOM     23  C   UNL     1       3.875  -5.427   2.351  0.00  0.00    +0.010 C 
ATOM     24  C   UNL     1       5.031  -4.476   2.668  0.00  0.00    +0.018 C 
ATOM     25  C   UNL     1       5.125  -4.275   4.182  0.00  0.00    +0.006 C 
ATOM     26  C   UNL     1       6.268  -3.308   4.497  0.00  0.00    +0.000 C 
ATOM     27  C   UNL     1       5.995  -1.959   3.829  0.00  0.00    +0.003 C 
ATOM     28  C   UNL     1       5.904  -2.151   2.313  0.00  0.00    +0.035 C 
ATOM     29  C   UNL     1       4.784  -3.134   1.988  0.00  0.00    +0.115 C 
ATOM     30  C   UNL     1       3.449  -2.563   2.406  0.00  0.00    +0.245 C 
ATOM     31  O   UNL     1       3.100  -2.256   3.526  0.00  0.00    -0.273 OA
ATOM     32  N   UNL     1       2.725  -2.470   1.271  0.00  0.00    -0.241 N 
ATOM     33  C   UNL     1       3.420  -2.893   0.208  0.00  0.00    +0.308 C 
ATOM     34  O   UNL     1       2.982  -2.902  -0.926  0.00  0.00    -0.252 OA
ATOM     35  N   UNL     1       4.659  -3.308   0.535  0.00  0.00    -0.285 N 
ATOM     36  H   UNL     1       5.334  -3.654  -0.069  0.00  0.00    +0.151 HD
ENDBRANCH  22  32
ENDBRANCH   6  22
TORSDOF 4
