REMARK  Name = ZINC45694693
REMARK  11 active torsions:
REMARK  status: ('A' for Active; 'I' for Inactive)
REMARK    1  A    between atoms: C_1  and  N_2
REMARK    2  A    between atoms: N_2  and  C_3
REMARK    3  A    between atoms: N_2  and  C_4
REMARK    4  A    between atoms: C_7  and  C_10
REMARK    5  A    between atoms: C_10  and  C_11
REMARK    6  A    between atoms: C_11  and  C_12
REMARK    7  A    between atoms: C_12  and  N_13
REMARK    8  A    between atoms: N_16  and  C_17
REMARK    9  A    between atoms: C_22  and  S_23
REMARK   10  A    between atoms: S_23  and  C_24
REMARK   11  A    between atoms: C_24  and  C_25
REMARK                            x       y       z     vdW  Elec       q    Type
REMARK                         _______ _______ _______ _____ _____    ______ ____
ROOT
ATOM      1  N   UNL     1      -2.832  -4.108  -7.093  0.00  0.00    -0.299 N 
ATOM      2  C   UNL     1      -3.080  -4.757  -8.248  0.00  0.00    +0.304 C 
ATOM      3  O   UNL     1      -2.158  -5.137  -8.943  0.00  0.00    -0.253 OA
ATOM      4  N   UNL     1      -4.352  -4.986  -8.632  0.00  0.00    -0.268 N 
ATOM      5  H   UNL     1      -3.568  -3.805  -6.539  0.00  0.00    +0.150 HD
ATOM      6  H   UNL     1      -5.087  -4.742  -8.048  0.00  0.00    +0.156 HD
ENDROOT
BRANCH   4   7
ATOM      7  C   UNL     1      -4.612  -5.577  -9.876  0.00  0.00    +0.048 A 
ATOM      8  C   UNL     1      -3.749  -6.535 -10.386  0.00  0.00    +0.024 A 
ATOM      9  C   UNL     1      -4.007  -7.117 -11.613  0.00  0.00    +0.002 A 
ATOM     10  C   UNL     1      -5.126  -6.746 -12.337  0.00  0.00    +0.001 A 
ATOM     11  C   UNL     1      -5.993  -5.792 -11.837  0.00  0.00    +0.016 A 
ATOM     12  C   UNL     1      -5.744  -5.208 -10.603  0.00  0.00    +0.030 A 
BRANCH  12  13
ATOM     13  S   UNL     1      -6.851  -3.997  -9.960  0.00  0.00    -0.114 S 
BRANCH  13  14
ATOM     14  C   UNL     1      -8.136  -3.857 -11.232  0.00  0.00    +0.169 C 
BRANCH  14  15
ATOM     15  C   UNL     1      -9.161  -2.840 -10.802  0.00  0.00    +0.221 C 
ATOM     16  O   UNL     1      -9.037  -2.265  -9.741  0.00  0.00    -0.275 OA
ATOM     17  N   UNL     1     -10.216  -2.568 -11.595  0.00  0.00    -0.329 N 
ATOM     18  H   UNL     1     -10.316  -3.028 -12.444  0.00  0.00    +0.145 HD
ATOM     19  H   UNL     1     -10.876  -1.913 -11.318  0.00  0.00    +0.145 HD
ENDBRANCH  14  15
ENDBRANCH  13  14
ENDBRANCH  12  13
ENDBRANCH   4   7
BRANCH   1  20
ATOM     20  C   UNL     1      -1.450  -3.859  -6.676  0.00  0.00    +0.106 C 
BRANCH  20  21
ATOM     21  C   UNL     1      -1.448  -3.111  -5.341  0.00  0.00    +0.023 C 
BRANCH  21  22
ATOM     22  C   UNL     1      -0.004  -2.851  -4.904  0.00  0.00    +0.036 C 
BRANCH  22  26
ATOM     23  C   UNL     1       0.004  -0.763  -1.176  0.00  0.00    +0.029 A 
ATOM     24  C   UNL     1       0.014  -2.152  -1.196  0.00  0.00    +0.023 A 
ATOM     25  C   UNL     1       0.011  -2.823  -2.402  0.00  0.00    +0.005 A 
ATOM     26  C   UNL     1      -0.002  -2.115  -3.590  0.00  0.00    -0.047 A 
ATOM     27  C   UNL     1      -0.011  -0.732  -3.574  0.00  0.00    +0.005 A 
ATOM     28  C   UNL     1      -0.014  -0.054  -2.370  0.00  0.00    +0.023 A 
BRANCH  23  30
ATOM     29  C   UNL     1      -0.009   1.385   0.062  0.00  0.00    +0.129 C 
ATOM     30  N   UNL     1       0.007  -0.080   0.043  0.00  0.00    -0.336 N 
ATOM     31  C   UNL     1       0.026  -0.829   1.302  0.00  0.00    +0.129 C 
ENDBRANCH  23  30
ENDBRANCH  22  26
ENDBRANCH  21  22
ENDBRANCH  20  21
ENDBRANCH   1  20
TORSDOF 9
