REMARK  Name = ZINC20629417
REMARK  5 active torsions:
REMARK  status: ('A' for Active; 'I' for Inactive)
REMARK    1  A    between atoms: C_6  and  C_7
REMARK    2  A    between atoms: C_10  and  C_12
REMARK    3  A    between atoms: N_14  and  N_15
REMARK    4  A    between atoms: N_15  and  S_16
REMARK    5  A    between atoms: S_16  and  C_19
REMARK                            x       y       z     vdW  Elec       q    Type
REMARK                         _______ _______ _______ _____ _____    ______ ____
ROOT
ATOM      1  C   UNL     1      -1.839   4.710  -2.071  0.00  0.00    +0.265 C 
ATOM      2  O   UNL     1      -1.509   5.863  -2.278  0.00  0.00    -0.268 OA
ATOM      3  N   UNL     1      -0.929   3.816  -1.635  0.00  0.00    -0.227 N 
ATOM      4  H   UNL     1      -1.228   2.774  -1.448  0.00  0.00    +0.171 HD
ENDROOT
BRANCH   1   8
ATOM      5  C   UNL     1      -5.628   3.094  -2.570  0.00  0.00    +0.020 A 
ATOM      6  C   UNL     1      -5.517   4.441  -2.877  0.00  0.00    +0.017 A 
ATOM      7  C   UNL     1      -4.303   5.050  -2.734  0.00  0.00    +0.021 A 
ATOM      8  C   UNL     1      -3.225   4.293  -2.297  0.00  0.00    +0.076 A 
ATOM      9  S   UNL     1      -3.963   2.683  -2.074  0.00  0.00    -0.084 S 
BRANCH   5  15
ATOM     10  C   UNL     1      -8.046   2.742  -3.051  0.00  0.00    +0.012 A 
ATOM     11  C   UNL     1      -9.153   1.923  -3.115  0.00  0.00    +0.039 A 
ATOM     12  C   UNL     1      -9.051   0.586  -2.761  0.00  0.00    +0.123 A 
ATOM     13  C   UNL     1      -7.836   0.065  -2.345  0.00  0.00    +0.039 A 
ATOM     14  C   UNL     1      -6.721   0.875  -2.281  0.00  0.00    +0.012 A 
ATOM     15  C   UNL     1      -6.819   2.222  -2.637  0.00  0.00    -0.011 A 
ATOM     16  F   UNL     1     -10.140  -0.211  -2.822  0.00  0.00    -0.205 F 
ENDBRANCH   5  15
ENDBRANCH   1   8
BRANCH   3  17
ATOM     17  N   UNL     1       0.396   4.214  -1.419  0.00  0.00    -0.108 NA
ATOM     18  H   UNL     1       0.900   4.632  -2.135  0.00  0.00    +0.172 HD
BRANCH  17  19
ATOM     19  S   UNL     1       1.103   3.972   0.059  0.00  0.00    +0.075 S 
ATOM     20  O   UNL     1       2.384   4.586   0.003  0.00  0.00    -0.152 OA
ATOM     21  O   UNL     1       0.931   2.596   0.370  0.00  0.00    -0.152 OA
BRANCH  19  22
ATOM     22  C   UNL     1       0.162   4.877   1.242  0.00  0.00    +0.126 A 
ATOM     23  C   UNL     1      -0.518   4.208   2.242  0.00  0.00    +0.050 A 
ATOM     24  C   UNL     1      -1.257   4.919   3.170  0.00  0.00    +0.043 A 
ATOM     25  C   UNL     1      -1.316   6.300   3.098  0.00  0.00    +0.021 A 
ATOM     26  C   UNL     1      -0.636   6.968   2.098  0.00  0.00    +0.023 A 
ATOM     27  C   UNL     1       0.104   6.257   1.169  0.00  0.00    +0.067 A 
ATOM     28 CL   UNL     1       0.952   7.097  -0.091  0.00  0.00    -0.082 Cl
ATOM     29 CL   UNL     1      -2.112   4.079   4.427  0.00  0.00    -0.083 Cl
ENDBRANCH  19  22
ENDBRANCH  17  19
ENDBRANCH   3  17
TORSDOF 5
