REMARK  Name = ZINC42439650
REMARK  7 active torsions:
REMARK  status: ('A' for Active; 'I' for Inactive)
REMARK    1  A    between atoms: C_1  and  C_2
REMARK    2  A    between atoms: C_2  and  C_3
REMARK    3  A    between atoms: C_3  and  CA_4
REMARK    4  A    between atoms: CA_4  and  C_6
REMARK    5  A    between atoms: CA_4  and  N_9
REMARK    6  A    between atoms: C_14  and  C_21
REMARK    7  A    between atoms: C_18  and  C_20
REMARK                            x       y       z     vdW  Elec       q    Type
REMARK                         _______ _______ _______ _____ _____    ______ ____
ROOT
ATOM      1  N   UNL     1       1.063  -2.197  -0.481  0.00  0.00    -0.286 N 
ATOM      2  C   UNL     1       1.004  -3.509  -0.783  0.00  0.00    +0.303 C 
ATOM      3  O   UNL     1       0.237  -4.237  -0.183  0.00  0.00    -0.253 OA
ATOM      4  N   UNL     1       1.794  -4.014  -1.751  0.00  0.00    -0.282 N 
ATOM      5  C   UNL     1       2.816  -3.177  -2.395  0.00  0.00    +0.122 C 
ATOM      6  C   UNL     1       2.614  -3.232  -3.913  0.00  0.00    +0.092 C 
ATOM      7  C   UNL     1       2.617  -4.693  -4.371  0.00  0.00    +0.016 C 
ATOM      8  C   UNL     1       1.462  -5.441  -3.702  0.00  0.00    +0.023 C 
ATOM      9  C   UNL     1       1.655  -5.412  -2.178  0.00  0.00    +0.074 C 
ATOM     10  C   UNL     1       0.439  -6.039  -1.493  0.00  0.00    +0.028 C 
ATOM     11  H   UNL     1       1.725  -1.630  -0.907  0.00  0.00    +0.151 HD
ENDROOT
BRANCH   6  12
ATOM     12  C   UNL     1       3.732  -2.488  -4.597  0.00  0.00    +0.215 C 
ATOM     13  O   UNL     1       4.458  -3.067  -5.376  0.00  0.00    -0.276 OA
ATOM     14  N   UNL     1       3.924  -1.178  -4.342  0.00  0.00    -0.329 N 
ATOM     15  H   UNL     1       3.342  -0.715  -3.718  0.00  0.00    +0.145 HD
ATOM     16  H   UNL     1       4.643  -0.699  -4.782  0.00  0.00    +0.145 HD
ENDBRANCH   6  12
BRANCH   1  17
ATOM     17  CA  UNL     1       0.128  -1.627   0.492  0.00  0.00    +0.187 C 
BRANCH  17  18
ATOM     18  C   UNL     1       0.669  -1.825   1.885  0.00  0.00    +0.376 C 
ATOM     19  O   UNL     1      -0.035  -1.588   2.852  0.00  0.00    -0.244 OA
ATOM     20  OXT UNL     1       1.811  -2.221   2.044  0.00  0.00    -0.244 OA
ENDBRANCH  17  18
BRANCH  17  21
ATOM     21  C   UNL     1      -0.043  -0.131   0.219  0.00  0.00    +0.034 C 
BRANCH  21  23
ATOM     22  C   UNL     1      -0.879   1.562  -1.418  0.00  0.00    +0.004 C 
ATOM     23  C   UNL     1      -0.708   0.066  -1.145  0.00  0.00    -0.001 C 
ENDBRANCH  21  23
ENDBRANCH  17  21
ENDBRANCH   1  17
TORSDOF 5
