REMARK  Name = ZINC21383938
REMARK  9 active torsions:
REMARK  status: ('A' for Active; 'I' for Inactive)
REMARK    1  A    between atoms: C_1  and  C_2
REMARK    2  A    between atoms: C_2  and  N_3
REMARK    3  A    between atoms: N_3  and  C_4
REMARK    4  A    between atoms: N_3  and  C_17
REMARK    5  A    between atoms: C_4  and  C_5
REMARK    6  A    between atoms: C_13  and  C_16
REMARK    7  A    between atoms: C_18  and  N_33
REMARK    8  A    between atoms: N_19  and  C_26
REMARK    9  A    between atoms: C_26  and  C_27
REMARK                            x       y       z     vdW  Elec       q    Type
REMARK                         _______ _______ _______ _____ _____    ______ ____
ROOT
ATOM      1  C   UNL     1       1.983  -6.078   1.343  0.00  0.00    +0.134 A 
ATOM      2  C   UNL     1       2.691  -6.594   2.394  0.00  0.00    +0.127 A 
ATOM      3  N   UNL     1       2.845  -7.958   2.498  0.00  0.00    -0.276 N 
ATOM      4  C   UNL     1       2.315  -8.776   1.571  0.00  0.00    +0.331 A 
ATOM      5  O   UNL     1       2.465  -9.978   1.676  0.00  0.00    -0.246 OA
ATOM      6  N   UNL     1       1.621  -8.284   0.528  0.00  0.00    -0.273 N 
ATOM      7  H   UNL     1       1.194  -8.969  -0.220  0.00  0.00    +0.173 HD
ATOM      8  C   UNL     1       1.440  -6.956   0.388  0.00  0.00    +0.277 A 
ATOM      9  O   UNL     1       0.810  -6.519  -0.560  0.00  0.00    -0.266 OA
ENDROOT
BRANCH   2  10
ATOM     10  N   UNL     1       3.239  -5.759   3.340  0.00  0.00    -0.343 N 
ATOM     11  H   UNL     1       3.807  -6.180   4.183  0.00  0.00    +0.144 HD
ATOM     12  H   UNL     1       3.109  -4.670   3.254  0.00  0.00    +0.144 HD
ENDBRANCH   2  10
BRANCH   1  13
ATOM     13  N   UNL     1       1.806  -4.680   1.215  0.00  0.00    -0.318 N 
BRANCH  13  15
ATOM     14  C   UNL     1      -0.116  -4.621   2.732  0.00  0.00    +0.024 C 
ATOM     15  C   UNL     1       0.386  -4.319   1.319  0.00  0.00    +0.102 C 
ENDBRANCH  13  15
BRANCH  13  16
ATOM     16  C   UNL     1       2.383  -4.189  -0.043  0.00  0.00    +0.160 C 
BRANCH  16  17
ATOM     17  C   UNL     1       2.397  -2.682  -0.035  0.00  0.00    +0.066 A 
ATOM     18  C   UNL     1       3.600  -2.003  -0.043  0.00  0.00    +0.095 A 
ATOM     19  C   UNL     1       3.587  -0.603  -0.035  0.00  0.00    +0.259 A 
ATOM     20  O   UNL     1       4.633   0.026  -0.041  0.00  0.00    -0.267 OA
ATOM     21  N   UNL     1       2.400   0.039  -0.021  0.00  0.00    -0.268 N 
ATOM     22  C   UNL     1       2.370   1.401  -0.013  0.00  0.00    +0.096 A 
ATOM     23  C   UNL     1       1.194   2.067   0.002  0.00  0.00    +0.019 A 
ATOM     24  C   UNL     1      -0.016   1.359   0.009  0.00  0.00    +0.008 A 
ATOM     25  C   UNL     1       0.002  -0.004   0.002  0.00  0.00    -0.008 A 
ATOM     26  C   UNL     1       1.236  -0.679  -0.013  0.00  0.00    +0.143 A 
ATOM     27  N   UNL     1       1.256  -2.011  -0.021  0.00  0.00    -0.232 NA
ATOM     28  C   UNL     1      -1.289  -0.781   0.010  0.00  0.00    +0.047 C 
ENDBRANCH  16  17
ENDBRANCH  13  16
ENDBRANCH   1  13
BRANCH   3  29
ATOM     29  C   UNL     1       3.597  -8.522   3.622  0.00  0.00    +0.163 C 
BRANCH  29  30
ATOM     30  C   UNL     1       5.053  -8.632   3.248  0.00  0.00    -0.028 A 
ATOM     31  C   UNL     1       5.529  -9.787   2.657  0.00  0.00    +0.005 A 
ATOM     32  C   UNL     1       6.863  -9.887   2.310  0.00  0.00    +0.000 A 
ATOM     33  C   UNL     1       7.723  -8.835   2.563  0.00  0.00    +0.000 A 
ATOM     34  C   UNL     1       7.248  -7.681   3.159  0.00  0.00    +0.000 A 
ATOM     35  C   UNL     1       5.913  -7.580   3.502  0.00  0.00    +0.005 A 
ENDBRANCH  29  30
ENDBRANCH   3  29
TORSDOF 7
