REMARK  Name = ZINC46056494
REMARK  7 active torsions:
REMARK  status: ('A' for Active; 'I' for Inactive)
REMARK    1  A    between atoms: C_1  and  C_2
REMARK    2  A    between atoms: C_5  and  C_9
REMARK    3  A    between atoms: C_6  and  C_8
REMARK    4  A    between atoms: C_9  and  C_11
REMARK    5  A    between atoms: C_19  and  C_30
REMARK    6  A    between atoms: N_21  and  C_22
REMARK    7  A    between atoms: C_25  and  C_29
REMARK                            x       y       z     vdW  Elec       q    Type
REMARK                         _______ _______ _______ _____ _____    ______ ____
ROOT
ATOM      1  C   UNL     1       0.738  -5.022  -1.017  0.00  0.00    +0.104 C 
ATOM      2  C   UNL     1      -0.638  -5.503  -1.488  0.00  0.00    +0.112 C 
ATOM      3  C   UNL     1      -1.150  -6.618  -0.620  0.00  0.00    +0.219 C 
ATOM      4  O   UNL     1      -2.331  -6.653  -0.344  0.00  0.00    -0.275 OA
ATOM      5  N   UNL     1      -0.337  -7.582  -0.138  0.00  0.00    -0.270 N 
ATOM      6  C   UNL     1       1.038  -7.420  -0.296  0.00  0.00    +0.133 A 
ATOM      7  C   UNL     1       1.584  -6.232  -0.710  0.00  0.00    +0.026 A 
ATOM      8  C   UNL     1       2.961  -6.390  -0.773  0.00  0.00    +0.066 A 
ATOM      9  N   UNL     1       3.252  -7.615  -0.401  0.00  0.00    -0.170 NA
ATOM     10  N   UNL     1       2.054  -8.282  -0.085  0.00  0.00    -0.218 N 
ATOM     11  C   UNL     1       3.951  -5.336  -1.197  0.00  0.00    +0.068 C 
ATOM     12  H   UNL     1      -0.700  -8.365   0.306  0.00  0.00    +0.156 HD
ENDROOT
BRANCH  10  13
ATOM     13  C   UNL     1       1.937  -9.603   0.368  0.00  0.00    +0.069 A 
ATOM     14  C   UNL     1       0.948  -9.940   1.282  0.00  0.00    +0.028 A 
ATOM     15  C   UNL     1       0.834 -11.243   1.726  0.00  0.00    +0.007 A 
ATOM     16  C   UNL     1       1.705 -12.212   1.263  0.00  0.00    -0.032 A 
ATOM     17  C   UNL     1       2.693 -11.879   0.352  0.00  0.00    +0.046 A 
ATOM     18  C   UNL     1       2.807 -10.578  -0.101  0.00  0.00    +0.048 A 
ATOM     19 CL   UNL     1       3.784 -13.098  -0.227  0.00  0.00    -0.083 Cl
ATOM     20  C   UNL     1       1.578 -13.632   1.750  0.00  0.00    +0.045 C 
ENDBRANCH  10  13
BRANCH   1  21
ATOM     21  C   UNL     1       0.586  -4.180   0.223  0.00  0.00    +0.171 C 
ATOM     22  O   UNL     1       0.702  -4.688   1.318  0.00  0.00    -0.291 OA
BRANCH  21  27
ATOM     23  C   UNL     1      -0.548   1.437  -0.236  0.00  0.00    +0.044 C 
ATOM     24  C   UNL     1      -0.251  -0.036  -0.116  0.00  0.00    -0.050 A 
ATOM     25  C   UNL     1       0.012  -0.780  -1.253  0.00  0.00    +0.004 A 
ATOM     26  C   UNL     1       0.285  -2.127  -1.151  0.00  0.00    +0.012 A 
ATOM     27  C   UNL     1       0.296  -2.742   0.106  0.00  0.00    +0.021 A 
ATOM     28  C   UNL     1       0.029  -1.983   1.250  0.00  0.00    -0.040 A 
ATOM     29  C   UNL     1      -0.237  -0.635   1.131  0.00  0.00    +0.007 A 
ATOM     30  C   UNL     1       0.037  -2.636   2.608  0.00  0.00    +0.044 C 
ENDBRANCH  21  27
ENDBRANCH   1  21
TORSDOF 3
