REMARK  Name = ZINC40103673
REMARK  7 active torsions:
REMARK  status: ('A' for Active; 'I' for Inactive)
REMARK    1  A    between atoms: C_1  and  C_2
REMARK    2  A    between atoms: C_5  and  C_24
REMARK    3  A    between atoms: N_12  and  C_13
REMARK    4  A    between atoms: C_15  and  O_22
REMARK    5  A    between atoms: C_18  and  O_19
REMARK    6  A    between atoms: O_19  and  C_20
REMARK    7  A    between atoms: O_22  and  C_23
REMARK                            x       y       z     vdW  Elec       q    Type
REMARK                         _______ _______ _______ _____ _____    ______ ____
ROOT
ATOM      1  C   UNL     1      -0.217   1.242  -0.262  0.00  0.00    +0.009 C 
ATOM      2  C   UNL     1      -0.181  -0.261   0.020  0.00  0.00    +0.004 C 
ATOM      3  C   UNL     1      -1.595  -0.757   0.329  0.00  0.00    +0.009 C 
ATOM      4  C   UNL     1      -1.565  -2.267   0.578  0.00  0.00    +0.004 C 
ATOM      5  C   UNL     1      -0.673  -2.563   1.788  0.00  0.00    +0.112 C 
ATOM      6  N   UNL     1       0.648  -1.962   1.560  0.00  0.00    -0.285 N 
ATOM      7  C   UNL     1       0.727  -0.534   1.223  0.00  0.00    +0.112 C 
ATOM      8  C   UNL     1       1.767  -2.707   1.658  0.00  0.00    +0.307 C 
ATOM      9  O   UNL     1       1.696  -3.867   2.016  0.00  0.00    -0.252 OA
ATOM     10  N   UNL     1       2.965  -2.166   1.360  0.00  0.00    -0.266 N 
ATOM     11  C   UNL     1      -1.005  -2.977  -0.656  0.00  0.00    +0.009 C 
ATOM     12  H   UNL     1       3.030  -1.223   1.142  0.00  0.00    +0.156 HD
ENDROOT
BRANCH  10  13
ATOM     13  C   UNL     1       4.116  -2.966   1.365  0.00  0.00    +0.080 A 
ATOM     14  C   UNL     1       4.003  -4.347   1.296  0.00  0.00    +0.074 A 
ATOM     15  C   UNL     1       5.143  -5.136   1.301  0.00  0.00    +0.140 A 
ATOM     16  C   UNL     1       6.396  -4.545   1.375  0.00  0.00    +0.086 A 
ATOM     17  C   UNL     1       6.511  -3.168   1.445  0.00  0.00    +0.071 A 
ATOM     18  C   UNL     1       5.375  -2.376   1.435  0.00  0.00    +0.143 A 
ATOM     19 CL   UNL     1       7.822  -5.535   1.382  0.00  0.00    -0.080 Cl
BRANCH  18  20
ATOM     20  O   UNL     1       5.489  -1.021   1.497  0.00  0.00    -0.493 OA
ATOM     21  C   UNL     1       6.812  -0.484   1.566  0.00  0.00    +0.277 C 
ENDBRANCH  18  20
BRANCH  15  22
ATOM     22  O   UNL     1       5.032  -6.489   1.232  0.00  0.00    -0.494 OA
ATOM     23  C   UNL     1       3.711  -7.030   1.158  0.00  0.00    +0.277 C 
ENDBRANCH  15  22
ENDBRANCH  10  13
TORSDOF 3
