REMARK  Name = ZINC39205287
REMARK  9 active torsions:
REMARK  status: ('A' for Active; 'I' for Inactive)
REMARK    1  A    between atoms: C_1  and  C_2
REMARK    2  A    between atoms: C_2  and  O_3
REMARK    3  A    between atoms: O_3  and  C_4
REMARK    4  A    between atoms: C_4  and  C_6
REMARK    5  A    between atoms: C_8  and  C_19
REMARK    6  A    between atoms: C_19  and  S_20
REMARK    7  A    between atoms: S_20  and  C_21
REMARK    8  A    between atoms: C_26  and  O_31
REMARK    9  A    between atoms: O_31  and  C_32
REMARK                            x       y       z     vdW  Elec       q    Type
REMARK                         _______ _______ _______ _____ _____    ______ ____
ROOT
ATOM      1  C   UNL     1      -2.869  -2.433   0.013  0.00  0.00    +0.202 C 
ATOM      2  C   UNL     1      -3.450  -2.489  -1.420  0.00  0.00    +0.133 C 
ATOM      3  N   UNL     1      -4.145  -3.786  -1.495  0.00  0.00    -0.226 N 
ATOM      4  N   UNL     1      -4.061  -4.394  -0.267  0.00  0.00    -0.173 NA
ATOM      5  N   UNL     1      -2.855  -3.874   0.391  0.00  0.00    -0.225 NA
ATOM      6  C   UNL     1      -4.779  -4.306  -2.619  0.00  0.00    +0.222 A 
ATOM      7  C   UNL     1      -4.130  -5.049  -3.704  0.00  0.00    +0.203 A 
ATOM      8  N   UNL     1      -5.041  -5.374  -4.580  0.00  0.00    -0.032 NA
ATOM      9  O   UNL     1      -6.284  -4.875  -4.120  0.00  0.00    -0.239 OA
ATOM     10  N   UNL     1      -6.053  -4.221  -2.884  0.00  0.00    -0.030 NA
ATOM     11  N   UNL     1      -2.776  -5.354  -3.787  0.00  0.00    -0.338 N 
ATOM     12  H   UNL     1      -4.018  -5.397  -0.362  0.00  0.00    +0.164 HD
ATOM     13  H   UNL     1      -2.026  -4.332   0.040  0.00  0.00    +0.143 HD
ATOM     14  H   UNL     1      -2.184  -5.133  -3.051  0.00  0.00    +0.144 HD
ATOM     15  H   UNL     1      -2.424  -5.788  -4.580  0.00  0.00    +0.144 HD
ENDROOT
BRANCH   1  16
ATOM     16  C   UNL     1      -1.475  -1.862   0.008  0.00  0.00    +0.328 C 
ATOM     17  O   UNL     1      -0.519  -2.601   0.009  0.00  0.00    -0.249 OA
BRANCH  16  18
ATOM     18  O   UNL     1      -1.294  -0.532   0.001  0.00  0.00    -0.464 OA
BRANCH  18  20
ATOM     19  C   UNL     1       0.060   1.470  -0.010  0.00  0.00    +0.048 C 
ATOM     20  C   UNL     1       0.055  -0.060  -0.003  0.00  0.00    +0.229 C 
ENDBRANCH  18  20
ENDBRANCH  16  18
ENDBRANCH   1  16
BRANCH   2  21
ATOM     21  C   UNL     1      -4.436  -1.340  -1.641  0.00  0.00    +0.103 C 
BRANCH  21  22
ATOM     22  S   UNL     1      -5.101  -1.429  -3.326  0.00  0.00    -0.086 S 
BRANCH  22  23
ATOM     23  C   UNL     1      -6.205  -0.059  -3.421  0.00  0.00    +0.167 A 
ATOM     24  N   UNL     1      -6.949   0.276  -4.518  0.00  0.00    -0.333 N 
ATOM     25  H   UNL     1      -6.963  -0.192  -5.368  0.00  0.00    +0.168 HD
ATOM     26  C   UNL     1      -7.679   1.406  -4.190  0.00  0.00    +0.070 A 
ATOM     27  C   UNL     1      -8.591   2.193  -4.877  0.00  0.00    +0.073 A 
ATOM     28  C   UNL     1      -9.162   3.288  -4.253  0.00  0.00    +0.122 A 
ATOM     29  C   UNL     1      -8.826   3.603  -2.941  0.00  0.00    +0.048 A 
ATOM     30  C   UNL     1      -7.921   2.830  -2.248  0.00  0.00    +0.033 A 
ATOM     31  C   UNL     1      -7.337   1.722  -2.865  0.00  0.00    +0.090 A 
ATOM     32  N   UNL     1      -6.439   0.789  -2.450  0.00  0.00    -0.222 NA
BRANCH  28  33
ATOM     33  O   UNL     1     -10.057   4.061  -4.926  0.00  0.00    -0.495 OA
ATOM     34  C   UNL     1     -10.609   5.176  -4.224  0.00  0.00    +0.277 C 
ENDBRANCH  28  33
ENDBRANCH  22  23
ENDBRANCH  21  22
ENDBRANCH   2  21
TORSDOF 7
