REMARK  Name = ZINC15935871
REMARK  8 active torsions:
REMARK  status: ('A' for Active; 'I' for Inactive)
REMARK    1  A    between atoms: C_1  and  C_2
REMARK    2  A    between atoms: C_5  and  C_8
REMARK    3  A    between atoms: C_8  and  N_9
REMARK    4  A    between atoms: C_10  and  C_12
REMARK    5  A    between atoms: C_12  and  N_13
REMARK    6  A    between atoms: N_13  and  C_14
REMARK    7  A    between atoms: C_20  and  C_22
REMARK    8  A    between atoms: C_22  and  C_33
REMARK                            x       y       z     vdW  Elec       q    Type
REMARK                         _______ _______ _______ _____ _____    ______ ____
ROOT
ATOM      1  N   UNL     1       2.850  -8.047  -0.039  0.00  0.00    -0.261 N 
ATOM      2  C   UNL     1       3.299  -8.689   1.058  0.00  0.00    +0.244 C 
ATOM      3  O   UNL     1       3.655  -9.846   0.980  0.00  0.00    -0.273 OA
ENDROOT
BRANCH   2   4
ATOM      4  C   UNL     1       3.359  -7.969   2.380  0.00  0.00    +0.122 C 
ATOM      5  C   UNL     1       1.938  -7.626   2.845  0.00  0.00    +0.133 C 
ATOM      6  C   UNL     1       2.037  -6.696   4.030  0.00  0.00    +0.240 C 
ATOM      7  O   UNL     1       1.218  -6.764   4.927  0.00  0.00    -0.274 OA
ATOM      8  N   UNL     1       3.013  -5.808   4.093  0.00  0.00    -0.165 NA
ATOM      9  C   UNL     1       3.938  -5.712   3.131  0.00  0.00    +0.119 C 
ATOM     10  N   UNL     1       4.115  -6.719   2.228  0.00  0.00    -0.279 N 
ATOM     11  C   UNL     1       4.989  -6.581   1.201  0.00  0.00    +0.077 C 
ATOM     12  C   UNL     1       5.771  -5.479   1.101  0.00  0.00    +0.015 C 
ATOM     13  C   UNL     1       5.670  -4.461   2.055  0.00  0.00    +0.004 C 
ATOM     14  C   UNL     1       4.757  -4.576   3.066  0.00  0.00    +0.041 C 
ATOM     15  C   UNL     1       4.043  -8.860   3.419  0.00  0.00    +0.042 C 
ENDBRANCH   2   4
BRANCH   1  16
ATOM     16  C   UNL     1       2.721  -8.737  -1.250  0.00  0.00    +0.037 A 
ATOM     17  C   UNL     1       2.893 -10.115  -1.287  0.00  0.00    +0.023 A 
ATOM     18  C   UNL     1       2.764 -10.793  -2.484  0.00  0.00    +0.002 A 
ATOM     19  C   UNL     1       2.463 -10.102  -3.643  0.00  0.00    +0.000 A 
ATOM     20  C   UNL     1       2.291  -8.730  -3.609  0.00  0.00    +0.002 A 
ATOM     21  C   UNL     1       2.413  -8.047  -2.415  0.00  0.00    +0.023 A 
ENDBRANCH   1  16
BRANCH   1  22
ATOM     22  C   UNL     1       2.498  -6.627   0.036  0.00  0.00    +0.209 C 
BRANCH  22  24
ATOM     23  N   UNL     1       0.451  -5.263   0.290  0.00  0.00    -0.310 N 
ATOM     24  C   UNL     1       1.007  -6.487   0.198  0.00  0.00    +0.231 C 
ATOM     25  O   UNL     1       0.307  -7.476   0.246  0.00  0.00    -0.274 OA
ATOM     26  H   UNL     1       1.011  -4.472   0.251  0.00  0.00    +0.149 HD
BRANCH  23  27
ATOM     27  C   UNL     1      -0.999  -5.127   0.448  0.00  0.00    +0.139 C 
BRANCH  27  32
ATOM     28  C   UNL     1      -2.391   0.474   0.744  0.00  0.00    +0.044 C 
ATOM     29  C   UNL     1      -2.028  -0.987   0.666  0.00  0.00    -0.050 A 
ATOM     30  C   UNL     1      -1.987  -1.625  -0.559  0.00  0.00    +0.003 A 
ATOM     31  C   UNL     1      -1.654  -2.965  -0.630  0.00  0.00    +0.005 A 
ATOM     32  C   UNL     1      -1.361  -3.666   0.525  0.00  0.00    -0.030 A 
ATOM     33  C   UNL     1      -1.401  -3.027   1.750  0.00  0.00    +0.005 A 
ATOM     34  C   UNL     1      -1.730  -1.687   1.821  0.00  0.00    +0.003 A 
ENDBRANCH  27  32
ENDBRANCH  23  27
ENDBRANCH  22  24
ENDBRANCH   1  22
TORSDOF 6
