REMARK  Name = ZINC11873467
REMARK  10 active torsions:
REMARK  status: ('A' for Active; 'I' for Inactive)
REMARK    1  A    between atoms: C_1  and  C_2
REMARK    2  A    between atoms: C_2  and  C_3
REMARK    3  A    between atoms: C_2  and  C_4
REMARK    4  A    between atoms: C_4  and  C_5
REMARK    5  A    between atoms: C_5  and  N_53
REMARK    6  A    between atoms: C_11  and  C_13
REMARK    7  A    between atoms: C_13  and  C_14
REMARK    8  A    between atoms: N_16  and  C_17
REMARK    9  A    between atoms: C_17  and  C_18
REMARK   10  A    between atoms: C_18  and  C_19
REMARK                            x       y       z     vdW  Elec       q    Type
REMARK                         _______ _______ _______ _____ _____    ______ ____
ROOT
ATOM      1  C   UNL     1       2.494  -0.278   0.382  0.00  0.00    -0.059 C 
ATOM      2  C   UNL     1       1.215  -1.111   0.291  0.00  0.00    +0.085 C 
ATOM      3  N   UNL     1       0.046  -0.255   0.473  0.00  0.00    -0.318 N 
ATOM      4  C   UNL     1       0.091   1.075   0.335  0.00  0.00    +0.200 C 
ATOM      5  O   UNL     1      -0.935   1.707   0.469  0.00  0.00    -0.278 OA
ATOM      6  C   UNL     1       1.357   1.817   0.015  0.00  0.00    +0.028 C 
ATOM      7  H   UNL     1      -0.800  -0.668   0.705  0.00  0.00    +0.149 HD
ATOM      8  N   UNL     1       2.355   0.876  -0.528  0.00  0.00    +0.389 N 
ATOM      9  H   UNL     1       2.037   0.543  -1.446  0.00  0.00    -0.081 HD
ENDROOT
BRANCH   8  10
ATOM     10  C   UNL     1       3.659   1.558  -0.689  0.00  0.00    -0.077 C 
BRANCH  10  11
ATOM     11  C   UNL     1       4.120   2.143   0.648  0.00  0.00    -0.016 C 
BRANCH  11  13
ATOM     12  C   UNL     1       5.896   3.490   1.776  0.00  0.00    +0.007 C 
ATOM     13  C   UNL     1       5.492   2.798   0.473  0.00  0.00    -0.019 C 
ATOM     14  C   UNL     1       6.527   1.728   0.121  0.00  0.00    +0.007 C 
ENDBRANCH  11  13
ENDBRANCH  10  11
ENDBRANCH   8  10
BRANCH   6  15
ATOM     15  C   UNL     1       1.065   2.892  -1.033  0.00  0.00    +0.089 C 
BRANCH  15  16
ATOM     16  C   UNL     1       0.583   2.239  -2.303  0.00  0.00    +0.212 C 
ATOM     17  O   UNL     1       0.583   1.030  -2.400  0.00  0.00    -0.276 OA
ATOM     18  N   UNL     1       0.152   2.998  -3.329  0.00  0.00    -0.315 N 
ATOM     19  H   UNL     1       0.152   3.965  -3.252  0.00  0.00    +0.149 HD
BRANCH  18  20
ATOM     20  C   UNL     1      -0.317   2.362  -4.564  0.00  0.00    +0.109 C 
BRANCH  20  21
ATOM     21  C   UNL     1      -0.746   3.440  -5.561  0.00  0.00    +0.054 C 
BRANCH  21  22
ATOM     22  C   UNL     1      -1.228   2.787  -6.830  0.00  0.00    -0.046 A 
ATOM     23  C   UNL     1      -0.337   2.528  -7.855  0.00  0.00    +0.006 A 
ATOM     24  C   UNL     1      -0.777   1.923  -9.018  0.00  0.00    +0.038 A 
ATOM     25  C   UNL     1      -2.113   1.587  -9.160  0.00  0.00    +0.123 A 
ATOM     26  C   UNL     1      -3.005   1.851  -8.135  0.00  0.00    +0.038 A 
ATOM     27  C   UNL     1      -2.562   2.451  -6.971  0.00  0.00    +0.006 A 
ATOM     28  F   UNL     1      -2.545   1.001 -10.298  0.00  0.00    -0.205 F 
ENDBRANCH  21  22
ENDBRANCH  20  21
ENDBRANCH  18  20
ENDBRANCH  15  16
ENDBRANCH   6  15
TORSDOF 8
