REMARK  Name = ZINC62080006
REMARK  7 active torsions:
REMARK  status: ('A' for Active; 'I' for Inactive)
REMARK    1  A    between atoms: N_4  and  C_6
REMARK    2  A    between atoms: C_6  and  C_7
REMARK    3  A    between atoms: C_7  and  C_8
REMARK    4  A    between atoms: C_8  and  N_9
REMARK    5  A    between atoms: C_10  and  C_12
REMARK    6  A    between atoms: C_12  and  C_18
REMARK    7  A    between atoms: C_18  and  N_20
REMARK                            x       y       z     vdW  Elec       q    Type
REMARK                         _______ _______ _______ _____ _____    ______ ____
ROOT
ATOM      1  N   UNL     1       0.653  -5.277   0.103  0.00  0.00    -0.315 N 
ATOM      2  C   UNL     1       0.505  -6.440   0.766  0.00  0.00    +0.225 C 
ATOM      3  O   UNL     1       0.997  -6.578   1.867  0.00  0.00    -0.275 OA
ATOM      4  H   UNL     1       0.324  -5.191  -0.806  0.00  0.00    +0.149 HD
ENDROOT
BRANCH   2   5
ATOM      5  C   UNL     1      -0.272  -7.571   0.142  0.00  0.00    +0.095 C 
ATOM      6  C   UNL     1      -0.139  -8.825   1.010  0.00  0.00    +0.051 C 
ATOM      7  C   UNL     1       1.331  -9.254   1.052  0.00  0.00    +0.161 C 
ATOM      8  O   UNL     1       1.797  -9.484  -0.279  0.00  0.00    -0.380 OA
ATOM      9  C   UNL     1       1.740  -8.333  -1.124  0.00  0.00    +0.161 C 
ATOM     10  C   UNL     1       0.288  -7.867  -1.253  0.00  0.00    +0.051 C 
BRANCH   5  11
ATOM     11  C   UNL     1      -1.724  -7.184   0.031  0.00  0.00    +0.061 C 
ATOM     12  S   UNL     1      -2.464  -7.253  -1.385  0.00  0.00    -0.040 S 
BRANCH  11  13
ATOM     13  N   UNL     1      -2.399  -6.779   1.125  0.00  0.00    -0.355 N 
ATOM     14  H   UNL     1      -1.973  -6.807   1.996  0.00  0.00    +0.143 HD
ATOM     15  H   UNL     1      -3.311  -6.460   1.041  0.00  0.00    +0.143 HD
ENDBRANCH  11  13
ENDBRANCH   5  11
ENDBRANCH   2   5
BRANCH   1  16
ATOM     16  C   UNL     1       1.311  -4.141   0.753  0.00  0.00    +0.102 C 
BRANCH  16  17
ATOM     17  C   UNL     1       1.349  -2.953  -0.210  0.00  0.00    +0.000 C 
BRANCH  17  18
ATOM     18  C   UNL     1       2.036  -1.767   0.469  0.00  0.00    -0.077 C 
BRANCH  18  22
ATOM     19  C   UNL     1       0.823   1.424  -0.819  0.00  0.00    -0.020 C 
ATOM     20  C   UNL     1       2.327   1.732  -0.634  0.00  0.00    -0.020 C 
ATOM     21  C   UNL     1       2.841   0.495   0.143  0.00  0.00    -0.079 C 
ATOM     22  N   UNL     1       2.072  -0.626  -0.456  0.00  0.00    +0.380 N 
ATOM     23  C   UNL     1       0.706  -0.105  -0.677  0.00  0.00    -0.079 C 
ATOM     24  H   UNL     1       2.486  -0.902  -1.334  0.00  0.00    -0.082 HD
ENDBRANCH  18  22
ENDBRANCH  17  18
ENDBRANCH  16  17
ENDBRANCH   1  16
TORSDOF 7
