REMARK  Name = ZINC66288931
REMARK  5 active torsions:
REMARK  status: ('A' for Active; 'I' for Inactive)
REMARK    1  A    between atoms: C_3  and  C_9
REMARK    2  A    between atoms: C_5  and  C_7
REMARK    3  A    between atoms: C_9  and  N_10
REMARK    4  A    between atoms: C_11  and  C_13
REMARK    5  A    between atoms: C_15  and  N_23
REMARK                            x       y       z     vdW  Elec       q    Type
REMARK                         _______ _______ _______ _____ _____    ______ ____
ROOT
ATOM      1  N   UNL     1       4.102   2.451   1.356  0.00  0.00    -0.307 N 
ATOM      2  C   UNL     1       5.236   3.138   1.594  0.00  0.00    +0.248 C 
ATOM      3  O   UNL     1       5.902   3.553   0.665  0.00  0.00    -0.270 OA
ATOM      4  H   UNL     1       3.571   2.119   2.097  0.00  0.00    +0.149 HD
ENDROOT
BRANCH   2   5
ATOM      5  C   UNL     1       5.670   3.387   2.982  0.00  0.00    +0.084 A 
ATOM      6  C   UNL     1       4.911   2.906   4.052  0.00  0.00    +0.049 A 
ATOM      7  C   UNL     1       5.320   3.140   5.346  0.00  0.00    +0.131 A 
ATOM      8  C   UNL     1       6.481   3.852   5.594  0.00  0.00    +0.082 A 
ATOM      9  C   UNL     1       7.246   4.335   4.544  0.00  0.00    +0.165 A 
ATOM     10  C   UNL     1       6.849   4.101   3.233  0.00  0.00    +0.174 A 
ATOM     11  O   UNL     1       7.590   4.555   2.189  0.00  0.00    -0.484 OA
ATOM     12  C   UNL     1       8.550   5.577   2.478  0.00  0.00    +0.270 C 
ATOM     13  C   UNL     1       9.323   5.167   3.739  0.00  0.00    +0.270 C 
ATOM     14  O   UNL     1       8.382   5.036   4.813  0.00  0.00    -0.485 OA
BRANCH   7  15
ATOM     15  N   UNL     1       4.513   2.628   6.477  0.00  0.00    +0.057 N 
ATOM     16  O   UNL     1       3.499   2.007   6.264  0.00  0.00    -0.126 OA
ATOM     17  O   UNL     1       4.870   2.832   7.614  0.00  0.00    -0.126 OA
ENDBRANCH   7  15
ENDBRANCH   2   5
BRANCH   1  18
ATOM     18  C   UNL     1       3.671   2.204  -0.023  0.00  0.00    +0.140 C 
BRANCH  18  21
ATOM     19  C   UNL     1      -0.017   1.375   0.010  0.00  0.00    +0.002 A 
ATOM     20  C   UNL     1       1.170   2.086   0.002  0.00  0.00    +0.005 A 
ATOM     21  C   UNL     1       2.383   1.421  -0.013  0.00  0.00    -0.029 A 
ATOM     22  C   UNL     1       2.416   0.041  -0.021  0.00  0.00    +0.024 A 
ATOM     23  C   UNL     1       1.223  -0.682  -0.013  0.00  0.00    +0.052 A 
ATOM     24  C   UNL     1       0.002  -0.004   0.002  0.00  0.00    +0.019 A 
BRANCH  23  25
ATOM     25  C   UNL     1       1.250  -2.114  -0.022  0.00  0.00    +0.099 C 
ATOM     26  N   UNL     1       1.271  -3.250  -0.029  0.00  0.00    -0.191 NA
ENDBRANCH  23  25
ENDBRANCH  18  21
ENDBRANCH   1  18
TORSDOF 5
