REMARK  Name = ZINC42908569
REMARK  11 active torsions:
REMARK  status: ('A' for Active; 'I' for Inactive)
REMARK    1  A    between atoms: C_1  and  C_2
REMARK    2  A    between atoms: C_2  and  C_3
REMARK    3  A    between atoms: C_3  and  C_5
REMARK    4  A    between atoms: C_3  and  N_6
REMARK    5  A    between atoms: C_7  and  C_9
REMARK    6  A    between atoms: C_9  and  N_10
REMARK    7  A    between atoms: N_18  and  C_19
REMARK    8  A    between atoms: C_21  and  C_27
REMARK    9  A    between atoms: C_21  and  C_28
REMARK   10  A    between atoms: C_23  and  C_25
REMARK   11  A    between atoms: C_23  and  C_26
REMARK                            x       y       z     vdW  Elec       q    Type
REMARK                         _______ _______ _______ _____ _____    ______ ____
ROOT
ATOM      1  N   UNL     1       1.185   0.416  -6.395  0.00  0.00    -0.291 NA
ATOM      2  C   UNL     1       2.032   1.595  -6.164  0.00  0.00    +0.104 C 
ATOM      3  C   UNL     1       3.020   1.745  -7.325  0.00  0.00    +0.124 C 
ATOM      4  N   UNL     1       2.262   1.762  -8.585  0.00  0.00    -0.283 N 
ATOM      5  C   UNL     1       1.291   0.684  -8.827  0.00  0.00    +0.124 C 
ATOM      6  C   UNL     1       0.370   0.575  -7.607  0.00  0.00    +0.104 C 
ATOM      7  C   UNL     1       2.453   2.738  -9.494  0.00  0.00    +0.302 C 
ATOM      8  O   UNL     1       3.188   3.672  -9.238  0.00  0.00    -0.253 OA
ATOM      9  N   UNL     1       1.827   2.680 -10.687  0.00  0.00    -0.296 N 
ATOM     10  H   UNL     1       1.185   1.975 -10.863  0.00  0.00    +0.151 HD
ENDROOT
BRANCH   9  11
ATOM     11  C   UNL     1       2.120   3.683 -11.719  0.00  0.00    +0.072 C 
ATOM     12  C   UNL     1       1.215   4.899 -11.508  0.00  0.00    +0.009 C 
ATOM     13  C   UNL     1       1.499   5.948 -12.582  0.00  0.00    -0.072 C 
ATOM     14  N   UNL     1       1.392   5.399 -13.926  0.00  0.00    +0.386 N 
ATOM     15  C   UNL     1       2.047   4.128 -14.191  0.00  0.00    -0.072 C 
ATOM     16  C   UNL     1       1.816   3.093 -13.095  0.00  0.00    +0.009 C 
ATOM     17  C   UNL     1       3.548   4.305 -14.434  0.00  0.00    -0.010 C 
ATOM     18  C   UNL     1       1.443   3.558 -15.496  0.00  0.00    -0.010 C 
ATOM     19  C   UNL     1       2.857   6.604 -12.335  0.00  0.00    -0.010 C 
ATOM     20  C   UNL     1       0.424   7.051 -12.441  0.00  0.00    -0.010 C 
ATOM     21  H   UNL     1       0.399   5.303 -14.155  0.00  0.00    -0.084 HD
ATOM     22  H   UNL     1       1.754   6.092 -14.586  0.00  0.00    -0.084 HD
ENDBRANCH   9  11
BRANCH   1  23
ATOM     23  C   UNL     1       0.341   0.137  -5.226  0.00  0.00    +0.180 C 
BRANCH  23  25
ATOM     24  N   UNL     1       0.651  -0.565  -2.874  0.00  0.00    -0.312 N 
ATOM     25  C   UNL     1       1.212  -0.261  -4.061  0.00  0.00    +0.227 C 
ATOM     26  O   UNL     1       2.416  -0.307  -4.193  0.00  0.00    -0.274 OA
ATOM     27  H   UNL     1      -0.312  -0.529  -2.769  0.00  0.00    +0.149 HD
BRANCH  24  28
ATOM     28  C   UNL     1       1.497  -0.952  -1.742  0.00  0.00    +0.070 C 
ATOM     29  C   UNL     1       1.798  -2.450  -1.819  0.00  0.00    +0.028 C 
BRANCH  28  31
ATOM     30  C   UNL     1       0.578   0.868  -0.298  0.00  0.00    +0.005 C 
ATOM     31  C   UNL     1       0.769  -0.644  -0.432  0.00  0.00    +0.018 C 
ENDBRANCH  28  31
ENDBRANCH  24  28
ENDBRANCH  23  25
ENDBRANCH   1  23
TORSDOF 5
