REMARK  Name = ZINC13730536
REMARK  7 active torsions:
REMARK  status: ('A' for Active; 'I' for Inactive)
REMARK    1  A    between atoms: C_1  and  C_2
REMARK    2  A    between atoms: C_12  and  C_13
REMARK    3  A    between atoms: C_13  and  C_14
REMARK    4  A    between atoms: N_16  and  C_17
REMARK    5  A    between atoms: C_24  and  O_26
REMARK    6  A    between atoms: C_28  and  C_36
REMARK    7  A    between atoms: C_29  and  C_30
REMARK                            x       y       z     vdW  Elec       q    Type
REMARK                         _______ _______ _______ _____ _____    ______ ____
ROOT
ATOM      1  C   UNL     1       3.523   3.761   4.940  0.00  0.00    +0.045 C 
ATOM      2  C   UNL     1       3.252   5.144   4.407  0.00  0.00    -0.029 A 
ATOM      3  C   UNL     1       2.624   5.336   3.097  0.00  0.00    +0.022 A 
ATOM      4  C   UNL     1       2.261   4.241   2.311  0.00  0.00    +0.024 A 
ATOM      5  C   UNL     1       1.669   4.457   1.077  0.00  0.00    +0.029 A 
ATOM      6  C   UNL     1       1.433   5.767   0.616  0.00  0.00    +0.139 A 
ATOM      7  C   UNL     1       1.796   6.852   1.402  0.00  0.00    +0.093 A 
ATOM      8  C   UNL     1       2.389   6.648   2.636  0.00  0.00    +0.143 A 
ATOM      9  O   UNL     1       2.745   7.701   3.406  0.00  0.00    -0.422 OA
ATOM     10  C   UNL     1       3.320   7.530   4.606  0.00  0.00    +0.341 A 
ATOM     11  O   UNL     1       3.623   8.510   5.262  0.00  0.00    -0.245 OA
ATOM     12  C   UNL     1       3.584   6.246   5.127  0.00  0.00    +0.049 A 
ATOM     13  O   UNL     1       0.855   5.669  -0.599  0.00  0.00    -0.459 OA
ATOM     14  C   UNL     1       0.702   4.384  -0.962  0.00  0.00    +0.111 A 
ATOM     15  C   UNL     1       1.169   3.569   0.010  0.00  0.00    +0.031 A 
ATOM     16  C   UNL     1       0.096   3.920  -2.262  0.00  0.00    +0.087 C 
ENDROOT
BRANCH  15  17
ATOM     17  C   UNL     1       1.183   2.087   0.002  0.00  0.00    -0.014 A 
ATOM     18  C   UNL     1      -0.017   1.376   0.010  0.00  0.00    +0.008 A 
ATOM     19  C   UNL     1       0.002  -0.004   0.002  0.00  0.00    +0.001 A 
ATOM     20  C   UNL     1       1.208  -0.682  -0.014  0.00  0.00    +0.000 A 
ATOM     21  C   UNL     1       2.401   0.018  -0.021  0.00  0.00    +0.001 A 
ATOM     22  C   UNL     1       2.395   1.398  -0.013  0.00  0.00    +0.008 A 
ENDBRANCH  15  17
BRANCH  12  23
ATOM     23  C   UNL     1       4.232   6.098   6.479  0.00  0.00    +0.138 C 
BRANCH  23  24
ATOM     24  C   UNL     1       3.167   6.034   7.543  0.00  0.00    +0.218 C 
ATOM     25  O   UNL     1       1.996   6.103   7.234  0.00  0.00    -0.275 OA
ATOM     26  N   UNL     1       3.514   5.902   8.838  0.00  0.00    -0.308 N 
ATOM     27  H   UNL     1       4.451   5.847   9.086  0.00  0.00    +0.149 HD
BRANCH  26  28
ATOM     28  C   UNL     1       2.479   5.840   9.873  0.00  0.00    +0.124 C 
ATOM     29  C   UNL     1       2.010   7.279  10.188  0.00  0.00    +0.190 C 
ATOM     30  S   UNL     1       1.723   7.173  12.008  0.00  0.00    -0.027 S 
ATOM     31  O   UNL     1       0.444   6.603  12.250  0.00  0.00    -0.174 OA
ATOM     32  O   UNL     1       2.069   8.411  12.613  0.00  0.00    -0.174 OA
ATOM     33  C   UNL     1       3.030   5.924  12.381  0.00  0.00    +0.199 C 
ATOM     34  C   UNL     1       3.038   5.097  11.076  0.00  0.00    +0.157 C 
BRANCH  34  35
ATOM     35  O   UNL     1       2.261   3.915  11.284  0.00  0.00    -0.388 OA
ATOM     36  H   UNL     1       2.551   3.381  12.035  0.00  0.00    +0.210 HD
ENDBRANCH  34  35
ENDBRANCH  26  28
ENDBRANCH  23  24
ENDBRANCH  12  23
TORSDOF 5
