REMARK  Name = ZINC12317692
REMARK  7 active torsions:
REMARK  status: ('A' for Active; 'I' for Inactive)
REMARK    1  A    between atoms: C_1  and  C_2
REMARK    2  A    between atoms: C_6  and  C_8
REMARK    3  A    between atoms: C_8  and  N_9
REMARK    4  A    between atoms: N_9  and  C_10
REMARK    5  A    between atoms: C_11  and  C_13
REMARK    6  A    between atoms: C_13  and  C_14
REMARK    7  A    between atoms: C_21  and  N_55
REMARK                            x       y       z     vdW  Elec       q    Type
REMARK                         _______ _______ _______ _____ _____    ______ ____
ROOT
ATOM      1  C   UNL     1       0.095   5.000   4.107  0.00  0.00    +0.028 C 
ATOM      2  C   UNL     1       0.325   5.640   5.447  0.00  0.00    +0.200 C 
ATOM      3  O   UNL     1       1.353   6.258   5.627  0.00  0.00    -0.278 OA
ATOM      4  N   UNL     1      -0.556   5.557   6.449  0.00  0.00    -0.318 N 
ATOM      5  C   UNL     1      -1.805   4.808   6.347  0.00  0.00    +0.085 C 
ATOM      6  C   UNL     1      -2.146   4.553   4.878  0.00  0.00    -0.058 C 
ATOM      7  H   UNL     1      -0.357   6.015   7.280  0.00  0.00    +0.149 HD
ATOM      8  N   UNL     1      -0.955   3.971   4.226  0.00  0.00    +0.391 N 
ATOM      9  H   UNL     1      -0.602   3.197   4.801  0.00  0.00    -0.080 HD
ENDROOT
BRANCH   8  10
ATOM     10  C   UNL     1      -1.311   3.452   2.886  0.00  0.00    -0.059 C 
ATOM     11  C   UNL     1      -2.132   4.480   2.079  0.00  0.00    +0.020 C 
ATOM     12  C   UNL     1      -3.122   3.652   1.282  0.00  0.00    -0.046 A 
ATOM     13  C   UNL     1      -3.883   3.987   0.174  0.00  0.00    +0.004 A 
ATOM     14  C   UNL     1      -4.728   3.055  -0.397  0.00  0.00    +0.000 A 
ATOM     15  C   UNL     1      -4.815   1.784   0.139  0.00  0.00    +0.000 A 
ATOM     16  C   UNL     1      -4.057   1.448   1.244  0.00  0.00    +0.004 A 
ATOM     17  C   UNL     1      -3.210   2.381   1.817  0.00  0.00    -0.046 A 
ATOM     18  C   UNL     1      -2.289   2.265   3.013  0.00  0.00    +0.020 C 
ENDBRANCH   8  10
BRANCH   1  19
ATOM     19  C   UNL     1       1.390   4.337   3.632  0.00  0.00    +0.090 C 
BRANCH  19  22
ATOM     20  N   UNL     1       2.820   2.437   4.310  0.00  0.00    -0.297 N 
ATOM     21  C   UNL     1       3.605   2.654   3.092  0.00  0.00    +0.132 C 
ATOM     22  C   UNL     1       1.764   3.228   4.581  0.00  0.00    +0.215 C 
ATOM     23  O   UNL     1       1.114   3.049   5.590  0.00  0.00    -0.276 OA
BRANCH  20  24
ATOM     24  C   UNL     1       3.184   1.359   5.233  0.00  0.00    +0.181 C 
BRANCH  24  30
ATOM     25  C   UNL     1       7.466   2.728   7.447  0.00  0.00    +0.067 C 
ATOM     26  C   UNL     1       5.998   2.474   7.217  0.00  0.00    +0.056 A 
ATOM     27  C   UNL     1       5.006   2.721   8.093  0.00  0.00    +0.107 A 
ATOM     28  N   UNL     1       3.838   2.345   7.484  0.00  0.00    -0.347 N 
ATOM     29  H   UNL     1       2.920   2.404   7.875  0.00  0.00    +0.167 HD
ATOM     30  C   UNL     1       4.159   1.882   6.257  0.00  0.00    +0.125 A 
ATOM     31  N   UNL     1       5.452   1.961   6.104  0.00  0.00    -0.236 NA
ENDBRANCH  24  30
ENDBRANCH  20  24
ENDBRANCH  19  22
ENDBRANCH   1  19
TORSDOF 5
