REMARK  Name = ZINC33171871
REMARK  10 active torsions:
REMARK  status: ('A' for Active; 'I' for Inactive)
REMARK    1  A    between atoms: C_1  and  C_2
REMARK    2  A    between atoms: C_2  and  C_3
REMARK    3  A    between atoms: C_3  and  C_4
REMARK    4  A    between atoms: C_4  and  C_5
REMARK    5  A    between atoms: C_5  and  N_6
REMARK    6  A    between atoms: C_7  and  C_9
REMARK    7  A    between atoms: C_10  and  N_25
REMARK    8  A    between atoms: C_11  and  C_14
REMARK    9  A    between atoms: N_16  and  C_17
REMARK   10  A    between atoms: C_17  and  C_18
REMARK                            x       y       z     vdW  Elec       q    Type
REMARK                         _______ _______ _______ _____ _____    ______ ____
ROOT
ATOM      1  C   UNL     1       2.313   0.208  -0.019  0.00  0.00    +0.115 A 
ATOM      2  C   UNL     1       1.228  -0.670  -0.013  0.00  0.00    +0.076 A 
ATOM      3  C   UNL     1       0.002  -0.004   0.002  0.00  0.00    +0.156 A 
ATOM      4  N   UNL     1      -0.016   1.310   0.009  0.00  0.00    -0.203 NA
ATOM      5  S   UNL     1       1.487   1.785  -0.003  0.00  0.00    +0.019 S 
ENDROOT
BRANCH   1   7
ATOM      6  N   UNL     1       4.643   0.917  -0.037  0.00  0.00    -0.311 N 
ATOM      7  C   UNL     1       3.747  -0.089  -0.034  0.00  0.00    +0.254 C 
ATOM      8  O   UNL     1       4.129  -1.244  -0.043  0.00  0.00    -0.270 OA
ATOM      9  H   UNL     1       4.298   1.962  -0.028  0.00  0.00    +0.149 HD
BRANCH   6  10
ATOM     10  C   UNL     1       6.078   0.620  -0.052  0.00  0.00    +0.104 C 
BRANCH  10  11
ATOM     11  C   UNL     1       6.870   1.930  -0.053  0.00  0.00    +0.019 C 
BRANCH  11  12
ATOM     12  C   UNL     1       8.368   1.619  -0.068  0.00  0.00    +0.001 C 
BRANCH  12  14
ATOM     13  C   UNL     1      10.658   2.618  -0.084  0.00  0.00    +0.004 C 
ATOM     14  C   UNL     1       9.160   2.929  -0.069  0.00  0.00    -0.003 C 
ENDBRANCH  12  14
ENDBRANCH  11  12
ENDBRANCH  10  11
ENDBRANCH   6  10
ENDBRANCH   1   7
BRANCH   3  15
ATOM     15  C   UNL     1      -1.260  -0.766   0.011  0.00  0.00    +0.265 C 
ATOM     16  O   UNL     1      -1.236  -1.982   0.004  0.00  0.00    -0.268 OA
ATOM     17  N   UNL     1      -2.440  -0.116   0.025  0.00  0.00    -0.306 N 
ATOM     18  H   UNL     1      -2.462   0.984   0.031  0.00  0.00    +0.149 HD
BRANCH  17  19
ATOM     19  C   UNL     1      -3.694  -0.873   0.034  0.00  0.00    +0.141 C 
BRANCH  19  20
ATOM     20  C   UNL     1      -4.859   0.084   0.050  0.00  0.00    -0.012 A 
ATOM     21  C   UNL     1      -5.517   0.351   1.235  0.00  0.00    +0.006 A 
ATOM     22  C   UNL     1      -6.582   1.232   1.251  0.00  0.00    +0.000 A 
ATOM     23  C   UNL     1      -6.996   1.838   0.079  0.00  0.00    +0.001 A 
ATOM     24  C   UNL     1      -6.342   1.567  -1.108  0.00  0.00    +0.020 A 
ATOM     25  C   UNL     1      -5.273   0.689  -1.123  0.00  0.00    +0.046 A 
ATOM     26 CL   UNL     1      -4.451   0.348  -2.614  0.00  0.00    -0.083 Cl
ENDBRANCH  19  20
ENDBRANCH  17  19
ENDBRANCH   3  15
BRANCH   2  27
ATOM     27  N   UNL     1       1.354  -2.053  -0.023  0.00  0.00    -0.355 N 
ATOM     28  H   UNL     1       0.455  -2.687  -0.017  0.00  0.00    +0.142 HD
ATOM     29  H   UNL     1       2.353  -2.514  -0.035  0.00  0.00    +0.142 HD
ENDBRANCH   2  27
TORSDOF 9
