REMARK  Name = ZINC66605776
REMARK  5 active torsions:
REMARK  status: ('A' for Active; 'I' for Inactive)
REMARK    1  A    between atoms: C_6  and  C_7
REMARK    2  A    between atoms: C_7  and  N_8
REMARK    3  A    between atoms: N_11  and  C_12
REMARK    4  A    between atoms: C_12  and  C_13
REMARK    5  A    between atoms: N_15  and  C_16
REMARK                            x       y       z     vdW  Elec       q    Type
REMARK                         _______ _______ _______ _____ _____    ______ ____
ROOT
ATOM      1  C   UNL     1      -4.722  -2.764  -4.621  0.00  0.00    +0.231 C 
ATOM      2  O   UNL     1      -3.919  -2.277  -5.389  0.00  0.00    -0.274 OA
ATOM      3  N   UNL     1      -5.807  -3.405  -5.098  0.00  0.00    -0.307 N 
ATOM      4  H   UNL     1      -6.450  -3.794  -4.484  0.00  0.00    +0.149 HD
ENDROOT
BRANCH   3   5
ATOM      5  C   UNL     1      -6.017  -3.514  -6.544  0.00  0.00    +0.105 C 
ATOM      6  C   UNL     1      -6.873  -4.744  -6.837  0.00  0.00    +0.027 C 
ATOM      7  C   UNL     1      -7.268  -4.712  -8.318  0.00  0.00    +0.008 C 
ATOM      8  C   UNL     1      -8.247  -3.558  -8.526  0.00  0.00    +0.054 C 
ATOM      9  C   UNL     1      -7.697  -2.281  -7.942  0.00  0.00    +0.024 A 
ATOM     10  C   UNL     1      -6.695  -2.264  -7.042  0.00  0.00    -0.008 A 
ATOM     11  C   UNL     1      -6.241  -1.032  -6.529  0.00  0.00    +0.012 A 
ATOM     12  C   UNL     1      -6.812   0.130  -6.947  0.00  0.00    +0.070 A 
ATOM     13  C   UNL     1      -7.851   0.076  -7.891  0.00  0.00    +0.249 A 
ATOM     14  O   UNL     1      -8.377   1.106  -8.283  0.00  0.00    -0.268 OA
ATOM     15  N   UNL     1      -8.262  -1.111  -8.362  0.00  0.00    -0.326 N 
ATOM     16  H   UNL     1      -8.979  -1.138  -9.016  0.00  0.00    +0.169 HD
ENDBRANCH   3   5
BRANCH   1  17
ATOM     17  C   UNL     1      -4.506  -2.652  -3.134  0.00  0.00    +0.201 C 
BRANCH  17  21
ATOM     18  N   UNL     1      -1.726  -1.017  -1.368  0.00  0.00    -0.295 N 
ATOM     19  C   UNL     1      -2.867  -1.694  -1.606  0.00  0.00    +0.300 C 
ATOM     20  O   UNL     1      -3.537  -2.103  -0.678  0.00  0.00    -0.253 OA
ATOM     21  N   UNL     1      -3.266  -1.917  -2.874  0.00  0.00    -0.291 N 
ATOM     22  H   UNL     1      -1.192  -0.691  -2.108  0.00  0.00    +0.151 HD
ATOM     23  H   UNL     1      -2.731  -1.590  -3.615  0.00  0.00    +0.151 HD
BRANCH  18  24
ATOM     24  C   UNL     1      -1.293  -0.775   0.011  0.00  0.00    +0.141 C 
BRANCH  24  30
ATOM     25  C   UNL     1      -0.017   1.378   0.010  0.00  0.00    +0.006 A 
ATOM     26  C   UNL     1       1.171   2.086   0.002  0.00  0.00    +0.020 A 
ATOM     27  C   UNL     1       2.378   1.410  -0.013  0.00  0.00    +0.041 A 
ATOM     28  C   UNL     1       2.396   0.027  -0.021  0.00  0.00    +0.020 A 
ATOM     29  C   UNL     1       1.208  -0.679  -0.013  0.00  0.00    +0.006 A 
ATOM     30  C   UNL     1       0.002  -0.004   0.002  0.00  0.00    -0.030 A 
ATOM     31 CL   UNL     1       3.870   2.298  -0.023  0.00  0.00    -0.084 Cl
ENDBRANCH  24  30
ENDBRANCH  18  24
ENDBRANCH  17  21
ENDBRANCH   1  17
TORSDOF 5
