REMARK  Name = ZINC11948990
REMARK  7 active torsions:
REMARK  status: ('A' for Active; 'I' for Inactive)
REMARK    1  A    between atoms: C_4  and  O_10
REMARK    2  A    between atoms: C_5  and  C_7
REMARK    3  A    between atoms: N_8  and  O_9
REMARK    4  A    between atoms: O_10  and  C_11
REMARK    5  A    between atoms: C_11  and  C_12
REMARK    6  A    between atoms: C_12  and  O_13
REMARK    7  A    between atoms: O_13  and  C_14
REMARK                            x       y       z     vdW  Elec       q    Type
REMARK                         _______ _______ _______ _____ _____    ______ ____
ROOT
ATOM      1  C   UNL     1      -4.376   4.873  -0.207  0.00  0.00    +0.270 C 
ENDROOT
BRANCH   1   2
ATOM      2  O   UNL     1      -3.975   6.205   0.120  0.00  0.00    -0.488 OA
BRANCH   2   6
ATOM      3  C   UNL     1      -6.819   9.176  -0.298  0.00  0.00    +0.001 A 
ATOM      4  C   UNL     1      -7.162   7.848  -0.492  0.00  0.00    +0.004 A 
ATOM      5  C   UNL     1      -6.213   6.854  -0.353  0.00  0.00    +0.046 A 
ATOM      6  C   UNL     1      -4.909   7.181  -0.017  0.00  0.00    +0.129 A 
ATOM      7  C   UNL     1      -4.559   8.522   0.185  0.00  0.00    +0.038 A 
ATOM      8  C   UNL     1      -5.526   9.518   0.035  0.00  0.00    +0.013 A 
BRANCH   7   9
ATOM      9  C   UNL     1      -3.175   8.881   0.549  0.00  0.00    +0.164 C 
ATOM     10  N   UNL     1      -2.923  10.037   1.072  0.00  0.00    -0.095 NA
BRANCH  10  11
ATOM     11  O   UNL     1      -3.987  10.897   1.437  0.00  0.00    -0.409 OA
ATOM     12  H   UNL     1      -3.773  11.880   1.881  0.00  0.00    +0.328 HD
ENDBRANCH  10  11
ENDBRANCH   7   9
ENDBRANCH   2   6
ENDBRANCH   1   2
BRANCH   1  13
ATOM     13  C   UNL     1      -3.169   3.938  -0.108  0.00  0.00    +0.270 C 
BRANCH  13  14
ATOM     14  O   UNL     1      -2.744   3.852   1.253  0.00  0.00    -0.486 OA
BRANCH  14  15
ATOM     15  C   UNL     1      -1.614   3.138   1.503  0.00  0.00    +0.157 A 
ATOM     16  C   UNL     1      -1.702   1.799   1.859  0.00  0.00    +0.085 A 
ATOM     17  C   UNL     1      -0.552   1.076   2.117  0.00  0.00    +0.043 A 
ATOM     18  C   UNL     1       0.686   1.684   2.011  0.00  0.00    +0.044 A 
ATOM     19  C   UNL     1       0.777   3.017   1.651  0.00  0.00    +0.043 A 
ATOM     20  C   UNL     1      -0.370   3.745   1.397  0.00  0.00    +0.085 A 
ATOM     21 CL   UNL     1      -0.256   5.417   0.946  0.00  0.00    -0.080 Cl
ATOM     22 CL   UNL     1       2.129   0.771   2.328  0.00  0.00    -0.083 Cl
ATOM     23 CL   UNL     1      -3.256   1.035   1.986  0.00  0.00    -0.080 Cl
ENDBRANCH  14  15
ENDBRANCH  13  14
ENDBRANCH   1  13
TORSDOF 7
