REMARK  Name = ZINC37448217
REMARK  5 active torsions:
REMARK  status: ('A' for Active; 'I' for Inactive)
REMARK    1  A    between atoms: C_4  and  C_7
REMARK    2  A    between atoms: C_7  and  O_29
REMARK    3  A    between atoms: C_8  and  C_27
REMARK    4  A    between atoms: C_10  and  C_20
REMARK    5  A    between atoms: C_12  and  C_17
REMARK                            x       y       z     vdW  Elec       q    Type
REMARK                         _______ _______ _______ _____ _____    ______ ____
ROOT
ATOM      1  C   UNL     1       4.234  -0.922  -0.169  0.00  0.00    +0.175 C 
ATOM      2  C   UNL     1       4.590  -0.987  -1.655  0.00  0.00    +0.155 C 
ATOM      3  C   UNL     1       4.430   0.413  -2.260  0.00  0.00    +0.061 C 
ATOM      4  C   UNL     1       5.504   1.324  -1.661  0.00  0.00    +0.169 C 
ATOM      5  C   UNL     1       5.518   1.184  -0.166  0.00  0.00    +0.228 C 
ATOM      6  O   UNL     1       6.063   2.048   0.487  0.00  0.00    -0.275 OA
ATOM      7  N   UNL     1       4.962   0.160   0.483  0.00  0.00    -0.282 N 
ATOM      8  H   UNL     1       5.046   0.133   1.449  0.00  0.00    +0.152 HD
ENDROOT
BRANCH   3   9
ATOM      9  C   UNL     1       4.600   0.342  -3.755  0.00  0.00    -0.040 A 
ATOM     10  C   UNL     1       4.512  -0.876  -4.404  0.00  0.00    +0.004 A 
ATOM     11  C   UNL     1       4.668  -0.942  -5.776  0.00  0.00    +0.002 A 
ATOM     12  C   UNL     1       4.913   0.210  -6.500  0.00  0.00    +0.020 A 
ATOM     13  C   UNL     1       5.001   1.428  -5.851  0.00  0.00    +0.041 A 
ATOM     14  C   UNL     1       4.839   1.495  -4.479  0.00  0.00    +0.024 A 
ATOM     15 CL   UNL     1       5.309   2.875  -6.760  0.00  0.00    -0.084 Cl
ENDBRANCH   3   9
BRANCH   1  19
ATOM     16  C   UNL     1       0.036  -0.255   0.248  0.00  0.00    +0.000 A 
ATOM     17  C   UNL     1       0.905   0.819   0.196  0.00  0.00    +0.000 A 
ATOM     18  C   UNL     1       2.263   0.603   0.061  0.00  0.00    +0.008 A 
ATOM     19  C   UNL     1       2.753  -0.687  -0.021  0.00  0.00    +0.003 A 
ATOM     20  C   UNL     1       1.885  -1.761   0.032  0.00  0.00    +0.008 A 
ATOM     21  C   UNL     1       0.526  -1.545   0.165  0.00  0.00    +0.000 A 
ENDBRANCH   1  19
BRANCH   4  22
ATOM     22  C   UNL     1       6.853   0.936  -2.210  0.00  0.00    +0.223 C 
ATOM     23  O   UNL     1       6.941   0.462  -3.323  0.00  0.00    -0.275 OA
ATOM     24  N   UNL     1       7.962   1.117  -1.465  0.00  0.00    -0.329 N 
ATOM     25  H   UNL     1       7.891   1.496  -0.575  0.00  0.00    +0.145 HD
ATOM     26  H   UNL     1       8.829   0.867  -1.819  0.00  0.00    +0.145 HD
ENDBRANCH   4  22
BRANCH   2  27
ATOM     27  C   UNL     1       5.982  -1.440  -1.810  0.00  0.00    +0.071 C 
ATOM     28  N   UNL     1       7.056  -1.789  -1.930  0.00  0.00    -0.196 NA
ENDBRANCH   2  27
BRANCH   1  29
ATOM     29  O   UNL     1       4.579  -2.163   0.450  0.00  0.00    -0.366 OA
ATOM     30  H   UNL     1       4.376  -2.202   1.394  0.00  0.00    +0.212 HD
ENDBRANCH   1  29
TORSDOF 5
