REMARK  Name = ZINC04081855
REMARK  5 active torsions:
REMARK  status: ('A' for Active; 'I' for Inactive)
REMARK    1  A    between atoms: C_1  and  C_2
REMARK    2  A    between atoms: C_4  and  O_28
REMARK    3  A    between atoms: C_14  and  C_15
REMARK    4  A    between atoms: C_14  and  O_17
REMARK    5  A    between atoms: C_26  and  C_27
REMARK                            x       y       z     vdW  Elec       q    Type
REMARK                         _______ _______ _______ _____ _____    ______ ____
ROOT
ATOM      1  C   UNL     1      -3.937   4.045   1.205  0.00  0.00    +0.015 C 
ATOM      2  C   UNL     1      -3.277   3.799   2.563  0.00  0.00    +0.013 C 
ATOM      3  C   UNL     1      -1.869   4.363   2.560  0.00  0.00    +0.042 C 
ATOM      4  C   UNL     1      -1.135   3.744   1.360  0.00  0.00    +0.120 C 
ATOM      5  C   UNL     1      -1.129   2.220   1.427  0.00  0.00    +0.035 C 
ATOM      6  C   UNL     1      -2.550   1.653   1.577  0.00  0.00    -0.000 C 
ATOM      7  C   UNL     1      -3.158   2.273   2.822  0.00  0.00    +0.002 C 
ATOM      8  C   UNL     1      -4.614   1.894   3.118  0.00  0.00    +0.008 C 
ATOM      9  C   UNL     1      -5.108   3.067   4.008  0.00  0.00    +0.047 C 
ATOM     10  C   UNL     1      -4.198   4.277   3.680  0.00  0.00    +0.172 C 
ATOM     11  C   UNL     1      -2.481   0.133   1.734  0.00  0.00    +0.008 C 
ATOM     12  C   UNL     1      -1.906  -0.491   0.459  0.00  0.00    +0.032 C 
ATOM     13  C   UNL     1      -0.565   0.161   0.177  0.00  0.00    -0.056 C 
ATOM     14  C   UNL     1       0.495  -0.612  -0.018  0.00  0.00    +0.051 C 
ATOM     15  C   UNL     1       1.820  -0.019  -0.259  0.00  0.00    +0.179 C 
ATOM     16  O   UNL     1       2.788  -0.724  -0.473  0.00  0.00    -0.288 OA
ATOM     17  C   UNL     1       1.947   1.448  -0.236  0.00  0.00    +0.047 C 
ATOM     18  C   UNL     1       0.875   2.200  -0.045  0.00  0.00    -0.012 C 
ATOM     19  C   UNL     1      -0.501   1.659   0.148  0.00  0.00    +0.013 C 
ATOM     20  C   UNL     1      -1.362   2.141  -1.022  0.00  0.00    +0.020 C 
ENDROOT
BRANCH  10  21
ATOM     21  C   UNL     1      -5.029   5.443   3.208  0.00  0.00    +0.387 C 
ATOM     22  O   UNL     1      -6.144   5.256   2.780  0.00  0.00    -0.243 OA
ATOM     23  O   UNL     1      -4.531   6.688   3.264  0.00  0.00    -0.243 OA
ENDBRANCH  10  21
BRANCH  10  24
ATOM     24  O   UNL     1      -3.433   4.647   4.829  0.00  0.00    -0.377 OA
ATOM     25  H   UNL     1      -3.966   4.960   5.573  0.00  0.00    +0.211 HD
ENDBRANCH  10  24
BRANCH   4  26
ATOM     26  O   UNL     1      -1.782   4.155   0.155  0.00  0.00    -0.391 OA
ATOM     27  H   UNL     1      -1.826   5.114   0.039  0.00  0.00    +0.210 HD
ENDBRANCH   4  26
TORSDOF 3
