REMARK  Name = ZINC08909460
REMARK  5 active torsions:
REMARK  status: ('A' for Active; 'I' for Inactive)
REMARK    1  A    between atoms: C_1  and  C_2
REMARK    2  A    between atoms: C_5  and  C_8
REMARK    3  A    between atoms: C_9  and  C_10
REMARK    4  A    between atoms: N_12  and  C_13
REMARK    5  A    between atoms: C_16  and  C_19
REMARK                            x       y       z     vdW  Elec       q    Type
REMARK                         _______ _______ _______ _____ _____    ______ ____
ROOT
ATOM      1  C   UNL     1       1.130   2.136  -0.010  0.00  0.00    +0.034 A 
ATOM      2  C   UNL     1       2.253   1.714  -0.715  0.00  0.00    +0.024 A 
ATOM      3  C   UNL     1       3.385   2.497  -0.740  0.00  0.00    +0.015 A 
ATOM      4  C   UNL     1       3.409   3.711  -0.047  0.00  0.00    +0.037 A 
ATOM      5  C   UNL     1       2.281   4.128   0.664  0.00  0.00    +0.015 A 
ATOM      6  C   UNL     1       1.150   3.344   0.681  0.00  0.00    +0.024 A 
ENDROOT
BRANCH   4   7
ATOM      7  C   UNL     1       4.623   4.549  -0.067  0.00  0.00    +0.250 C 
ATOM      8  O   UNL     1       4.643   5.605   0.536  0.00  0.00    -0.270 OA
ATOM      9  N   UNL     1       5.710   4.145  -0.754  0.00  0.00    -0.261 N 
ATOM     10  C   UNL     1       6.853   4.935  -0.772  0.00  0.00    +0.165 A 
ATOM     11  N   UNL     1       7.064   6.100  -0.192  0.00  0.00    -0.233 NA
ATOM     12  C   UNL     1       8.222   6.720  -0.307  0.00  0.00    +0.120 A 
ATOM     13  C   UNL     1       9.196   6.138  -1.050  0.00  0.00    +0.068 A 
ATOM     14  S   UNL     1       8.367   4.644  -1.571  0.00  0.00    -0.061 S 
ATOM     15  H   UNL     1       5.694   3.303  -1.235  0.00  0.00    +0.157 HD
ENDBRANCH   4   7
BRANCH   1  18
ATOM     16  C   UNL     1       0.093   0.000   0.013  0.00  0.00    +0.241 C 
ATOM     17  O   UNL     1       1.188  -0.521  -0.085  0.00  0.00    -0.270 OA
ATOM     18  N   UNL     1      -0.016   1.344   0.009  0.00  0.00    -0.282 N 
ATOM     19  H   UNL     1      -0.893   1.759   0.017  0.00  0.00    +0.155 HD
BRANCH  16  21
ATOM     20  C   UNL     1      -0.996  -2.175   0.136  0.00  0.00    +0.013 C 
ATOM     21  C   UNL     1      -1.105  -0.831   0.133  0.00  0.00    +0.068 C 
BRANCH  20  26
ATOM     22  C   UNL     1      -5.703  -5.441   0.611  0.00  0.00    +0.044 C 
ATOM     23  C   UNL     1      -4.469  -4.585   0.487  0.00  0.00    -0.050 A 
ATOM     24  C   UNL     1      -3.225  -5.182   0.376  0.00  0.00    +0.004 A 
ATOM     25  C   UNL     1      -2.092  -4.406   0.261  0.00  0.00    +0.008 A 
ATOM     26  C   UNL     1      -2.201  -3.012   0.258  0.00  0.00    -0.025 A 
ATOM     27  C   UNL     1      -3.461  -2.416   0.376  0.00  0.00    +0.008 A 
ATOM     28  C   UNL     1      -4.586  -3.206   0.484  0.00  0.00    +0.004 A 
ENDBRANCH  20  26
ENDBRANCH  16  21
ENDBRANCH   1  18
TORSDOF 4
