REMARK  Name = ZINC09884579
REMARK  15 active torsions:
REMARK  status: ('A' for Active; 'I' for Inactive)
REMARK    1  A    between atoms: C_1  and  C_2
REMARK    2  A    between atoms: C_5  and  C_7
REMARK    3  A    between atoms: C_10  and  C_12
REMARK    4  A    between atoms: C_12  and  N_69
REMARK    5  A    between atoms: C_13  and  N_69
REMARK    6  A    between atoms: C_14  and  C_15
REMARK    7  A    between atoms: C_14  and  N_69
REMARK    8  A    between atoms: N_17  and  C_18
REMARK    9  A    between atoms: N_17  and  C_22
REMARK   10  A    between atoms: C_18  and  C_19
REMARK   11  A    between atoms: C_19  and  O_20
REMARK   12  A    between atoms: O_20  and  C_21
REMARK   13  A    between atoms: C_23  and  N_38
REMARK   14  A    between atoms: N_24  and  C_31
REMARK   15  A    between atoms: C_31  and  C_32
REMARK                            x       y       z     vdW  Elec       q    Type
REMARK                         _______ _______ _______ _____ _____    ______ ____
ROOT
ATOM      1  C   UNL     1      -4.301  -5.379  -1.795  0.00  0.00    +0.203 C 
ATOM      2  O   UNL     1      -3.095  -5.505  -1.842  0.00  0.00    -0.277 OA
ATOM      3  N   UNL     1      -5.099  -6.453  -1.971  0.00  0.00    -0.264 N 
ENDROOT
BRANCH   3   4
ATOM      4  C   UNL     1      -4.536  -7.703  -2.306  0.00  0.00    +0.140 A 
ATOM      5  C   UNL     1      -3.850  -7.868  -3.492  0.00  0.00    +0.128 A 
ATOM      6  N   UNL     1      -3.309  -9.098  -3.788  0.00  0.00    -0.276 N 
ATOM      7  C   UNL     1      -3.456 -10.129  -2.937  0.00  0.00    +0.331 A 
ATOM      8  O   UNL     1      -2.974 -11.210  -3.220  0.00  0.00    -0.246 OA
ATOM      9  N   UNL     1      -4.125  -9.988  -1.779  0.00  0.00    -0.273 N 
ATOM     10  H   UNL     1      -4.219 -10.770  -1.164  0.00  0.00    +0.173 HD
ATOM     11  C   UNL     1      -4.670  -8.803  -1.439  0.00  0.00    +0.277 A 
ATOM     12  O   UNL     1      -5.275  -8.686  -0.387  0.00  0.00    -0.266 OA
BRANCH   5  13
ATOM     13  N   UNL     1      -3.706  -6.816  -4.364  0.00  0.00    -0.343 N 
ATOM     14  H   UNL     1      -4.176  -5.983  -4.201  0.00  0.00    +0.144 HD
ATOM     15  H   UNL     1      -3.134  -6.907  -5.142  0.00  0.00    +0.144 HD
ENDBRANCH   5  13
BRANCH   6  16
ATOM     16  C   UNL     1      -2.575  -9.287  -5.042  0.00  0.00    +0.163 C 
BRANCH  16  17
ATOM     17  C   UNL     1      -3.530  -9.719  -6.124  0.00  0.00    -0.028 A 
ATOM     18  C   UNL     1      -3.771 -11.063  -6.338  0.00  0.00    +0.005 A 
ATOM     19  C   UNL     1      -4.651 -11.459  -7.327  0.00  0.00    +0.000 A 
ATOM     20  C   UNL     1      -5.283 -10.511  -8.110  0.00  0.00    +0.000 A 
ATOM     21  C   UNL     1      -5.039  -9.167  -7.900  0.00  0.00    +0.000 A 
ATOM     22  C   UNL     1      -4.162  -8.771  -6.907  0.00  0.00    +0.005 A 
ENDBRANCH  16  17
ENDBRANCH   6  16
ENDBRANCH   3   4
BRANCH   1  23
ATOM     23  C   UNL     1      -4.907  -4.023  -1.540  0.00  0.00    +0.019 C 
BRANCH  23  25
ATOM     24  C   UNL     1      -3.047  -3.292  -0.174  0.00  0.00    -0.095 C 
ATOM     25  N   UNL     1      -3.819  -3.032  -1.407  0.00  0.00    +0.388 N 
ATOM     26  H   UNL     1      -3.193  -3.113  -2.216  0.00  0.00    -0.081 HD
BRANCH  25  27
ATOM     27  C   UNL     1      -4.382  -1.666  -1.371  0.00  0.00    -0.003 C 
BRANCH  27  31
ATOM     28  C   UNL     1      -1.653   0.706  -0.866  0.00  0.00    +0.108 A 
ATOM     29  C   UNL     1      -1.699   0.718  -2.210  0.00  0.00    +0.045 A 
ATOM     30  C   UNL     1      -2.731  -0.170  -2.591  0.00  0.00    +0.043 A 
ATOM     31  C   UNL     1      -3.253  -0.672  -1.458  0.00  0.00    +0.089 A 
ATOM     32  O   UNL     1      -2.592  -0.141  -0.415  0.00  0.00    -0.466 OA
BRANCH  28  36
ATOM     33  C   UNL     1       1.639   1.300   1.138  0.00  0.00    +0.008 C 
ATOM     34  C   UNL     1       0.237   0.729   0.915  0.00  0.00    -0.003 C 
ATOM     35  C   UNL     1      -0.944   1.505   1.502  0.00  0.00    +0.015 C 
ATOM     36  C   UNL     1      -0.703   1.505  -0.010  0.00  0.00    +0.058 C 
ENDBRANCH  28  36
ENDBRANCH  27  31
ENDBRANCH  25  27
ENDBRANCH  23  25
ENDBRANCH   1  23
BRANCH   3  37
ATOM     37  C   UNL     1      -6.549  -6.321  -1.814  0.00  0.00    +0.142 C 
BRANCH  37  38
ATOM     38  C   UNL     1      -7.175  -5.939  -3.157  0.00  0.00    +0.178 C 
BRANCH  38  39
ATOM     39  O   UNL     1      -6.991  -7.006  -4.089  0.00  0.00    -0.381 OA
ATOM     40  C   UNL     1      -7.542  -6.750  -5.383  0.00  0.00    +0.194 C 
ENDBRANCH  38  39
ENDBRANCH  37  38
ENDBRANCH   3  37
TORSDOF 12
