REMARK  Name = ZINC08645171
REMARK  6 active torsions:
REMARK  status: ('A' for Active; 'I' for Inactive)
REMARK    1  A    between atoms: C_1  and  C_2
REMARK    2  A    between atoms: C_5  and  C_14
REMARK    3  A    between atoms: C_12  and  C_13
REMARK    4  A    between atoms: C_14  and  N_15
REMARK    5  A    between atoms: C_18  and  C_22
REMARK    6  A    between atoms: C_18  and  C_23
REMARK                            x       y       z     vdW  Elec       q    Type
REMARK                         _______ _______ _______ _____ _____    ______ ____
ROOT
ATOM      1  N   UNL     1       3.100   4.126  -1.376  0.00  0.00    -0.220 N 
ATOM      2  C   UNL     1       2.799   5.100  -2.258  0.00  0.00    +0.251 C 
ATOM      3  O   UNL     1       2.019   6.014  -2.101  0.00  0.00    -0.272 OA
ATOM      4  C   UNL     1       3.640   4.814  -3.486  0.00  0.00    +0.136 C 
ATOM      5  N   UNL     1       4.386   3.598  -3.120  0.00  0.00    -0.281 N 
ATOM      6  C   UNL     1       4.008   3.276  -1.870  0.00  0.00    +0.310 C 
ATOM      7  O   UNL     1       4.440   2.319  -1.258  0.00  0.00    -0.252 OA
ATOM      8  C   UNL     1       4.600   5.973  -3.763  0.00  0.00    +0.047 C 
ATOM      9  H   UNL     1       5.028   3.124  -3.671  0.00  0.00    +0.152 HD
ENDROOT
BRANCH   4  10
ATOM     10  C   UNL     1       2.760   4.555  -4.682  0.00  0.00    -0.008 A 
ATOM     11  C   UNL     1       2.785   3.343  -5.301  0.00  0.00    +0.007 A 
ATOM     12  C   UNL     1       1.975   3.083  -6.404  0.00  0.00    +0.001 A 
ATOM     13  C   UNL     1       1.143   4.038  -6.903  0.00  0.00    +0.008 A 
ATOM     14  C   UNL     1       1.094   5.304  -6.295  0.00  0.00    -0.018 A 
ATOM     15  C   UNL     1       1.914   5.566  -5.169  0.00  0.00    -0.012 A 
ATOM     16  C   UNL     1       1.865   6.833  -4.561  0.00  0.00    +0.009 A 
ATOM     17  C   UNL     1       1.034   7.787  -5.060  0.00  0.00    +0.001 A 
ATOM     18  C   UNL     1       0.228   7.530  -6.167  0.00  0.00    +0.001 A 
ATOM     19  C   UNL     1       0.248   6.315  -6.782  0.00  0.00    +0.008 A 
ENDBRANCH   4  10
BRANCH   1  20
ATOM     20  C   UNL     1       2.510   4.015  -0.040  0.00  0.00    +0.154 C 
BRANCH  20  25
ATOM     21  C   UNL     1       0.810   3.280   4.859  0.00  0.00    +0.044 C 
ATOM     22  C   UNL     1       0.362   2.777   3.511  0.00  0.00    -0.047 A 
ATOM     23  C   UNL     1       1.035   3.164   2.385  0.00  0.00    +0.015 A 
ATOM     24  C   UNL     1       0.619   2.697   1.135  0.00  0.00    +0.023 A 
ATOM     25  C   UNL     1       1.319   3.092  -0.091  0.00  0.00    -0.012 A 
ATOM     26  C   UNL     1       0.866   2.604  -1.274  0.00  0.00    +0.098 A 
ATOM     27  C   UNL     1      -0.251   1.741  -1.295  0.00  0.00    +0.338 A 
ATOM     28  O   UNL     1      -0.648   1.310  -2.362  0.00  0.00    -0.245 OA
ATOM     29  O   UNL     1      -0.890   1.388  -0.169  0.00  0.00    -0.422 OA
ATOM     30  C   UNL     1      -0.487   1.834   1.040  0.00  0.00    +0.140 A 
ATOM     31  C   UNL     1      -1.155   1.454   2.197  0.00  0.00    +0.050 A 
ATOM     32  C   UNL     1      -0.729   1.926   3.421  0.00  0.00    -0.044 A 
ATOM     33  C   UNL     1      -1.457   1.512   4.674  0.00  0.00    +0.044 C 
ENDBRANCH  20  25
ENDBRANCH   1  20
TORSDOF 3
