REMARK  Name = ZINC67381694
REMARK  11 active torsions:
REMARK  status: ('A' for Active; 'I' for Inactive)
REMARK    1  A    between atoms: C_1  and  C_2
REMARK    2  A    between atoms: C_5  and  N_9
REMARK    3  A    between atoms: C_10  and  C_12
REMARK    4  A    between atoms: C_12  and  C_13
REMARK    5  A    between atoms: C_13  and  N_14
REMARK    6  A    between atoms: N_17  and  C_18
REMARK    7  A    between atoms: C_18  and  C_19
REMARK    8  A    between atoms: C_19  and  C_21
REMARK    9  A    between atoms: C_19  and  N_26
REMARK   10  A    between atoms: N_26  and  C_27
REMARK   11  A    between atoms: N_26  and  C_28
REMARK                            x       y       z     vdW  Elec       q    Type
REMARK                         _______ _______ _______ _____ _____    ______ ____
ROOT
ATOM      1  N   UNL     1      -0.144  -8.342  -2.639  0.00  0.00    -0.299 N 
ATOM      2  C   UNL     1      -0.332  -8.998  -3.801  0.00  0.00    +0.300 C 
ATOM      3  O   UNL     1      -0.416  -8.377  -4.843  0.00  0.00    -0.253 OA
ATOM      4  N   UNL     1      -0.426 -10.342  -3.809  0.00  0.00    -0.301 N 
ATOM      5  H   UNL     1      -0.076  -8.838  -1.807  0.00  0.00    +0.150 HD
ATOM      6  H   UNL     1      -0.359 -10.838  -2.978  0.00  0.00    +0.150 HD
ENDROOT
BRANCH   1   7
ATOM      7  C   UNL     1      -0.041  -6.881  -2.630  0.00  0.00    +0.115 C 
BRANCH   7   8
ATOM      8  C   UNL     1       0.169  -6.393  -1.195  0.00  0.00    +0.115 C 
BRANCH   8  10
ATOM      9  N   UNL     1       0.462  -4.234  -0.024  0.00  0.00    -0.284 N 
ATOM     10  C   UNL     1       0.274  -4.889  -1.187  0.00  0.00    +0.219 C 
ATOM     11  O   UNL     1       0.190  -4.270  -2.226  0.00  0.00    -0.275 OA
ATOM     12  H   UNL     1       0.607  -4.732   0.796  0.00  0.00    +0.155 HD
BRANCH   9  17
ATOM     13  C   UNL     1       0.403   1.439   0.075  0.00  0.00    +0.044 C 
ATOM     14  C   UNL     1       0.419  -0.067   0.049  0.00  0.00    -0.049 A 
ATOM     15  C   UNL     1      -0.241  -0.747  -0.958  0.00  0.00    +0.005 A 
ATOM     16  C   UNL     1      -0.229  -2.128  -0.985  0.00  0.00    +0.025 A 
ATOM     17  C   UNL     1       0.448  -2.834   0.000  0.00  0.00    +0.052 A 
ATOM     18  C   UNL     1       1.112  -2.149   1.011  0.00  0.00    +0.062 A 
ATOM     19  C   UNL     1       1.100  -0.767   1.029  0.00  0.00    +0.025 A 
ATOM     20 CL   UNL     1       1.960  -3.027   2.245  0.00  0.00    -0.082 Cl
ENDBRANCH   9  17
ENDBRANCH   8  10
ENDBRANCH   7   8
ENDBRANCH   1   7
BRANCH   4  21
ATOM     21  C   UNL     1      -0.630 -11.055  -5.072  0.00  0.00    +0.098 C 
BRANCH  21  22
ATOM     22  C   UNL     1      -0.827 -12.546  -4.791  0.00  0.00    +0.016 C 
BRANCH  22  23
ATOM     23  C   UNL     1      -2.093 -12.745  -3.998  0.00  0.00    +0.093 A 
ATOM     24  C   UNL     1      -3.278 -13.140  -4.496  0.00  0.00    +0.043 A 
ATOM     25  C   UNL     1      -4.181 -13.194  -3.409  0.00  0.00    +0.041 A 
ATOM     26  C   UNL     1      -3.493 -12.829  -2.312  0.00  0.00    +0.195 A 
ATOM     27  O   UNL     1      -2.227 -12.564  -2.674  0.00  0.00    -0.469 OA
ENDBRANCH  22  23
BRANCH  22  28
ATOM     28  N   UNL     1       0.317 -13.054  -4.022  0.00  0.00    +0.384 N 
ATOM     29  C   UNL     1       0.183 -14.507  -3.847  0.00  0.00    -0.096 C 
ATOM     30  C   UNL     1       1.562 -12.761  -4.745  0.00  0.00    -0.096 C 
ATOM     31  H   UNL     1       0.340 -12.607  -3.118  0.00  0.00    -0.082 HD
ENDBRANCH  22  28
ENDBRANCH  21  22
ENDBRANCH   4  21
TORSDOF 8
