REMARK  Name = ZINC14721662
REMARK  12 active torsions:
REMARK  status: ('A' for Active; 'I' for Inactive)
REMARK    1  A    between atoms: C_1  and  C_2
REMARK    2  A    between atoms: C_2  and  C_3
REMARK    3  A    between atoms: C_2  and  C_4
REMARK    4  A    between atoms: C_4  and  N_5
REMARK    5  A    between atoms: C_6  and  N_30
REMARK    6  A    between atoms: C_7  and  N_14
REMARK    7  A    between atoms: N_14  and  C_15
REMARK    8  A    between atoms: C_15  and  C_16
REMARK    9  A    between atoms: C_16  and  O_17
REMARK   10  A    between atoms: O_17  and  C_18
REMARK   11  A    between atoms: C_19  and  C_21
REMARK   12  A    between atoms: C_21  and  C_22
REMARK                            x       y       z     vdW  Elec       q    Type
REMARK                         _______ _______ _______ _____ _____    ______ ____
ROOT
ATOM      1  N   UNL     1       0.318   1.313  -0.475  0.00  0.00    -0.280 N 
ATOM      2  C   UNL     1      -0.857   1.991  -0.698  0.00  0.00    +0.127 A 
ATOM      3  C   UNL     1      -1.242   2.982   0.182  0.00  0.00    +0.140 A 
ATOM      4  C   UNL     1      -0.417   3.265   1.288  0.00  0.00    +0.277 A 
ATOM      5  O   UNL     1      -0.735   4.133   2.083  0.00  0.00    -0.266 OA
ATOM      6  N   UNL     1       0.727   2.575   1.458  0.00  0.00    -0.273 N 
ATOM      7  H   UNL     1       1.317   2.781   2.238  0.00  0.00    +0.173 HD
ATOM      8  C   UNL     1       1.085   1.613   0.589  0.00  0.00    +0.331 A 
ATOM      9  O   UNL     1       2.121   1.002   0.769  0.00  0.00    -0.246 OA
ENDROOT
BRANCH   3  10
ATOM     10  N   UNL     1      -2.442   3.695  -0.019  0.00  0.00    -0.262 N 
ATOM     11  C   UNL     1      -2.403   5.010  -0.321  0.00  0.00    +0.224 C 
ATOM     12  O   UNL     1      -1.341   5.596  -0.346  0.00  0.00    -0.275 OA
BRANCH  10  13
ATOM     13  C   UNL     1      -3.731   3.009   0.099  0.00  0.00    +0.142 C 
BRANCH  13  14
ATOM     14  C   UNL     1      -4.184   3.022   1.560  0.00  0.00    +0.178 C 
BRANCH  14  15
ATOM     15  O   UNL     1      -4.434   4.369   1.968  0.00  0.00    -0.381 OA
ATOM     16  C   UNL     1      -4.865   4.494   3.325  0.00  0.00    +0.194 C 
ENDBRANCH  14  15
ENDBRANCH  13  14
ENDBRANCH  10  13
BRANCH  11  17
ATOM     17  C   UNL     1      -3.679   5.751  -0.628  0.00  0.00    +0.131 C 
BRANCH  17  18
ATOM     18  C   UNL     1      -3.362   7.193  -0.930  0.00  0.00    -0.037 A 
ATOM     19  C   UNL     1      -3.345   8.125   0.091  0.00  0.00    +0.005 A 
ATOM     20  C   UNL     1      -3.049   9.447  -0.184  0.00  0.00    +0.022 A 
ATOM     21  C   UNL     1      -2.781   9.840  -1.483  0.00  0.00    +0.059 A 
ATOM     22  C   UNL     1      -2.804   8.907  -2.507  0.00  0.00    +0.060 A 
ATOM     23  C   UNL     1      -3.095   7.584  -2.229  0.00  0.00    +0.025 A 
ATOM     24 CL   UNL     1      -2.468   9.399  -4.137  0.00  0.00    -0.082 Cl
ATOM     25 CL   UNL     1      -2.416  11.501  -1.830  0.00  0.00    -0.082 Cl
ENDBRANCH  17  18
ENDBRANCH  11  17
ENDBRANCH   3  10
BRANCH   2  26
ATOM     26  N   UNL     1      -1.640   1.686  -1.786  0.00  0.00    -0.343 N 
ATOM     27  H   UNL     1      -1.329   1.043  -2.442  0.00  0.00    +0.144 HD
ATOM     28  H   UNL     1      -2.504   2.112  -1.896  0.00  0.00    +0.144 HD
ENDBRANCH   2  26
BRANCH   1  29
ATOM     29  C   UNL     1       0.738   0.259  -1.401  0.00  0.00    +0.131 C 
BRANCH  29  31
ATOM     30  C   UNL     1      -1.356  -1.052  -1.025  0.00  0.00    +0.009 C 
ATOM     31  C   UNL     1       0.172  -1.084  -0.936  0.00  0.00    +0.003 C 
ATOM     32  C   UNL     1       0.711  -2.203  -1.830  0.00  0.00    +0.009 C 
ENDBRANCH  29  31
ENDBRANCH   1  29
TORSDOF 9
