REMARK  Name = ZINC67387778
REMARK  4 active torsions:
REMARK  status: ('A' for Active; 'I' for Inactive)
REMARK    1  A    between atoms: C_9  and  N_14
REMARK    2  A    between atoms: N_17  and  N_18
REMARK    3  A    between atoms: C_19  and  C_21
REMARK    4  A    between atoms: C_21  and  C_22
REMARK                            x       y       z     vdW  Elec       q    Type
REMARK                         _______ _______ _______ _____ _____    ______ ____
ROOT
ATOM      1  N   UNL     1      -2.256  -0.033  -0.874  0.00  0.00    -0.291 N 
ATOM      2  C   UNL     1      -2.960   1.031  -0.438  0.00  0.00    +0.316 C 
ATOM      3  O   UNL     1      -2.822   1.424   0.705  0.00  0.00    -0.251 OA
ATOM      4  N   UNL     1      -3.816   1.659  -1.268  0.00  0.00    -0.218 N 
ATOM      5  H   UNL     1      -2.366  -0.346  -1.785  0.00  0.00    +0.151 HD
ATOM      6  H   UNL     1      -4.323   2.424  -0.954  0.00  0.00    +0.174 HD
ENDROOT
BRANCH   1  15
ATOM      7  C   UNL     1      -0.017   1.405   0.010  0.00  0.00    +0.012 A 
ATOM      8  C   UNL     1       1.153   2.100   0.002  0.00  0.00    +0.070 A 
ATOM      9  C   UNL     1       2.366   1.391  -0.011  0.00  0.00    +0.249 A 
ATOM     10  O   UNL     1       3.428   1.993  -0.013  0.00  0.00    -0.268 OA
ATOM     11  N   UNL     1       2.353   0.048  -0.022  0.00  0.00    -0.326 N 
ATOM     12  H   UNL     1       3.195  -0.433  -0.031  0.00  0.00    +0.169 HD
ATOM     13  C   UNL     1       1.182  -0.655  -0.020  0.00  0.00    +0.024 A 
ATOM     14  C   UNL     1       0.002  -0.004   0.002  0.00  0.00    -0.008 A 
ATOM     15  C   UNL     1      -1.326  -0.715   0.029  0.00  0.00    +0.106 C 
ATOM     16  C   UNL     1      -1.170  -2.168  -0.416  0.00  0.00    +0.027 C 
ATOM     17  C   UNL     1      -0.030  -2.798   0.395  0.00  0.00    +0.008 C 
ATOM     18  C   UNL     1       1.283  -2.159  -0.051  0.00  0.00    +0.054 C 
ENDBRANCH   1  15
BRANCH   4  19
ATOM     19  N   UNL     1      -3.975   1.206  -2.584  0.00  0.00    -0.233 N 
ATOM     20  C   UNL     1      -4.832   1.834  -3.414  0.00  0.00    +0.229 C 
ATOM     21  O   UNL     1      -5.465   2.791  -3.021  0.00  0.00    -0.274 OA
ATOM     22  H   UNL     1      -3.469   0.440  -2.898  0.00  0.00    +0.173 HD
BRANCH  20  23
ATOM     23  C   UNL     1      -5.002   1.346  -4.830  0.00  0.00    +0.101 C 
BRANCH  23  24
ATOM     24  C   UNL     1      -6.024   2.227  -5.552  0.00  0.00    -0.002 C 
ATOM     25  C   UNL     1      -5.474   3.649  -5.677  0.00  0.00    +0.004 C 
ATOM     26  C   UNL     1      -6.496   4.529  -6.400  0.00  0.00    +0.000 C 
ATOM     27  C   UNL     1      -6.762   3.961  -7.795  0.00  0.00    +0.000 C 
ATOM     28  C   UNL     1      -7.312   2.539  -7.670  0.00  0.00    +0.000 C 
ATOM     29  C   UNL     1      -6.291   1.659  -6.947  0.00  0.00    +0.004 C 
ENDBRANCH  23  24
ENDBRANCH  20  23
ENDBRANCH   4  19
TORSDOF 4
