REMARK  Name = ZINC42948962
REMARK  7 active torsions:
REMARK  status: ('A' for Active; 'I' for Inactive)
REMARK    1  A    between atoms: C_1  and  C_2
REMARK    2  A    between atoms: C_2  and  C_4
REMARK    3  A    between atoms: C_2  and  N_23
REMARK    4  A    between atoms: C_4  and  C_6
REMARK    5  A    between atoms: C_4  and  O_13
REMARK    6  A    between atoms: O_13  and  C_14
REMARK    7  A    between atoms: C_19  and  C_20
REMARK                            x       y       z     vdW  Elec       q    Type
REMARK                         _______ _______ _______ _____ _____    ______ ____
ROOT
ATOM      1  C   UNL     1       0.744  -0.517   1.254  0.00  0.00    +0.189 C 
ENDROOT
BRANCH   1   2
ATOM      2  C   UNL     1      -0.001  -0.178   2.519  0.00  0.00    -0.009 A 
ATOM      3  C   UNL     1       0.099   1.090   3.061  0.00  0.00    +0.008 A 
ATOM      4  C   UNL     1      -0.584   1.401   4.221  0.00  0.00    +0.020 A 
ATOM      5  C   UNL     1      -1.367   0.444   4.841  0.00  0.00    +0.041 A 
ATOM      6  C   UNL     1      -1.466  -0.825   4.298  0.00  0.00    +0.020 A 
ATOM      7  C   UNL     1      -0.787  -1.133   3.135  0.00  0.00    +0.008 A 
ATOM      8 CL   UNL     1      -2.225   0.834   6.299  0.00  0.00    -0.084 Cl
ENDBRANCH   1   2
BRANCH   1  10
ATOM      9  C   UNL     1      -0.055   1.552   0.104  0.00  0.00    -0.010 C 
ATOM     10  C   UNL     1      -0.027   0.024   0.048  0.00  0.00    -0.032 C 
BRANCH  10  11
ATOM     11  N   UNL     1       0.635  -0.409  -1.191  0.00  0.00    +0.382 N 
ATOM     12  H   UNL     1       1.579  -0.054  -1.209  0.00  0.00    -0.089 HD
ATOM     13  H   UNL     1       0.653  -1.417  -1.228  0.00  0.00    -0.089 HD
ATOM     14  H   UNL     1       0.126  -0.052  -1.986  0.00  0.00    -0.089 HD
ENDBRANCH  10  11
ENDBRANCH   1  10
BRANCH   1  15
ATOM     15  O   UNL     1       2.044   0.076   1.292  0.00  0.00    -0.485 OA
BRANCH  15  16
ATOM     16  C   UNL     1       3.065  -0.643   0.764  0.00  0.00    +0.133 A 
ATOM     17  C   UNL     1       2.810  -1.843   0.115  0.00  0.00    +0.046 A 
ATOM     18  C   UNL     1       3.851  -2.574  -0.421  0.00  0.00    +0.004 A 
ATOM     19  C   UNL     1       5.155  -2.119  -0.316  0.00  0.00    +0.001 A 
ATOM     20  C   UNL     1       5.426  -0.930   0.325  0.00  0.00    +0.017 A 
ATOM     21  C   UNL     1       4.382  -0.176   0.867  0.00  0.00    +0.078 A 
BRANCH  21  22
ATOM     22  C   UNL     1       4.666   1.101   1.550  0.00  0.00    +0.245 C 
ATOM     23  O   UNL     1       3.755   1.751   2.025  0.00  0.00    -0.270 OA
ATOM     24  N   UNL     1       5.934   1.546   1.646  0.00  0.00    -0.325 N 
ATOM     25  H   UNL     1       6.660   1.028   1.267  0.00  0.00    +0.145 HD
ATOM     26  H   UNL     1       6.120   2.386   2.095  0.00  0.00    +0.145 HD
ENDBRANCH  21  22
ENDBRANCH  15  16
ENDBRANCH   1  15
TORSDOF 6
