REMARK  Name = ZINC58202766
REMARK  4 active torsions:
REMARK  status: ('A' for Active; 'I' for Inactive)
REMARK    1  A    between atoms: C_1  and  C_2
REMARK    2  A    between atoms: C_5  and  N_9
REMARK    3  A    between atoms: N_9  and  C_10
REMARK    4  A    between atoms: C_10  and  C_11
REMARK                            x       y       z     vdW  Elec       q    Type
REMARK                         _______ _______ _______ _____ _____    ______ ____
ROOT
ATOM      1  N   UNL     1       0.059  -4.169  -0.021  0.00  0.00    -0.335 N 
ATOM      2  H   UNL     1       0.060  -4.649  -0.864  0.00  0.00    +0.147 HD
ENDROOT
BRANCH   1   7
ATOM      3  C   UNL     1      -0.018   1.503   0.010  0.00  0.00    +0.047 C 
ATOM      4  C   UNL     1       0.002  -0.004   0.002  0.00  0.00    -0.014 A 
ATOM      5  C   UNL     1       0.006  -0.688  -1.201  0.00  0.00    +0.047 A 
ATOM      6  C   UNL     1       0.025  -2.070  -1.212  0.00  0.00    +0.043 A 
ATOM      7  C   UNL     1       0.040  -2.772  -0.013  0.00  0.00    +0.030 A 
ATOM      8  C   UNL     1       0.037  -2.083   1.193  0.00  0.00    +0.043 A 
ATOM      9  C   UNL     1       0.023  -0.701   1.197  0.00  0.00    +0.047 A 
ATOM     10 CL   UNL     1       0.025   0.161   2.704  0.00  0.00    -0.083 Cl
ATOM     11 CL   UNL     1      -0.014   0.190  -2.698  0.00  0.00    -0.083 Cl
ENDBRANCH   1   7
BRANCH   1  12
ATOM     12  C   UNL     1       0.075  -4.908   1.244  0.00  0.00    +0.198 C 
BRANCH  12  13
ATOM     13  C   UNL     1       0.093  -6.388   0.960  0.00  0.00    +0.237 C 
ATOM     14  O   UNL     1       0.092  -6.786  -0.185  0.00  0.00    -0.274 OA
ATOM     15  N   UNL     1       0.110  -7.270   1.980  0.00  0.00    -0.239 N 
ATOM     16  C   UNL     1       0.126  -8.593   1.726  0.00  0.00    +0.303 C 
ATOM     17  O   UNL     1       0.126  -8.992   0.578  0.00  0.00    -0.253 OA
ATOM     18  N   UNL     1       0.143  -9.475   2.746  0.00  0.00    -0.313 N 
ATOM     19  H   UNL     1       0.111  -6.951   2.896  0.00  0.00    +0.159 HD
ATOM     20  H   UNL     1       0.144  -9.156   3.662  0.00  0.00    +0.146 HD
ATOM     21  H   UNL     1       0.155 -10.427   2.563  0.00  0.00    +0.146 HD
ENDBRANCH  12  13
ENDBRANCH   1  12
TORSDOF 3
