REMARK  Name = ZINC02110705
REMARK  5 active torsions:
REMARK  status: ('A' for Active; 'I' for Inactive)
REMARK    1  A    between atoms: C_4  and  C_7
REMARK    2  A    between atoms: C_16  and  O_18
REMARK    3  A    between atoms: O_18  and  C_19
REMARK    4  A    between atoms: C_19  and  C_20
REMARK    5  A    between atoms: C_25  and  O_33
REMARK                            x       y       z     vdW  Elec       q    Type
REMARK                         _______ _______ _______ _____ _____    ______ ____
ROOT
ATOM      1  C   UNL     1       2.389   1.449  -0.013  0.00  0.00    -0.000 A 
ATOM      2  C   UNL     1       1.168   2.095   0.002  0.00  0.00    +0.101 A 
ATOM      3  C   UNL     1      -0.016   1.338   0.009  0.00  0.00    +0.338 A 
ATOM      4  O   UNL     1      -1.089   1.916   0.018  0.00  0.00    -0.245 OA
ATOM      5  O   UNL     1       0.002  -0.004   0.002  0.00  0.00    -0.422 OA
ATOM      6  C   UNL     1       1.158  -0.702  -0.013  0.00  0.00    +0.143 A 
ATOM      7  C   UNL     1       2.389  -0.023  -0.021  0.00  0.00    +0.026 A 
ATOM      8  C   UNL     1       3.586  -0.742  -0.037  0.00  0.00    +0.016 A 
ATOM      9  C   UNL     1       3.558  -2.108  -0.044  0.00  0.00    +0.046 A 
ATOM     10  C   UNL     1       2.343  -2.787  -0.036  0.00  0.00    +0.125 A 
ATOM     11  C   UNL     1       1.146  -2.089  -0.021  0.00  0.00    +0.092 A 
ENDROOT
BRANCH   1  15
ATOM     12  C   UNL     1       6.029   3.641  -0.035  0.00  0.00    +0.000 A 
ATOM     13  C   UNL     1       5.032   3.952  -0.943  0.00  0.00    +0.001 A 
ATOM     14  C   UNL     1       3.848   3.244  -0.941  0.00  0.00    +0.008 A 
ATOM     15  C   UNL     1       3.657   2.212  -0.020  0.00  0.00    -0.017 A 
ATOM     16  C   UNL     1       4.664   1.908   0.897  0.00  0.00    +0.008 A 
ATOM     17  C   UNL     1       5.845   2.619   0.881  0.00  0.00    +0.001 A 
ENDBRANCH   1  15
BRANCH  10  18
ATOM     18  O   UNL     1       2.330  -4.145  -0.044  0.00  0.00    -0.483 OA
BRANCH  18  19
ATOM     19  C   UNL     1       3.597  -4.806  -0.060  0.00  0.00    +0.324 C 
BRANCH  19  20
ATOM     20  C   UNL     1       3.385  -6.298  -0.067  0.00  0.00    +0.253 C 
ATOM     21  O   UNL     1       2.260  -6.751  -0.058  0.00  0.00    -0.272 OA
ATOM     22  N   UNL     1       4.446  -7.129  -0.082  0.00  0.00    -0.298 N 
ATOM     23  C   UNL     1       5.816  -6.596  -0.098  0.00  0.00    +0.110 C 
ATOM     24  C   UNL     1       6.574  -7.210  -1.273  0.00  0.00    +0.054 C 
ATOM     25  C   UNL     1       6.498  -8.736  -1.186  0.00  0.00    +0.072 C 
ATOM     26  C   UNL     1       7.273  -9.347  -2.357  0.00  0.00    +0.035 C 
ATOM     27  C   UNL     1       6.667  -8.862  -3.675  0.00  0.00    +0.003 C 
ATOM     28  C   UNL     1       5.202  -9.295  -3.754  0.00  0.00    +0.001 C 
ATOM     29  C   UNL     1       4.426  -8.692  -2.581  0.00  0.00    +0.008 C 
ATOM     30  C   UNL     1       5.035  -9.180  -1.265  0.00  0.00    +0.038 C 
ATOM     31  C   UNL     1       4.257  -8.585  -0.088  0.00  0.00    +0.114 C 
BRANCH  25  32
ATOM     32  O   UNL     1       7.067  -9.180   0.048  0.00  0.00    -0.388 OA
ATOM     33  H   UNL     1       7.994  -8.932   0.165  0.00  0.00    +0.210 HD
ENDBRANCH  25  32
ENDBRANCH  19  20
ENDBRANCH  18  19
ENDBRANCH  10  18
TORSDOF 5
