REMARK  Name = ZINC07947216
REMARK  5 active torsions:
REMARK  status: ('A' for Active; 'I' for Inactive)
REMARK    1  A    between atoms: C_1  and  C_2
REMARK    2  A    between atoms: C_3  and  N_9
REMARK    3  A    between atoms: C_10  and  C_12
REMARK    4  A    between atoms: C_12  and  C_13
REMARK    5  A    between atoms: C_24  and  C_26
REMARK                            x       y       z     vdW  Elec       q    Type
REMARK                         _______ _______ _______ _____ _____    ______ ____
ROOT
ATOM      1  C   UNL     1       3.602   1.792   3.515  0.00  0.00    +0.123 C 
ENDROOT
BRANCH   1   2
ATOM      2  C   UNL     1       4.162   2.219   4.873  0.00  0.00    +0.120 C 
ATOM      3  C   UNL     1       5.652   1.984   4.901  0.00  0.00    -0.019 A 
ATOM      4  C   UNL     1       6.166   0.765   5.277  0.00  0.00    +0.006 A 
ATOM      5  C   UNL     1       7.535   0.560   5.274  0.00  0.00    +0.000 A 
ATOM      6  C   UNL     1       8.393   1.575   4.889  0.00  0.00    +0.001 A 
ATOM      7  C   UNL     1       7.891   2.804   4.515  0.00  0.00    +0.008 A 
ATOM      8  C   UNL     1       6.515   3.023   4.535  0.00  0.00    -0.019 A 
ATOM      9  C   UNL     1       5.950   4.331   4.152  0.00  0.00    +0.023 C 
ATOM     10  C   UNL     1       4.667   4.596   4.425  0.00  0.00    +0.079 C 
ATOM     11  N   UNL     1       3.898   3.646   5.087  0.00  0.00    -0.270 N 
ATOM     12  C   UNL     1       2.913   4.035   5.921  0.00  0.00    +0.217 C 
ATOM     13  O   UNL     1       2.243   3.204   6.498  0.00  0.00    -0.276 OA
ATOM     14  C   UNL     1       2.644   5.502   6.138  0.00  0.00    +0.109 C 
ENDBRANCH   1   2
BRANCH   1  16
ATOM     15  N   UNL     1       1.386   1.593   2.434  0.00  0.00    -0.285 N 
ATOM     16  C   UNL     1       2.100   1.917   3.530  0.00  0.00    +0.219 C 
ATOM     17  O   UNL     1       1.534   2.308   4.529  0.00  0.00    -0.275 OA
ATOM     18  H   UNL     1       1.831   1.219   1.658  0.00  0.00    +0.155 HD
BRANCH  15  21
ATOM     19  C   UNL     1       0.174   2.360  -0.024  0.00  0.00    +0.047 C 
ATOM     20  C   UNL     1      -0.630   2.172   1.237  0.00  0.00    -0.011 A 
ATOM     21  C   UNL     1       0.002   1.797   2.415  0.00  0.00    +0.038 A 
ATOM     22  C   UNL     1      -0.743   1.626   3.575  0.00  0.00    +0.023 A 
ATOM     23  C   UNL     1      -2.109   1.828   3.554  0.00  0.00    +0.003 A 
ATOM     24  C   UNL     1      -2.736   2.201   2.380  0.00  0.00    +0.020 A 
ATOM     25  C   UNL     1      -1.997   2.378   1.223  0.00  0.00    +0.046 A 
ATOM     26 CL   UNL     1      -2.787   2.854  -0.248  0.00  0.00    -0.083 Cl
ENDBRANCH  15  21
ENDBRANCH   1  16
TORSDOF 3
