REMARK  Name = ZINC39298874
REMARK  8 active torsions:
REMARK  status: ('A' for Active; 'I' for Inactive)
REMARK    1  A    between atoms: C_1  and  C_2
REMARK    2  A    between atoms: C_18  and  C_33
REMARK    3  A    between atoms: C_20  and  O_31
REMARK    4  A    between atoms: C_23  and  C_30
REMARK    5  A    between atoms: C_24  and  C_25
REMARK    6  A    between atoms: C_24  and  O_29
REMARK    7  A    between atoms: C_25  and  C_27
REMARK    8  A    between atoms: C_27  and  O_28
REMARK                            x       y       z     vdW  Elec       q    Type
REMARK                         _______ _______ _______ _____ _____    ______ ____
ROOT
ATOM      1  C   UNL     1       0.558   1.502   0.358  0.00  0.00    +0.011 C 
ATOM      2  C   UNL     1       0.504  -0.020   0.225  0.00  0.00    +0.026 C 
ATOM      3  C   UNL     1      -0.874  -0.491   0.304  0.00  0.00    +0.011 C 
ATOM      4  C   UNL     1      -0.923  -1.194   1.663  0.00  0.00    +0.005 C 
ATOM      5  C   UNL     1      -2.123  -2.209   1.870  0.00  0.00    +0.037 C 
ATOM      6  C   UNL     1      -3.240  -1.332   2.481  0.00  0.00    +0.048 C 
ATOM      7  C   UNL     1      -4.462  -2.142   2.976  0.00  0.00    +0.194 C 
ATOM      8  C   UNL     1      -3.842  -3.119   3.892  0.00  0.00    -0.020 C 
ATOM      9  C   UNL     1      -4.252  -3.221   5.223  0.00  0.00    +0.055 C 
ATOM     10  C   UNL     1      -3.731  -4.218   6.127  0.00  0.00    +0.197 C 
ATOM     11  O   UNL     1      -4.005  -4.167   7.241  0.00  0.00    -0.286 OA
ATOM     12  C   UNL     1      -2.802  -5.272   5.503  0.00  0.00    +0.085 C 
ATOM     13  C   UNL     1      -2.437  -5.170   4.320  0.00  0.00    +0.011 C 
ATOM     14  C   UNL     1      -2.835  -4.120   3.360  0.00  0.00    +0.048 C 
ATOM     15  C   UNL     1      -1.663  -3.327   2.695  0.00  0.00    +0.153 C 
ATOM     16  C   UNL     1      -0.626  -2.913   3.719  0.00  0.00    +0.154 C 
ATOM     17  C   UNL     1       0.654  -2.581   3.050  0.00  0.00    +0.044 C 
ATOM     18  C   UNL     1       0.399  -1.834   1.722  0.00  0.00    +0.010 C 
ATOM     19  C   UNL     1       1.323  -0.616   1.356  0.00  0.00    +0.134 C 
ATOM     20  C   UNL     1       0.659  -2.857   0.599  0.00  0.00    +0.015 C 
ATOM     21  F   UNL     1      -1.056  -4.265   1.839  0.00  0.00    -0.238 F 
ATOM     22  C   UNL     1      -3.480  -4.820   2.240  0.00  0.00    +0.023 C 
ATOM     23 CL   UNL     1      -2.285  -6.593   6.600  0.00  0.00    -0.080 Cl
ATOM     24  F   UNL     1      -5.308  -1.342   3.608  0.00  0.00    -0.241 F 
ENDROOT
BRANCH  19  25
ATOM     25  C   UNL     1       1.447   0.258   2.525  0.00  0.00    +0.190 C 
ATOM     26  O   UNL     1       0.606   0.232   3.391  0.00  0.00    -0.292 OA
BRANCH  25  27
ATOM     27  C   UNL     1       2.625   1.190   2.647  0.00  0.00    +0.233 C 
BRANCH  27  28
ATOM     28  O   UNL     1       2.460   2.018   3.800  0.00  0.00    -0.387 OA
ATOM     29  H   UNL     1       3.183   2.644   3.941  0.00  0.00    +0.210 HD
ENDBRANCH  27  28
ENDBRANCH  25  27
ENDBRANCH  19  25
BRANCH  19  30
ATOM     30  O   UNL     1       2.636  -1.061   0.931  0.00  0.00    -0.380 OA
ATOM     31  H   UNL     1       3.197  -0.355   0.582  0.00  0.00    +0.211 HD
ENDBRANCH  19  30
BRANCH  16  32
ATOM     32  O   UNL     1      -1.105  -1.757   4.505  0.00  0.00    -0.389 OA
ATOM     33  H   UNL     1      -0.480  -1.450   5.175  0.00  0.00    +0.210 HD
ENDBRANCH  16  32
TORSDOF 5
