REMARK  Name = ZINC06050268
REMARK  8 active torsions:
REMARK  status: ('A' for Active; 'I' for Inactive)
REMARK    1  A    between atoms: C_1  and  C_2
REMARK    2  A    between atoms: C_2  and  C_21
REMARK    3  A    between atoms: C_4  and  N_11
REMARK    4  A    between atoms: C_7  and  C_9
REMARK    5  A    between atoms: C_7  and  C_10
REMARK    6  A    between atoms: N_14  and  C_15
REMARK    7  A    between atoms: C_21  and  N_22
REMARK    8  A    between atoms: N_25  and  C_26
REMARK                            x       y       z     vdW  Elec       q    Type
REMARK                         _______ _______ _______ _____ _____    ______ ____
ROOT
ATOM      1  C   UNL     1      -0.019   1.527   0.010  0.00  0.00    +0.013 C 
ATOM      2  C   UNL     1       0.002  -0.004   0.002  0.00  0.00    -0.014 C 
ATOM      3  C   UNL     1       0.593  -0.510  -1.309  0.00  0.00    +0.030 C 
ATOM      4  C   UNL     1       2.100  -0.271  -1.353  0.00  0.00    +0.075 C 
ATOM      5  C   UNL     1       2.756  -1.047  -0.213  0.00  0.00    +0.028 C 
ATOM      6  C   UNL     1       2.244  -0.560   1.138  0.00  0.00    -0.033 C 
ATOM      7  C   UNL     1       0.729  -0.547   1.218  0.00  0.00    +0.014 C 
ATOM      8  C   UNL     1       2.770  -1.534   2.216  0.00  0.00    +0.011 C 
ATOM      9  C   UNL     1       2.825   0.822   1.451  0.00  0.00    +0.011 C 
ENDROOT
BRANCH   4  10
ATOM     10  N   UNL     1       2.627  -0.761  -2.634  0.00  0.00    -0.297 N 
ATOM     11  C   UNL     1       3.767  -0.245  -3.135  0.00  0.00    +0.300 C 
ATOM     12  O   UNL     1       4.358   0.626  -2.528  0.00  0.00    -0.253 OA
ATOM     13  N   UNL     1       4.250  -0.695  -4.310  0.00  0.00    -0.297 N 
ATOM     14  H   UNL     1       2.155  -1.457  -3.118  0.00  0.00    +0.151 HD
ATOM     15  H   UNL     1       3.778  -1.390  -4.795  0.00  0.00    +0.151 HD
BRANCH  13  16
ATOM     16  C   UNL     1       5.489  -0.134  -4.855  0.00  0.00    +0.074 C 
ATOM     17  C   UNL     1       5.169   1.139  -5.642  0.00  0.00    +0.022 C 
ATOM     18  C   UNL     1       6.462   1.725  -6.211  0.00  0.00    +0.002 C 
ATOM     19  C   UNL     1       7.120   0.703  -7.141  0.00  0.00    +0.000 C 
ATOM     20  C   UNL     1       7.440  -0.570  -6.354  0.00  0.00    +0.002 C 
ATOM     21  C   UNL     1       6.146  -1.156  -5.785  0.00  0.00    +0.022 C 
ENDBRANCH  13  16
ENDBRANCH   4  10
BRANCH   2  22
ATOM     22  C   UNL     1      -1.465  -0.484   0.070  0.00  0.00    +0.112 C 
BRANCH  22  23
ATOM     23  N   UNL     1      -2.200   0.027  -1.089  0.00  0.00    -0.299 N 
ATOM     24  C   UNL     1      -3.507  -0.266  -1.242  0.00  0.00    +0.300 C 
ATOM     25  O   UNL     1      -4.075  -0.955  -0.416  0.00  0.00    -0.253 OA
ATOM     26  N   UNL     1      -4.183   0.204  -2.308  0.00  0.00    -0.297 N 
ATOM     27  H   UNL     1      -1.746   0.576  -1.748  0.00  0.00    +0.150 HD
ATOM     28  H   UNL     1      -3.729   0.753  -2.967  0.00  0.00    +0.151 HD
BRANCH  26  29
ATOM     29  C   UNL     1      -5.603  -0.115  -2.474  0.00  0.00    +0.074 C 
ATOM     30  C   UNL     1      -5.744  -1.472  -3.167  0.00  0.00    +0.022 C 
ATOM     31  C   UNL     1      -7.228  -1.805  -3.339  0.00  0.00    +0.002 C 
ATOM     32  C   UNL     1      -7.897  -0.725  -4.192  0.00  0.00    +0.000 C 
ATOM     33  C   UNL     1      -7.756   0.632  -3.499  0.00  0.00    +0.002 C 
ATOM     34  C   UNL     1      -6.272   0.965  -3.326  0.00  0.00    +0.022 C 
ENDBRANCH  26  29
ENDBRANCH  22  23
ENDBRANCH   2  22
TORSDOF 5
