REMARK  Name = ZINC39468116
REMARK  7 active torsions:
REMARK  status: ('A' for Active; 'I' for Inactive)
REMARK    1  A    between atoms: C_1  and  O_2
REMARK    2  A    between atoms: O_2  and  P_3
REMARK    3  A    between atoms: C_11  and  C_31
REMARK    4  A    between atoms: C_12  and  S_21
REMARK    5  A    between atoms: S_21  and  O_24
REMARK    6  A    between atoms: O_24  and  C_25
REMARK    7  A    between atoms: C_36  and  O_37
REMARK                            x       y       z     vdW  Elec       q    Type
REMARK                         _______ _______ _______ _____ _____    ______ ____
ROOT
ATOM      1  P   UNL     1      -1.336  -0.899   0.010  0.00  0.00    +0.421 P 
ATOM      2  O   UNL     1      -2.288  -0.406  -1.010  0.00  0.00    -0.239 OA
ATOM      3  N   UNL     1      -2.032  -0.875   1.507  0.00  0.00    -0.156 NA
ATOM      4  N   UNL     1      -1.483  -1.684   2.482  0.00  0.00    -0.228 NA
ATOM      5  C   UNL     1      -2.318  -1.541   3.687  0.00  0.00    +0.111 C 
ATOM      6  C   UNL     1      -1.764  -2.368   4.838  0.00  0.00    +0.035 C 
ATOM      7  C   UNL     1      -0.382  -1.902   5.210  0.00  0.00    -0.011 C 
ATOM      8  C   UNL     1       0.439  -2.741   5.865  0.00  0.00    +0.010 C 
ATOM      9  C   UNL     1      -0.041  -4.096   6.214  0.00  0.00    +0.132 C 
ATOM     10  C   UNL     1      -1.054  -4.629   5.542  0.00  0.00    +0.008 C 
ATOM     11  C   UNL     1      -1.694  -3.841   4.426  0.00  0.00    +0.023 C 
ATOM     12  C   UNL     1      -0.832  -3.954   3.167  0.00  0.00    +0.031 C 
ATOM     13  C   UNL     1      -1.401  -3.080   2.044  0.00  0.00    +0.100 C 
ATOM     14  C   UNL     1      -0.470  -3.237   0.835  0.00  0.00    +0.191 C 
ATOM     15  O   UNL     1      -0.972  -2.461  -0.267  0.00  0.00    -0.294 OA
ATOM     16  H   UNL     1      -2.800  -0.313   1.694  0.00  0.00    +0.153 HD
ENDROOT
BRANCH   8  17
ATOM     17  C   UNL     1       1.811  -2.313   6.233  0.00  0.00    +0.025 A 
ATOM     18  C   UNL     1       2.113  -1.992   7.555  0.00  0.00    +0.012 A 
ATOM     19  C   UNL     1       3.390  -1.595   7.892  0.00  0.00    +0.001 A 
ATOM     20  C   UNL     1       4.374  -1.513   6.922  0.00  0.00    +0.004 A 
ATOM     21  C   UNL     1       4.085  -1.829   5.608  0.00  0.00    +0.046 A 
ATOM     22  C   UNL     1       2.808  -2.236   5.256  0.00  0.00    +0.125 A 
BRANCH  22  23
ATOM     23  O   UNL     1       2.525  -2.553   3.966  0.00  0.00    -0.506 OA
ATOM     24  H   UNL     1       2.223  -1.803   3.434  0.00  0.00    +0.292 HD
ENDBRANCH  22  23
ENDBRANCH   8  17
BRANCH   9  25
ATOM     25  S   UNL     1       0.730  -4.999   7.516  0.00  0.00    +0.151 S 
ATOM     26  O   UNL     1       0.196  -6.315   7.469  0.00  0.00    -0.131 OA
ATOM     27  O   UNL     1       2.123  -4.738   7.422  0.00  0.00    -0.131 OA
BRANCH  25  28
ATOM     28  O   UNL     1       0.260  -4.386   8.828  0.00  0.00    -0.342 OA
BRANCH  28  29
ATOM     29  C   UNL     1      -1.016  -4.710   9.164  0.00  0.00    +0.157 A 
ATOM     30  C   UNL     1      -2.070  -3.916   8.737  0.00  0.00    +0.048 A 
ATOM     31  C   UNL     1      -3.367  -4.248   9.079  0.00  0.00    +0.004 A 
ATOM     32  C   UNL     1      -3.614  -5.371   9.847  0.00  0.00    +0.000 A 
ATOM     33  C   UNL     1      -2.565  -6.164  10.274  0.00  0.00    +0.004 A 
ATOM     34  C   UNL     1      -1.267  -5.840   9.929  0.00  0.00    +0.048 A 
ENDBRANCH  28  29
ENDBRANCH  25  28
ENDBRANCH   9  25
BRANCH   1  36
ATOM     35  C   UNL     1      -0.017   1.425   0.010  0.00  0.00    +0.206 C 
ATOM     36  O   UNL     1       0.002  -0.004   0.002  0.00  0.00    -0.299 OA
ENDBRANCH   1  36
TORSDOF 6
