REMARK  Name = ZINC67299203
REMARK  5 active torsions:
REMARK  status: ('A' for Active; 'I' for Inactive)
REMARK    1  A    between atoms: C_3  and  C_6
REMARK    2  A    between atoms: C_6  and  N_7
REMARK    3  A    between atoms: C_8  and  C_10
REMARK    4  A    between atoms: C_15  and  O_31
REMARK    5  A    between atoms: N_20  and  C_21
REMARK                            x       y       z     vdW  Elec       q    Type
REMARK                         _______ _______ _______ _____ _____    ______ ____
ROOT
ATOM      1  C   UNL     1       5.836   0.219   2.895  0.00  0.00    +0.097 A 
ATOM      2  C   UNL     1       7.213   0.217   3.069  0.00  0.00    +0.030 A 
ATOM      3  C   UNL     1       7.721   0.301   4.391  0.00  0.00    +0.018 A 
ATOM      4  C   UNL     1       9.091   0.505   4.612  0.00  0.00    +0.015 A 
ATOM      5  C   UNL     1       9.563   0.626   5.886  0.00  0.00    +0.046 A 
ATOM      6  C   UNL     1       8.694   0.542   6.973  0.00  0.00    +0.120 A 
ATOM      7  C   UNL     1       7.340   0.321   6.774  0.00  0.00    +0.092 A 
ATOM      8  C   UNL     1       6.845   0.188   5.488  0.00  0.00    +0.141 A 
ATOM      9  O   UNL     1       5.530  -0.071   5.284  0.00  0.00    -0.438 OA
ATOM     10  C   UNL     1       4.999   0.348   4.104  0.00  0.00    +0.212 A 
ATOM     11  N   UNL     1       3.784   0.847   4.039  0.00  0.00    -0.325 N 
ATOM     12  H   UNL     1       3.458   1.223   3.207  0.00  0.00    +0.169 HD
ENDROOT
BRANCH  11  13
ATOM     13  C   UNL     1       2.980   0.836   5.147  0.00  0.00    +0.046 A 
ATOM     14  C   UNL     1       2.892  -0.313   5.937  0.00  0.00    +0.029 A 
ATOM     15  C   UNL     1       2.081  -0.321   7.052  0.00  0.00    +0.051 A 
ATOM     16  C   UNL     1       1.349   0.808   7.394  0.00  0.00    +0.162 A 
ATOM     17  C   UNL     1       1.434   1.956   6.613  0.00  0.00    +0.164 A 
ATOM     18  C   UNL     1       2.250   1.973   5.494  0.00  0.00    +0.075 A 
ATOM     19  O   UNL     1       0.729   3.074   6.939  0.00  0.00    -0.485 OA
ATOM     20  C   UNL     1      -0.359   2.905   7.854  0.00  0.00    +0.270 C 
ATOM     21  C   UNL     1       0.126   2.037   9.023  0.00  0.00    +0.270 C 
ATOM     22  O   UNL     1       0.551   0.775   8.497  0.00  0.00    -0.485 OA
ENDBRANCH  11  13
BRANCH   1  24
ATOM     23  N   UNL     1       6.024  -0.034   0.472  0.00  0.00    -0.304 N 
ATOM     24  C   UNL     1       5.235   0.102   1.556  0.00  0.00    +0.250 C 
ATOM     25  O   UNL     1       4.026   0.128   1.429  0.00  0.00    -0.270 OA
ATOM     26  H   UNL     1       6.988   0.026   0.564  0.00  0.00    +0.149 HD
BRANCH  23  27
ATOM     27  C   UNL     1       5.426  -0.271  -0.844  0.00  0.00    +0.179 C 
BRANCH  27  30
ATOM     28  C   UNL     1       8.082  -1.168  -3.236  0.00  0.00    +0.041 A 
ATOM     29  C   UNL     1       7.136  -1.520  -2.246  0.00  0.00    +0.046 A 
ATOM     30  C   UNL     1       6.517  -0.384  -1.878  0.00  0.00    +0.122 A 
ATOM     31  O   UNL     1       7.035   0.631  -2.588  0.00  0.00    -0.466 OA
ATOM     32  C   UNL     1       7.984   0.162  -3.413  0.00  0.00    +0.195 A 
ENDBRANCH  27  30
ENDBRANCH  23  27
ENDBRANCH   1  24
BRANCH   6  33
ATOM     33  O   UNL     1       9.178   0.676   8.234  0.00  0.00    -0.507 OA
ATOM     34  H   UNL     1       9.182   1.587   8.559  0.00  0.00    +0.292 HD
ENDBRANCH   6  33
TORSDOF 5
