REMARK  Name = ZINC00522659
REMARK  5 active torsions:
REMARK  status: ('A' for Active; 'I' for Inactive)
REMARK    1  A    between atoms: C_1  and  C_2
REMARK    2  A    between atoms: C_2  and  C_3
REMARK    3  A    between atoms: C_3  and  C_4
REMARK    4  A    between atoms: C_13  and  C_16
REMARK    5  A    between atoms: N_19  and  N_20
REMARK                            x       y       z     vdW  Elec       q    Type
REMARK                         _______ _______ _______ _____ _____    ______ ____
ROOT
ATOM      1  C   UNL     1      -3.066   3.186  -5.119  0.00  0.00    +0.131 A 
ATOM      2  N   UNL     1      -1.882   2.663  -4.886  0.00  0.00    -0.225 NA
ATOM      3  C   UNL     1      -1.594   2.337  -3.630  0.00  0.00    +0.116 A 
ATOM      4  C   UNL     1      -2.481   2.520  -2.546  0.00  0.00    +0.077 A 
ATOM      5  C   UNL     1      -1.994   2.105  -1.243  0.00  0.00    -0.022 A 
ATOM      6  C   UNL     1      -0.745   1.586  -1.199  0.00  0.00    -0.004 A 
ATOM      7  S   UNL     1      -0.165   1.627  -2.876  0.00  0.00    -0.073 S 
ATOM      8  C   UNL     1      -0.013   1.086   0.008  0.00  0.00    +0.043 C 
ATOM      9  C   UNL     1      -0.740   1.585   1.265  0.00  0.00    +0.009 C 
ATOM     10  C   UNL     1      -2.242   1.309   1.099  0.00  0.00    -0.009 C 
ATOM     11  C   UNL     1      -2.826   2.233   0.030  0.00  0.00    +0.040 C 
ATOM     12  C   UNL     1      -2.953   1.558   2.430  0.00  0.00    +0.008 C 
ATOM     13  C   UNL     1      -3.763   3.094  -2.843  0.00  0.00    +0.279 A 
ATOM     14  O   UNL     1      -4.600   3.293  -1.980  0.00  0.00    -0.265 OA
ATOM     15  N   UNL     1      -3.983   3.399  -4.144  0.00  0.00    -0.218 N 
ENDROOT
BRANCH  15  16
ATOM     16  N   UNL     1      -5.185   3.948  -4.490  0.00  0.00    -0.294 N 
ATOM     17  H   UNL     1      -5.779   4.057  -3.681  0.00  0.00    +0.163 HD
ATOM     18  H   UNL     1      -5.057   4.829  -4.965  0.00  0.00    +0.163 HD
ENDBRANCH  15  16
BRANCH   1  19
ATOM     19  C   UNL     1      -3.420   3.565  -6.534  0.00  0.00    +0.076 C 
BRANCH  19  21
ATOM     20  C   UNL     1      -2.605   3.623  -8.894  0.00  0.00    +0.004 C 
ATOM     21  C   UNL     1      -2.246   3.238  -7.458  0.00  0.00    +0.004 C 
ENDBRANCH  19  21
ENDBRANCH   1  19
TORSDOF 3
