REMARK  Name = ZINC18198949
REMARK  7 active torsions:
REMARK  status: ('A' for Active; 'I' for Inactive)
REMARK    1  A    between atoms: C_1  and  O_2
REMARK    2  A    between atoms: O_2  and  C_3
REMARK    3  A    between atoms: C_6  and  C_11
REMARK    4  A    between atoms: C_8  and  O_9
REMARK    5  A    between atoms: O_9  and  C_10
REMARK    6  A    between atoms: C_16  and  C_25
REMARK    7  A    between atoms: C_29  and  O_31
REMARK                            x       y       z     vdW  Elec       q    Type
REMARK                         _______ _______ _______ _____ _____    ______ ____
ROOT
ATOM      1  C   UNL     1      -2.301   4.447   3.500  0.00  0.00    +0.032 C 
ATOM      2  C   UNL     1      -1.362   5.125   2.500  0.00  0.00    +0.060 C 
ATOM      3  C   UNL     1      -1.293   4.306   1.233  0.00  0.00    +0.020 C 
ATOM      4  C   UNL     1      -1.423   2.962   1.268  0.00  0.00    +0.041 C 
ATOM      5  C   UNL     1      -1.332   2.112   0.020  0.00  0.00    +0.176 C 
ATOM      6  N   UNL     1      -1.425   2.954  -1.166  0.00  0.00    -0.219 N 
ATOM      7  C   UNL     1      -1.302   4.304  -1.134  0.00  0.00    +0.220 A 
ATOM      8  N   UNL     1      -1.426   4.752  -2.354  0.00  0.00    -0.180 NA
ATOM      9  C   UNL     1      -1.631   3.724  -3.189  0.00  0.00    +0.233 A 
ATOM     10  N   UNL     1      -1.639   2.605  -2.498  0.00  0.00    -0.132 NA
ATOM     11  N   UNL     1      -1.810   3.825  -4.570  0.00  0.00    -0.326 N 
ATOM     12  N   UNL     1      -1.089   4.983   0.054  0.00  0.00    -0.287 N 
ATOM     13  C   UNL     1      -1.651   2.291   2.483  0.00  0.00    +0.164 C 
ATOM     14  O   UNL     1      -1.755   1.080   2.483  0.00  0.00    -0.292 OA
ATOM     15  C   UNL     1      -1.770   3.038   3.782  0.00  0.00    +0.088 C 
ATOM     16  H   UNL     1      -1.954   3.026  -5.100  0.00  0.00    +0.145 HD
ATOM     17  H   UNL     1      -1.790   4.695  -4.999  0.00  0.00    +0.145 HD
ATOM     18  H   UNL     1      -0.804   5.910   0.055  0.00  0.00    +0.155 HD
ENDROOT
BRANCH   1  22
ATOM     19  C   UNL     1      -2.402   6.702   7.132  0.00  0.00    +0.161 A 
ATOM     20  C   UNL     1      -1.206   6.173   6.675  0.00  0.00    +0.049 A 
ATOM     21  C   UNL     1      -1.177   5.440   5.503  0.00  0.00    +0.008 A 
ATOM     22  C   UNL     1      -2.338   5.242   4.780  0.00  0.00    -0.040 A 
ATOM     23  C   UNL     1      -3.535   5.768   5.230  0.00  0.00    +0.053 A 
ATOM     24  C   UNL     1      -3.572   6.499   6.407  0.00  0.00    +0.162 A 
BRANCH  19  26
ATOM     25  C   UNL     1      -1.194   7.588   8.979  0.00  0.00    +0.277 C 
ATOM     26  O   UNL     1      -2.433   7.419   8.287  0.00  0.00    -0.491 OA
ENDBRANCH  19  26
BRANCH  24  27
ATOM     27  O   UNL     1      -4.748   7.016   6.851  0.00  0.00    -0.491 OA
ATOM     28  C   UNL     1      -5.908   6.768   6.055  0.00  0.00    +0.277 C 
ENDBRANCH  24  27
ENDBRANCH   1  22
BRANCH   5  29
ATOM     29  C   UNL     1      -0.017   1.377   0.010  0.00  0.00    -0.015 A 
ATOM     30  C   UNL     1       1.171   2.086   0.002  0.00  0.00    +0.006 A 
ATOM     31  C   UNL     1       2.379   1.415  -0.013  0.00  0.00    +0.004 A 
ATOM     32  C   UNL     1       2.403   0.033  -0.021  0.00  0.00    +0.045 A 
ATOM     33  C   UNL     1       1.214  -0.680  -0.013  0.00  0.00    +0.117 A 
ATOM     34  C   UNL     1       0.002  -0.004   0.002  0.00  0.00    +0.051 A 
BRANCH  33  35
ATOM     35  O   UNL     1       1.235  -2.039  -0.021  0.00  0.00    -0.507 OA
ATOM     36  H   UNL     1       1.232  -2.427  -0.907  0.00  0.00    +0.292 HD
ENDBRANCH  33  35
ENDBRANCH   5  29
TORSDOF 5
