REMARK  Name = ZINC06237788
REMARK  4 active torsions:
REMARK  status: ('A' for Active; 'I' for Inactive)
REMARK    1  A    between atoms: C_8  and  C_12
REMARK    2  A    between atoms: N_14  and  N_15
REMARK    3  A    between atoms: C_16  and  C_18
REMARK    4  A    between atoms: C_18  and  C_19
REMARK                            x       y       z     vdW  Elec       q    Type
REMARK                         _______ _______ _______ _____ _____    ______ ____
ROOT
ATOM      1  C   UNL     1      -8.268   1.276   2.889  0.00  0.00    +0.267 C 
ATOM      2  O   UNL     1      -8.857   0.573   2.090  0.00  0.00    -0.268 OA
ATOM      3  N   UNL     1      -6.984   1.621   2.665  0.00  0.00    -0.230 N 
ATOM      4  H   UNL     1      -6.515   2.181   3.302  0.00  0.00    +0.173 HD
ENDROOT
BRANCH   1  12
ATOM      5  C   UNL     1      -9.046   4.213   8.228  0.00  0.00    +0.001 A 
ATOM      6  C   UNL     1     -10.368   3.836   8.422  0.00  0.00    +0.004 A 
ATOM      7  C   UNL     1     -11.013   3.038   7.502  0.00  0.00    +0.047 A 
ATOM      8  C   UNL     1     -10.340   2.603   6.365  0.00  0.00    +0.139 A 
ATOM      9  C   UNL     1      -9.001   2.987   6.170  0.00  0.00    +0.018 A 
ATOM     10  C   UNL     1      -8.364   3.799   7.120  0.00  0.00    +0.011 A 
ATOM     11  C   UNL     1      -8.297   2.547   5.021  0.00  0.00    +0.031 A 
ATOM     12  C   UNL     1      -8.957   1.751   4.101  0.00  0.00    +0.123 A 
ATOM     13  C   UNL     1     -10.355   1.384   4.357  0.00  0.00    +0.350 A 
ATOM     14  O   UNL     1     -10.953   0.681   3.564  0.00  0.00    -0.244 OA
ATOM     15  O   UNL     1     -10.975   1.822   5.465  0.00  0.00    -0.422 OA
ENDBRANCH   1  12
BRANCH   3  16
ATOM     16  N   UNL     1      -6.329   1.169   1.513  0.00  0.00    -0.234 N 
ATOM     17  C   UNL     1      -5.045   1.513   1.289  0.00  0.00    +0.230 C 
ATOM     18  O   UNL     1      -4.457   2.214   2.085  0.00  0.00    -0.274 OA
ATOM     19  H   UNL     1      -6.799   0.608   0.875  0.00  0.00    +0.173 HD
BRANCH  17  20
ATOM     20  C   UNL     1      -4.340   1.027   0.049  0.00  0.00    +0.104 C 
BRANCH  20  21
ATOM     21  C   UNL     1      -2.904   1.556   0.038  0.00  0.00    -0.020 C 
ATOM     22  C   UNL     1      -2.188   1.063  -1.221  0.00  0.00    +0.011 C 
ATOM     23  C   UNL     1      -0.753   1.593  -1.232  0.00  0.00    -0.010 C 
ATOM     24  C   UNL     1      -0.013   1.086   0.008  0.00  0.00    +0.007 C 
ATOM     25  C   UNL     1      -0.729   1.579   1.267  0.00  0.00    -0.010 C 
ATOM     26  C   UNL     1      -2.164   1.050   1.278  0.00  0.00    +0.011 C 
ATOM     27  C   UNL     1      -0.750   3.109   1.275  0.00  0.00    +0.007 C 
ATOM     28  C   UNL     1      -1.490   3.616   0.036  0.00  0.00    -0.010 C 
ATOM     29  C   UNL     1      -0.773   3.123  -1.223  0.00  0.00    +0.007 C 
ATOM     30  C   UNL     1      -2.925   3.086   0.047  0.00  0.00    +0.011 C 
ENDBRANCH  20  21
ENDBRANCH  17  20
ENDBRANCH   3  16
TORSDOF 4
