REMARK  Name = ZINC65302870
REMARK  7 active torsions:
REMARK  status: ('A' for Active; 'I' for Inactive)
REMARK    1  A    between atoms: C_1  and  C_2
REMARK    2  A    between atoms: C_3  and  C_9
REMARK    3  A    between atoms: C_4  and  C_8
REMARK    4  A    between atoms: N_5  and  C_7
REMARK    5  A    between atoms: C_9  and  C_10
REMARK    6  A    between atoms: C_9  and  N_11
REMARK    7  A    between atoms: N_14  and  C_15
REMARK                            x       y       z     vdW  Elec       q    Type
REMARK                         _______ _______ _______ _____ _____    ______ ____
ROOT
ATOM      1  N   UNL     1       0.950   0.755  -2.727  0.00  0.00    -0.292 N 
ATOM      2  C   UNL     1       1.495   1.002  -3.935  0.00  0.00    +0.304 C 
ATOM      3  O   UNL     1       1.190   0.315  -4.891  0.00  0.00    -0.252 OA
ATOM      4  N   UNL     1       2.377   2.010  -4.083  0.00  0.00    -0.269 N 
ATOM      5  H   UNL     1       1.193   1.303  -1.965  0.00  0.00    +0.151 HD
ATOM      6  H   UNL     1       2.570   2.599  -3.338  0.00  0.00    +0.156 HD
ENDROOT
BRANCH   4   7
ATOM      7  C   UNL     1       3.016   2.205  -5.313  0.00  0.00    +0.038 A 
ATOM      8  C   UNL     1       4.331   2.648  -5.351  0.00  0.00    +0.043 A 
ATOM      9  C   UNL     1       4.960   2.841  -6.567  0.00  0.00    +0.044 A 
ATOM     10  C   UNL     1       4.279   2.593  -7.746  0.00  0.00    +0.040 A 
ATOM     11  C   UNL     1       2.968   2.152  -7.711  0.00  0.00    +0.044 A 
ATOM     12  C   UNL     1       2.337   1.952  -6.497  0.00  0.00    +0.043 A 
ATOM     13 CL   UNL     1       2.116   1.843  -9.192  0.00  0.00    -0.083 Cl
ATOM     14 CL   UNL     1       6.604   3.395  -6.615  0.00  0.00    -0.083 Cl
ENDBRANCH   4   7
BRANCH   1  15
ATOM     15  C   UNL     1      -0.009  -0.340  -2.566  0.00  0.00    +0.105 C 
ATOM     16  C   UNL     1      -1.410   0.150  -2.935  0.00  0.00    +0.033 C 
BRANCH  15  19
ATOM     17  C   UNL     1      -0.038   1.518   0.000  0.00  0.00    +0.068 C 
ATOM     18  C   UNL     1      -0.015   0.012  -0.000  0.00  0.00    +0.065 A 
ATOM     19  C   UNL     1      -0.001  -0.808  -1.133  0.00  0.00    +0.016 A 
ATOM     20  C   UNL     1       0.019  -2.095  -0.716  0.00  0.00    +0.041 A 
ATOM     21  N   UNL     1       0.019  -2.090   0.633  0.00  0.00    -0.271 N 
ATOM     22  N   UNL     1       0.002  -0.756   1.059  0.00  0.00    -0.176 NA
ATOM     23  C   UNL     1       0.037  -3.271   1.500  0.00  0.00    +0.172 C 
ATOM     24  C   UNL     1       0.039  -3.316  -1.600  0.00  0.00    +0.065 C 
ENDBRANCH  15  19
ENDBRANCH   1  15
TORSDOF 3
