REMARK  Name = ZINC32575642
REMARK  11 active torsions:
REMARK  status: ('A' for Active; 'I' for Inactive)
REMARK    1  A    between atoms: C_1  and  C_2
REMARK    2  A    between atoms: C_3  and  C_25
REMARK    3  A    between atoms: C_4  and  C_24
REMARK    4  A    between atoms: C_5  and  S_10
REMARK    5  A    between atoms: C_6  and  C_9
REMARK    6  A    between atoms: C_7  and  C_8
REMARK    7  A    between atoms: S_10  and  N_13
REMARK    8  A    between atoms: N_13  and  N_14
REMARK    9  A    between atoms: C_15  and  C_16
REMARK   10  A    between atoms: C_20  and  O_23
REMARK   11  A    between atoms: C_21  and  O_22
REMARK                            x       y       z     vdW  Elec       q    Type
REMARK                         _______ _______ _______ _____ _____    ______ ____
ROOT
ATOM      1  S   UNL     1       1.170   7.980  -0.264  0.00  0.00    +0.087 S 
ATOM      2  O   UNL     1      -0.118   8.575  -0.343  0.00  0.00    -0.149 OA
ATOM      3  O   UNL     1       2.175   8.454   0.621  0.00  0.00    -0.149 OA
ENDROOT
BRANCH   1   8
ATOM      4  C   UNL     1       3.518   8.210  -5.818  0.00  0.00    +0.044 C 
ATOM      5  C   UNL     1       2.931   8.153  -4.431  0.00  0.00    -0.044 A 
ATOM      6  C   UNL     1       1.565   8.024  -4.263  0.00  0.00    -0.043 A 
ATOM      7  C   UNL     1       1.027   7.971  -2.990  0.00  0.00    -0.020 A 
ATOM      8  C   UNL     1       1.855   8.047  -1.886  0.00  0.00    +0.116 A 
ATOM      9  C   UNL     1       3.221   8.181  -2.054  0.00  0.00    -0.020 A 
ATOM     10  C   UNL     1       3.759   8.229  -3.326  0.00  0.00    -0.043 A 
ATOM     11  C   UNL     1       5.248   8.369  -3.510  0.00  0.00    +0.044 C 
ATOM     12  C   UNL     1       4.123   8.269  -0.850  0.00  0.00    +0.046 C 
ATOM     13  C   UNL     1      -0.462   7.831  -2.807  0.00  0.00    +0.046 C 
ATOM     14  C   UNL     1       0.662   7.941  -5.466  0.00  0.00    +0.044 C 
ENDBRANCH   1   8
BRANCH   1  15
ATOM     15  N   UNL     1       0.932   6.382   0.101  0.00  0.00    -0.137 N 
ATOM     16  H   UNL     1       0.040   6.058   0.302  0.00  0.00    +0.197 HD
BRANCH  15  17
ATOM     17  N   UNL     1       2.019   5.498   0.119  0.00  0.00    -0.174 NA
ATOM     18  C   UNL     1       1.816   4.223   0.244  0.00  0.00    +0.143 C 
BRANCH  18  19
ATOM     19  C   UNL     1       0.497   3.651  -0.084  0.00  0.00    +0.040 A 
ATOM     20  C   UNL     1      -0.337   4.291  -1.004  0.00  0.00    +0.013 A 
ATOM     21  C   UNL     1      -1.570   3.753  -1.308  0.00  0.00    +0.004 A 
ATOM     22  C   UNL     1      -1.990   2.582  -0.701  0.00  0.00    +0.049 A 
ATOM     23  C   UNL     1      -1.170   1.933   0.210  0.00  0.00    +0.159 A 
ATOM     24  C   UNL     1       0.074   2.464   0.525  0.00  0.00    +0.167 A 
BRANCH  24  25
ATOM     25  O   UNL     1       0.878   1.833   1.422  0.00  0.00    -0.503 OA
ATOM     26  H   UNL     1       0.544   0.900   1.899  0.00  0.00    +0.292 HD
ENDBRANCH  24  25
BRANCH  23  27
ATOM     27  O   UNL     1      -1.587   0.780   0.798  0.00  0.00    -0.503 OA
ATOM     28  H   UNL     1      -0.937   0.265   1.521  0.00  0.00    +0.292 HD
ENDBRANCH  23  27
ENDBRANCH  18  19
ENDBRANCH  15  17
ENDBRANCH   1  15
TORSDOF 6
