REMARK  Name = ZINC06480099
REMARK  3 active torsions:
REMARK  status: ('A' for Active; 'I' for Inactive)
REMARK    1  A    between atoms: C_1  and  N_2
REMARK    2  A    between atoms: C_6  and  S_7
REMARK    3  A    between atoms: S_7  and  C_8
REMARK                            x       y       z     vdW  Elec       q    Type
REMARK                         _______ _______ _______ _____ _____    ______ ____
ROOT
ATOM      1  C   UNL     1       2.488   1.504  -0.014  0.00  0.00    +0.152 C 
ATOM      2  N   UNL     1       1.078   1.901   0.002  0.00  0.00    -0.312 N 
ATOM      3  C   UNL     1      -0.013   1.076   0.008  0.00  0.00    +0.225 A 
ATOM      4  N   UNL     1      -1.073   1.834   0.017  0.00  0.00    -0.137 NA
ATOM      5  N   UNL     1      -0.729   3.072   0.025  0.00  0.00    -0.123 NA
ATOM      6  C   UNL     1       0.580   3.172   0.014  0.00  0.00    +0.191 A 
ENDROOT
BRANCH   6   7
ATOM      7  S   UNL     1       1.516   4.665   0.013  0.00  0.00    -0.089 S 
ATOM      8  C   UNL     1       0.174   5.878   0.032  0.00  0.00    +0.093 C 
ENDBRANCH   6   7
TORSDOF 1
