REMARK  Name = ZINC58489377
REMARK  10 active torsions:
REMARK  status: ('A' for Active; 'I' for Inactive)
REMARK    1  A    between atoms: C_1  and  C_2
REMARK    2  A    between atoms: C_4  and  C_8
REMARK    3  A    between atoms: C_5  and  C_7
REMARK    4  A    between atoms: C_10  and  C_18
REMARK    5  A    between atoms: C_12  and  C_17
REMARK    6  A    between atoms: C_18  and  O_20
REMARK    7  A    between atoms: O_20  and  C_21
REMARK    8  A    between atoms: C_21  and  C_23
REMARK    9  A    between atoms: C_21  and  C_24
REMARK   10  A    between atoms: N_29  and  C_30
REMARK                            x       y       z     vdW  Elec       q    Type
REMARK                         _______ _______ _______ _____ _____    ______ ____
ROOT
ATOM      1  C   UNL     1      -1.748  -3.252  -0.549  0.00  0.00    +0.076 A 
ATOM      2  C   UNL     1      -3.083  -2.847  -0.648  0.00  0.00    +0.044 A 
ATOM      3  C   UNL     1      -4.090  -3.791  -0.478  0.00  0.00    +0.075 A 
ATOM      4  C   UNL     1      -3.709  -5.124  -0.211  0.00  0.00    +0.077 A 
ATOM      5  C   UNL     1      -4.450  -6.362   0.021  0.00  0.00    +0.091 A 
ATOM      6  N   UNL     1      -3.578  -7.304   0.219  0.00  0.00    -0.080 NA
ATOM      7  O   UNL     1      -2.273  -6.770   0.134  0.00  0.00    -0.334 OA
ATOM      8  C   UNL     1      -2.345  -5.449  -0.127  0.00  0.00    +0.260 A 
ATOM      9  N   UNL     1      -1.426  -4.513  -0.302  0.00  0.00    -0.210 NA
ATOM     10  C   UNL     1      -5.949  -6.517   0.029  0.00  0.00    +0.070 C 
ENDROOT
BRANCH   1  14
ATOM     11  C   UNL     1       0.081   1.401  -1.423  0.00  0.00    +0.051 C 
ATOM     12  C   UNL     1       0.081  -0.079  -1.138  0.00  0.00    -0.012 A 
ATOM     13  C   UNL     1      -0.973  -0.913  -0.990  0.00  0.00    +0.021 A 
ATOM     14  C   UNL     1      -0.672  -2.251  -0.729  0.00  0.00    +0.011 A 
ATOM     15  C   UNL     1       0.641  -2.610  -0.644  0.00  0.00    -0.004 A 
ATOM     16  S   UNL     1       1.468  -1.175  -0.919  0.00  0.00    -0.098 S 
ATOM     17  C   UNL     1       1.215  -3.977  -0.375  0.00  0.00    +0.052 C 
ENDBRANCH   1  14
BRANCH   3  18
ATOM     18  C   UNL     1      -5.516  -3.410  -0.574  0.00  0.00    +0.341 C 
ATOM     19  O   UNL     1      -6.320  -4.183  -1.056  0.00  0.00    -0.245 OA
BRANCH  18  20
ATOM     20  O   UNL     1      -5.923  -2.207  -0.127  0.00  0.00    -0.449 OA
BRANCH  20  21
ATOM     21  C   UNL     1      -7.315  -1.905  -0.251  0.00  0.00    +0.259 C 
ATOM     22  C   UNL     1      -8.050  -2.364   1.010  0.00  0.00    +0.062 C 
BRANCH  21  23
ATOM     23  C   UNL     1      -7.493  -0.419  -0.424  0.00  0.00    +0.261 C 
ATOM     24  O   UNL     1      -6.525   0.310  -0.440  0.00  0.00    -0.271 OA
ATOM     25  N   UNL     1      -8.730   0.100  -0.562  0.00  0.00    -0.237 N 
ATOM     26  C   UNL     1      -8.889   1.429  -0.717  0.00  0.00    +0.306 C 
ATOM     27  O   UNL     1      -7.918   2.160  -0.732  0.00  0.00    -0.252 OA
ATOM     28  N   UNL     1     -10.126   1.948  -0.854  0.00  0.00    -0.296 N 
ATOM     29  H   UNL     1      -9.505  -0.483  -0.549  0.00  0.00    +0.159 HD
ATOM     30  H   UNL     1     -10.900   1.365  -0.841  0.00  0.00    +0.151 HD
BRANCH  28  31
ATOM     31  C   UNL     1     -10.299   3.393  -1.022  0.00  0.00    +0.075 C 
ATOM     32  C   UNL     1     -11.417   4.068  -0.225  0.00  0.00    +0.024 C 
ATOM     33  C   UNL     1     -11.564   3.874  -1.736  0.00  0.00    +0.024 C 
ENDBRANCH  28  31
ENDBRANCH  21  23
ENDBRANCH  20  21
ENDBRANCH  18  20
ENDBRANCH   3  18
TORSDOF 6
