REMARK  Name = ZINC09684367
REMARK  9 active torsions:
REMARK  status: ('A' for Active; 'I' for Inactive)
REMARK    1  A    between atoms: C_1  and  C_2
REMARK    2  A    between atoms: C_3  and  C_31
REMARK    3  A    between atoms: C_11  and  C_13
REMARK    4  A    between atoms: C_13  and  C_15
REMARK    5  A    between atoms: C_13  and  O_16
REMARK    6  A    between atoms: O_16  and  C_17
REMARK    7  A    between atoms: C_17  and  C_19
REMARK    8  A    between atoms: C_22  and  S_25
REMARK    9  A    between atoms: S_25  and  C_28
REMARK                            x       y       z     vdW  Elec       q    Type
REMARK                         _______ _______ _______ _____ _____    ______ ____
ROOT
ATOM      1  C   UNL     1      -2.481   0.816   0.019  0.00  0.00    +0.239 C 
ATOM      2  C   UNL     1      -3.651   1.724   0.403  0.00  0.00    +0.060 C 
ENDROOT
BRANCH   1  13
ATOM      3  C   UNL     1       3.651   3.525  -0.013  0.00  0.00    +0.045 C 
ATOM      4  C   UNL     1       2.227   4.017   0.002  0.00  0.00    -0.026 A 
ATOM      5  C   UNL     1       1.964   5.333   0.012  0.00  0.00    -0.008 A 
ATOM      6  S   UNL     1       0.182   5.398   0.029  0.00  0.00    -0.073 S 
ATOM      7  C   UNL     1      -0.156   3.656   0.022  0.00  0.00    +0.116 A 
ATOM      8  C   UNL     1       1.124   3.074   0.007  0.00  0.00    +0.075 A 
ATOM      9  C   UNL     1       1.153   1.641  -0.000  0.00  0.00    +0.260 A 
ATOM     10  O   UNL     1       2.216   1.043  -0.013  0.00  0.00    -0.267 OA
ATOM     11  N   UNL     1      -0.011   0.966   0.007  0.00  0.00    -0.307 N 
ATOM     12  H   UNL     1       0.002  -0.004   0.002  0.00  0.00    +0.170 HD
ATOM     13  C   UNL     1      -1.204   1.615   0.017  0.00  0.00    +0.152 A 
ATOM     14  N   UNL     1      -1.263   2.920   0.029  0.00  0.00    -0.223 NA
ATOM     15  C   UNL     1       2.940   6.481   0.009  0.00  0.00    +0.052 C 
ENDBRANCH   1  13
BRANCH   1  16
ATOM     16  O   UNL     1      -2.710   0.265  -1.305  0.00  0.00    -0.450 OA
BRANCH  16  17
ATOM     17  C   UNL     1      -3.375  -0.904  -1.375  0.00  0.00    +0.340 C 
ATOM     18  O   UNL     1      -3.753  -1.450  -0.357  0.00  0.00    -0.245 OA
BRANCH  17  19
ATOM     19  C   UNL     1      -3.644  -1.524  -2.688  0.00  0.00    +0.059 A 
ATOM     20  C   UNL     1      -3.216  -0.897  -3.860  0.00  0.00    +0.017 A 
ATOM     21  C   UNL     1      -3.466  -1.484  -5.084  0.00  0.00    +0.028 A 
ATOM     22  C   UNL     1      -4.150  -2.685  -5.151  0.00  0.00    +0.094 A 
ATOM     23  C   UNL     1      -4.582  -3.309  -3.994  0.00  0.00    +0.028 A 
ATOM     24  C   UNL     1      -4.333  -2.736  -2.764  0.00  0.00    +0.017 A 
BRANCH  22  25
ATOM     25  S   UNL     1      -4.470  -3.424  -6.718  0.00  0.00    +0.058 S 
ATOM     26  O   UNL     1      -3.440  -2.936  -7.567  0.00  0.00    -0.164 OA
ATOM     27  O   UNL     1      -4.587  -4.814  -6.447  0.00  0.00    -0.164 OA
BRANCH  25  28
ATOM     28  C   UNL     1      -6.074  -2.751  -7.232  0.00  0.00    +0.485 C 
ATOM     29  F   UNL     1      -7.048  -3.095  -6.288  0.00  0.00    -0.183 F 
ATOM     30  F   UNL     1      -5.987  -1.358  -7.325  0.00  0.00    -0.183 F 
ENDBRANCH  25  28
ENDBRANCH  22  25
ENDBRANCH  17  19
ENDBRANCH  16  17
ENDBRANCH   1  16
TORSDOF 6
