REMARK  Name = ZINC42910392
REMARK  9 active torsions:
REMARK  status: ('A' for Active; 'I' for Inactive)
REMARK    1  A    between atoms: C_1  and  C_2
REMARK    2  A    between atoms: N_4  and  C_5
REMARK    3  A    between atoms: C_5  and  C_6
REMARK    4  A    between atoms: C_6  and  N_7
REMARK    5  A    between atoms: N_10  and  C_11
REMARK    6  A    between atoms: C_13  and  C_19
REMARK    7  A    between atoms: C_13  and  C_20
REMARK    8  A    between atoms: C_15  and  C_17
REMARK    9  A    between atoms: C_15  and  C_18
REMARK                            x       y       z     vdW  Elec       q    Type
REMARK                         _______ _______ _______ _____ _____    ______ ____
ROOT
ATOM      1  N   UNL     1      -2.702  -4.041   0.298  0.00  0.00    -0.298 N 
ATOM      2  C   UNL     1      -3.863  -4.724   0.342  0.00  0.00    +0.300 C 
ATOM      3  O   UNL     1      -4.917  -4.126   0.441  0.00  0.00    -0.253 OA
ATOM      4  N   UNL     1      -3.855  -6.070   0.277  0.00  0.00    -0.297 N 
ATOM      5  H   UNL     1      -1.861  -4.518   0.219  0.00  0.00    +0.150 HD
ATOM      6  H   UNL     1      -3.014  -6.547   0.198  0.00  0.00    +0.151 HD
ENDROOT
BRANCH   4   7
ATOM      7  C   UNL     1      -5.120  -6.815   0.325  0.00  0.00    +0.072 C 
ATOM      8  C   UNL     1      -5.498  -7.068   1.786  0.00  0.00    +0.009 C 
ATOM      9  C   UNL     1      -6.808  -7.854   1.853  0.00  0.00    -0.072 C 
ATOM     10  N   UNL     1      -6.752  -9.079   1.070  0.00  0.00    +0.386 N 
ATOM     11  C   UNL     1      -6.212  -8.996  -0.278  0.00  0.00    -0.072 C 
ATOM     12  C   UNL     1      -4.936  -8.166  -0.364  0.00  0.00    +0.009 C 
ATOM     13  C   UNL     1      -5.855 -10.434  -0.724  0.00  0.00    -0.010 C 
ATOM     14  C   UNL     1      -7.248  -8.465  -1.271  0.00  0.00    -0.010 C 
ATOM     15  C   UNL     1      -7.980  -6.962   1.445  0.00  0.00    -0.010 C 
ATOM     16  C   UNL     1      -7.028  -8.253   3.330  0.00  0.00    -0.010 C 
ATOM     17  H   UNL     1      -6.208  -9.770   1.593  0.00  0.00    -0.084 HD
ATOM     18  H   UNL     1      -7.697  -9.468   1.016  0.00  0.00    -0.084 HD
ENDBRANCH   4   7
BRANCH   1  19
ATOM     19  C   UNL     1      -2.710  -2.578   0.369  0.00  0.00    +0.124 C 
BRANCH  19  20
ATOM     20  C   UNL     1      -1.274  -2.055   0.299  0.00  0.00    +0.123 C 
BRANCH  20  24
ATOM     21  C   UNL     1      -0.130   1.597   0.399  0.00  0.00    +0.109 C 
ATOM     22  C   UNL     1      -0.121   0.091   0.325  0.00  0.00    +0.210 C 
ATOM     23  O   UNL     1       0.930  -0.505   0.227  0.00  0.00    -0.276 OA
ATOM     24  N   UNL     1      -1.282  -0.592   0.370  0.00  0.00    -0.314 N 
ATOM     25  H   UNL     1      -2.123  -0.115   0.449  0.00  0.00    +0.149 HD
ENDBRANCH  20  24
ENDBRANCH  19  20
ENDBRANCH   1  19
TORSDOF 4
