REMARK  Name = ZINC08749158
REMARK  9 active torsions:
REMARK  status: ('A' for Active; 'I' for Inactive)
REMARK    1  A    between atoms: C_1  and  O_2
REMARK    2  A    between atoms: O_2  and  C_3
REMARK    3  A    between atoms: C_15  and  N_16
REMARK    4  A    between atoms: C_17  and  C_19
REMARK    5  A    between atoms: C_19  and  C_21
REMARK    6  A    between atoms: C_19  and  N_25
REMARK    7  A    between atoms: C_21  and  C_22
REMARK    8  A    between atoms: C_22  and  S_23
REMARK    9  A    between atoms: S_23  and  C_24
REMARK                            x       y       z     vdW  Elec       q    Type
REMARK                         _______ _______ _______ _____ _____    ______ ____
ROOT
ATOM      1  N   UNL     1      -1.843   4.544   0.045  0.00  0.00    -0.281 N 
ATOM      2  C   UNL     1      -3.116   4.111  -0.047  0.00  0.00    +0.238 C 
ATOM      3  O   UNL     1      -3.353   2.921  -0.051  0.00  0.00    -0.273 OA
ATOM      4  H   UNL     1      -1.658   5.494   0.115  0.00  0.00    +0.155 HD
ENDROOT
BRANCH   1  17
ATOM      5  C   UNL     1       0.423   3.960  -0.567  0.00  0.00    +0.142 A 
ATOM      6  C   UNL     1       1.466   3.054  -0.574  0.00  0.00    +0.059 A 
ATOM      7  C   UNL     1       1.305   1.808   0.025  0.00  0.00    +0.031 A 
ATOM      8  C   UNL     1       2.182   0.634   0.197  0.00  0.00    +0.028 A 
ATOM      9  C   UNL     1       3.490   0.342  -0.176  0.00  0.00    +0.012 A 
ATOM     10  C   UNL     1       4.035  -0.883   0.146  0.00  0.00    +0.001 A 
ATOM     11  C   UNL     1       3.283  -1.819   0.837  0.00  0.00    +0.004 A 
ATOM     12  C   UNL     1       1.985  -1.540   1.211  0.00  0.00    +0.047 A 
ATOM     13  C   UNL     1       1.419  -0.311   0.896  0.00  0.00    +0.136 A 
ATOM     14  O   UNL     1       0.197   0.215   1.134  0.00  0.00    -0.455 OA
ATOM     15  C   UNL     1       0.089   1.467   0.635  0.00  0.00    +0.138 A 
ATOM     16  C   UNL     1      -0.951   2.386   0.641  0.00  0.00    +0.074 A 
ATOM     17  C   UNL     1      -0.788   3.623   0.040  0.00  0.00    +0.079 A 
BRANCH   5  19
ATOM     18  C   UNL     1       1.842   5.455  -1.753  0.00  0.00    +0.277 C 
ATOM     19  O   UNL     1       0.576   5.179  -1.151  0.00  0.00    -0.493 OA
ENDBRANCH   5  19
ENDBRANCH   1  17
BRANCH   2  20
ATOM     20  C   UNL     1      -4.245   5.104  -0.144  0.00  0.00    +0.161 C 
BRANCH  20  21
ATOM     21  N   UNL     1      -5.501   4.455   0.242  0.00  0.00    -0.288 N 
ATOM     22  C   UNL     1      -5.947   3.387  -0.448  0.00  0.00    +0.298 C 
ATOM     23  O   UNL     1      -5.308   2.962  -1.390  0.00  0.00    -0.253 OA
ATOM     24  N   UNL     1      -7.102   2.790  -0.093  0.00  0.00    -0.313 N 
ATOM     25  H   UNL     1      -6.011   4.795   0.994  0.00  0.00    +0.151 HD
ATOM     26  H   UNL     1      -7.613   3.130   0.659  0.00  0.00    +0.146 HD
ATOM     27  H   UNL     1      -7.423   2.022  -0.590  0.00  0.00    +0.146 HD
ENDBRANCH  20  21
BRANCH  20  28
ATOM     28  C   UNL     1      -4.355   5.613  -1.582  0.00  0.00    +0.042 C 
BRANCH  28  29
ATOM     29  C   UNL     1      -5.417   6.712  -1.655  0.00  0.00    +0.071 C 
BRANCH  29  30
ATOM     30  S   UNL     1      -5.547   7.315  -3.361  0.00  0.00    -0.164 S 
ATOM     31  C   UNL     1      -6.830   8.594  -3.278  0.00  0.00    +0.084 C 
ENDBRANCH  29  30
ENDBRANCH  28  29
ENDBRANCH  20  28
ENDBRANCH   2  20
TORSDOF 7
