REMARK  Name = ZINC58951432
REMARK  4 active torsions:
REMARK  status: ('A' for Active; 'I' for Inactive)
REMARK    1  A    between atoms: C_2  and  N_9
REMARK    2  A    between atoms: C_13  and  N_17
REMARK    3  A    between atoms: C_20  and  C_23
REMARK    4  A    between atoms: C_20  and  N_26
REMARK                            x       y       z     vdW  Elec       q    Type
REMARK                         _______ _______ _______ _____ _____    ______ ____
ROOT
ATOM      1  N   UNL     1       1.820   6.956   1.169  0.00  0.00    -0.291 NA
ATOM      2  C   UNL     1       1.508   8.328   1.588  0.00  0.00    +0.084 C 
ATOM      3  C   UNL     1       2.073   8.575   2.989  0.00  0.00    +0.013 C 
ATOM      4  C   UNL     1       3.589   8.360   2.968  0.00  0.00    +0.015 C 
ATOM      5  C   UNL     1       3.888   6.939   2.482  0.00  0.00    +0.013 C 
ATOM      6  C   UNL     1       3.271   6.739   1.095  0.00  0.00    +0.084 C 
ENDROOT
BRANCH   1  11
ATOM      7  N   UNL     1       0.068   4.627  -0.498  0.00  0.00    -0.209 N 
ATOM      8  C   UNL     1      -0.929   5.497  -0.293  0.00  0.00    +0.228 C 
ATOM      9  O   UNL     1      -2.111   5.228  -0.317  0.00  0.00    -0.275 OA
ATOM     10  C   UNL     1      -0.347   6.868  -0.026  0.00  0.00    +0.125 C 
ATOM     11  C   UNL     1       1.175   6.638  -0.113  0.00  0.00    +0.153 C 
ATOM     12  C   UNL     1       1.294   5.159  -0.414  0.00  0.00    +0.244 C 
ATOM     13  O   UNL     1       2.334   4.554  -0.559  0.00  0.00    -0.273 OA
BRANCH   7  15
ATOM     14  C   UNL     1       0.317   2.299   0.102  0.00  0.00    +0.044 A 
ATOM     15  C   UNL     1      -0.153   3.270  -0.771  0.00  0.00    +0.047 A 
ATOM     16  C   UNL     1      -0.842   2.895  -1.917  0.00  0.00    +0.044 A 
ATOM     17  C   UNL     1      -1.059   1.556  -2.184  0.00  0.00    +0.044 A 
ATOM     18  C   UNL     1      -0.590   0.590  -1.311  0.00  0.00    +0.040 A 
ATOM     19  C   UNL     1       0.098   0.962  -0.169  0.00  0.00    +0.044 A 
ATOM     20 CL   UNL     1       0.685  -0.253   0.923  0.00  0.00    -0.083 Cl
ATOM     21 CL   UNL     1      -1.921   1.087  -3.616  0.00  0.00    -0.083 Cl
ENDBRANCH   7  15
ENDBRANCH   1  11
BRANCH   4  22
ATOM     22  N   UNL     1       4.129   8.539   4.322  0.00  0.00    +0.389 N 
ATOM     23  C   UNL     1       3.800   9.886   4.804  0.00  0.00    -0.077 C 
ATOM     24  C   UNL     1       4.290  10.050   6.245  0.00  0.00    -0.019 C 
ATOM     25  C   UNL     1       5.807   9.846   6.289  0.00  0.00    -0.004 C 
ATOM     26  C   UNL     1       6.144   8.467   5.715  0.00  0.00    -0.019 C 
ATOM     27  C   UNL     1       5.586   8.361   4.294  0.00  0.00    -0.077 C 
ATOM     28  H   UNL     1       3.720   7.854   4.940  0.00  0.00    -0.080 HD
ENDBRANCH   4  22
BRANCH   4  29
ATOM     29  C   UNL     1       4.227   9.357   2.035  0.00  0.00    +0.200 C 
ATOM     30  O   UNL     1       3.603  10.330   1.669  0.00  0.00    -0.278 OA
ATOM     31  N   UNL     1       5.490   9.166   1.607  0.00  0.00    -0.330 N 
ATOM     32  H   UNL     1       6.013   8.427   1.953  0.00  0.00    +0.145 HD
ATOM     33  H   UNL     1       5.877   9.769   0.952  0.00  0.00    +0.145 HD
ENDBRANCH   4  29
TORSDOF 4
