REMARK  Name = ZINC09911734
REMARK  12 active torsions:
REMARK  status: ('A' for Active; 'I' for Inactive)
REMARK    1  A    between atoms: C_1  and  C_2
REMARK    2  A    between atoms: C_2  and  C_3
REMARK    3  A    between atoms: C_2  and  N_61
REMARK    4  A    between atoms: C_9  and  N_14
REMARK    5  A    between atoms: C_10  and  C_11
REMARK    6  A    between atoms: C_15  and  C_17
REMARK    7  A    between atoms: C_17  and  C_18
REMARK    8  A    between atoms: C_18  and  C_19
REMARK    9  A    between atoms: C_19  and  S_20
REMARK   10  A    between atoms: S_20  and  C_23
REMARK   11  A    between atoms: C_26  and  O_29
REMARK   12  A    between atoms: O_29  and  C_30
REMARK                            x       y       z     vdW  Elec       q    Type
REMARK                         _______ _______ _______ _____ _____    ______ ____
ROOT
ATOM      1  C   UNL     1      -0.016   1.922 -12.215  0.00  0.00    -0.073 C 
ATOM      2  C   UNL     1      -1.246   2.100 -11.320  0.00  0.00    +0.018 C 
ATOM      3  C   UNL     1      -0.821   1.862  -9.876  0.00  0.00    -0.027 A 
ATOM      4  C   UNL     1       0.339   1.221  -9.607  0.00  0.00    -0.021 A 
ATOM      5  S   UNL     1       0.428   1.171  -7.841  0.00  0.00    -0.079 S 
ATOM      6  C   UNL     1      -1.053   1.989  -7.464  0.00  0.00    +0.084 A 
ATOM      7  C   UNL     1      -1.584   2.276  -8.714  0.00  0.00    +0.068 A 
ATOM      8  C   UNL     1       1.310   0.683 -10.611  0.00  0.00    -0.035 C 
ATOM      9  N   UNL     1       0.620   0.622 -11.922  0.00  0.00    +0.384 N 
ATOM     10  H   UNL     1      -0.105  -0.104 -11.885  0.00  0.00    -0.081 HD
ENDROOT
BRANCH   7  11
ATOM     11  C   UNL     1      -2.866   2.975  -8.854  0.00  0.00    +0.244 C 
ATOM     12  O   UNL     1      -2.893   4.190  -8.915  0.00  0.00    -0.270 OA
ATOM     13  N   UNL     1      -4.014   2.271  -8.916  0.00  0.00    -0.325 N 
ATOM     14  H   UNL     1      -3.992   1.303  -8.868  0.00  0.00    +0.145 HD
ATOM     15  H   UNL     1      -4.861   2.734  -9.009  0.00  0.00    +0.145 HD
ENDBRANCH   7  11
BRANCH   6  16
ATOM     16  N   UNL     1      -1.582   2.281  -6.215  0.00  0.00    -0.279 N 
ATOM     17  C   UNL     1      -0.919   1.915  -5.101  0.00  0.00    +0.218 C 
ATOM     18  O   UNL     1       0.140   1.330  -5.189  0.00  0.00    -0.275 OA
ATOM     19  H   UNL     1      -2.429   2.748  -6.145  0.00  0.00    +0.155 HD
BRANCH  17  20
ATOM     20  C   UNL     1      -1.493   2.232  -3.744  0.00  0.00    +0.098 C 
BRANCH  20  21
ATOM     21  C   UNL     1      -0.551   1.712  -2.657  0.00  0.00    +0.032 C 
BRANCH  21  22
ATOM     22  C   UNL     1      -1.135   2.034  -1.279  0.00  0.00    +0.172 C 
BRANCH  22  23
ATOM     23  S   UNL     1      -0.017   1.417   0.010  0.00  0.00    -0.003 S 
ATOM     24  O   UNL     1       0.002  -0.004   0.002  0.00  0.00    -0.169 OA
ATOM     25  O   UNL     1       1.195   2.158   0.002  0.00  0.00    -0.169 OA
BRANCH  23  26
ATOM     26  C   UNL     1      -0.798   1.847   1.530  0.00  0.00    +0.088 A 
ATOM     27  C   UNL     1      -0.520   3.063   2.128  0.00  0.00    +0.030 A 
ATOM     28  C   UNL     1      -1.135   3.405   3.317  0.00  0.00    +0.047 A 
ATOM     29  C   UNL     1      -2.023   2.524   3.916  0.00  0.00    +0.120 A 
ATOM     30  C   UNL     1      -2.296   1.303   3.316  0.00  0.00    +0.047 A 
ATOM     31  C   UNL     1      -1.683   0.967   2.125  0.00  0.00    +0.030 A 
BRANCH  29  32
ATOM     32  O   UNL     1      -2.626   2.856   5.088  0.00  0.00    -0.495 OA
ATOM     33  C   UNL     1      -2.298   4.129   5.647  0.00  0.00    +0.277 C 
ENDBRANCH  29  32
ENDBRANCH  23  26
ENDBRANCH  22  23
ENDBRANCH  21  22
ENDBRANCH  20  21
ENDBRANCH  17  20
ENDBRANCH   6  16
BRANCH   9  35
ATOM     34  C   UNL     1       2.696   1.332 -13.060  0.00  0.00    -0.014 C 
ATOM     35  C   UNL     1       1.587   0.280 -12.987  0.00  0.00    -0.074 C 
ATOM     36  C   UNL     1       2.201  -1.088 -12.681  0.00  0.00    -0.014 C 
ENDBRANCH   9  35
TORSDOF 9
