REMARK  Name = ZINC09045745
REMARK  8 active torsions:
REMARK  status: ('A' for Active; 'I' for Inactive)
REMARK    1  A    between atoms: C_3  and  C_10
REMARK    2  A    between atoms: C_5  and  N_7
REMARK    3  A    between atoms: C_13  and  C_14
REMARK    4  A    between atoms: C_13  and  O_19
REMARK    5  A    between atoms: N_24  and  C_25
REMARK    6  A    between atoms: C_25  and  C_26
REMARK    7  A    between atoms: C_26  and  C_27
REMARK    8  A    between atoms: C_27  and  N_55
REMARK                            x       y       z     vdW  Elec       q    Type
REMARK                         _______ _______ _______ _____ _____    ______ ____
ROOT
ATOM      1  C   UNL     1      -0.149   5.495   0.005  0.00  0.00    +0.145 C 
ATOM      2  C   UNL     1       0.243   5.815   1.429  0.00  0.00    +0.074 C 
ATOM      3  C   UNL     1      -0.525   5.622   2.568  0.00  0.00    +0.168 C 
ATOM      4  C   UNL     1       1.536   6.345   1.368  0.00  0.00    +0.249 C 
ATOM      5  O   UNL     1       2.198   6.724   2.318  0.00  0.00    -0.282 OA
ATOM      6  C   UNL     1       1.964   6.366  -0.055  0.00  0.00    +0.288 C 
ATOM      7  O   UNL     1       3.039   6.767  -0.453  0.00  0.00    -0.266 OA
ATOM      8  N   UNL     1       0.989   5.875  -0.838  0.00  0.00    -0.284 N 
ENDROOT
BRANCH   1  11
ATOM      9  C   UNL     1       0.367   1.774  -0.367  0.00  0.00    +0.003 A 
ATOM     10  C   UNL     1       0.622   3.127  -0.238  0.00  0.00    +0.006 A 
ATOM     11  C   UNL     1      -0.427   4.021  -0.135  0.00  0.00    -0.020 A 
ATOM     12  C   UNL     1      -1.731   3.563  -0.162  0.00  0.00    +0.038 A 
ATOM     13  C   UNL     1      -1.986   2.211  -0.296  0.00  0.00    +0.127 A 
ATOM     14  C   UNL     1      -0.937   1.316  -0.394  0.00  0.00    +0.033 A 
BRANCH  13  15
ATOM     15  N   UNL     1      -3.382   1.721  -0.330  0.00  0.00    +0.056 N 
ATOM     16  O   UNL     1      -3.607   0.529  -0.445  0.00  0.00    -0.126 OA
ATOM     17  O   UNL     1      -4.307   2.509  -0.244  0.00  0.00    -0.126 OA
ENDBRANCH  13  15
ENDBRANCH   1  11
BRANCH   3  18
ATOM     18  C   UNL     1      -0.063   6.092   3.822  0.00  0.00    +0.169 A 
ATOM     19  C   UNL     1      -0.044   5.376   5.003  0.00  0.00    +0.053 A 
ATOM     20  C   UNL     1       0.493   6.228   5.978  0.00  0.00    +0.042 A 
ATOM     21  C   UNL     1       0.767   7.407   5.372  0.00  0.00    +0.196 A 
ATOM     22  O   UNL     1       0.433   7.321   4.077  0.00  0.00    -0.460 OA
ENDBRANCH   3  18
BRANCH   3  23
ATOM     23  O   UNL     1      -1.714   4.986   2.482  0.00  0.00    -0.503 OA
ATOM     24  H   UNL     1      -2.131   4.934   3.389  0.00  0.00    +0.292 HD
ENDBRANCH   3  23
BRANCH   8  25
ATOM     25  C   UNL     1       1.052   5.740  -2.295  0.00  0.00    +0.107 C 
BRANCH  25  26
ATOM     26  C   UNL     1       0.523   7.019  -2.949  0.00  0.00    +0.000 C 
BRANCH  26  27
ATOM     27  C   UNL     1       0.589   6.878  -4.471  0.00  0.00    -0.077 C 
BRANCH  27  33
ATOM     28  C   UNL     1      -1.353   8.279  -4.832  0.00  0.00    -0.050 C 
ATOM     29  C   UNL     1      -1.826   9.597  -5.451  0.00  0.00    +0.141 C 
ATOM     30  O   UNL     1      -1.532   9.592  -6.851  0.00  0.00    -0.383 OA
ATOM     31  C   UNL     1      -0.143   9.425  -7.147  0.00  0.00    +0.141 C 
ATOM     32  C   UNL     1       0.347   8.106  -6.545  0.00  0.00    -0.050 C 
ATOM     33  N   UNL     1       0.094   8.127  -5.088  0.00  0.00    +0.383 N 
ATOM     34  H   UNL     1       0.592   8.924  -4.674  0.00  0.00    -0.082 HD
ENDBRANCH  27  33
ENDBRANCH  26  27
ENDBRANCH  25  26
ENDBRANCH   8  25
TORSDOF 8
