REMARK  Name = ZINC36041087
REMARK  11 active torsions:
REMARK  status: ('A' for Active; 'I' for Inactive)
REMARK    1  A    between atoms: C_1  and  C_2
REMARK    2  A    between atoms: C_5  and  N_8
REMARK    3  A    between atoms: N_11  and  C_12
REMARK    4  A    between atoms: C_12  and  C_13
REMARK    5  A    between atoms: C_17  and  O_34
REMARK    6  A    between atoms: C_18  and  O_32
REMARK    7  A    between atoms: N_23  and  C_24
REMARK    8  A    between atoms: C_24  and  C_25
REMARK    9  A    between atoms: C_30  and  C_31
REMARK   10  A    between atoms: O_32  and  C_33
REMARK   11  A    between atoms: O_34  and  C_35
REMARK                            x       y       z     vdW  Elec       q    Type
REMARK                         _______ _______ _______ _____ _____    ______ ____
ROOT
ATOM      1  C   UNL     1      -0.034  -8.441   1.556  0.00  0.00    -0.019 C 
ATOM      2  C   UNL     1      -0.011  -9.375   2.737  0.00  0.00    -0.053 A 
ATOM      3  C   UNL     1       0.935  -9.163   3.730  0.00  0.00    +0.051 A 
ATOM      4  C   UNL     1       0.994  -9.998   4.831  0.00  0.00    +0.162 A 
ATOM      5  C   UNL     1       0.098 -11.058   4.942  0.00  0.00    +0.162 A 
ATOM      6  C   UNL     1      -0.844 -11.266   3.950  0.00  0.00    +0.053 A 
ATOM      7  C   UNL     1      -0.899 -10.424   2.849  0.00  0.00    -0.044 A 
ATOM      8  C   UNL     1      -1.947 -10.682   1.796  0.00  0.00    +0.017 C 
ATOM      9  C   UNL     1      -1.591  -9.926   0.516  0.00  0.00    -0.073 C 
ATOM     10  N   UNL     1      -1.321  -8.522   0.860  0.00  0.00    +0.388 N 
ATOM     11  H   UNL     1      -2.053  -8.175   1.462  0.00  0.00    -0.080 HD
ENDROOT
BRANCH   5  12
ATOM     12  O   UNL     1       0.149 -11.885   6.020  0.00  0.00    -0.491 OA
ATOM     13  C   UNL     1      -0.801 -12.951   6.066  0.00  0.00    +0.277 C 
ENDBRANCH   5  12
BRANCH   4  14
ATOM     14  O   UNL     1       1.923  -9.785   5.801  0.00  0.00    -0.491 OA
ATOM     15  C   UNL     1       2.809  -8.678   5.619  0.00  0.00    +0.277 C 
ENDBRANCH   4  14
BRANCH   1  16
ATOM     16  C   UNL     1       0.187  -7.007   2.042  0.00  0.00    +0.095 C 
BRANCH  16  20
ATOM     17  N   UNL     1      -2.045  -4.961   4.128  0.00  0.00    -0.269 N 
ATOM     18  C   UNL     1      -1.010  -5.336   3.350  0.00  0.00    +0.304 C 
ATOM     19  O   UNL     1      -0.143  -4.534   3.064  0.00  0.00    -0.253 OA
ATOM     20  N   UNL     1      -0.938  -6.600   2.889  0.00  0.00    -0.300 N 
ATOM     21  H   UNL     1      -2.700  -5.617   4.414  0.00  0.00    +0.156 HD
ATOM     22  H   UNL     1      -1.630  -7.240   3.117  0.00  0.00    +0.150 HD
BRANCH  17  27
ATOM     23  C   UNL     1      -2.568   0.454   5.737  0.00  0.00    +0.044 C 
ATOM     24  C   UNL     1      -2.429  -0.984   5.309  0.00  0.00    -0.050 A 
ATOM     25  C   UNL     1      -1.173  -1.549   5.186  0.00  0.00    +0.005 A 
ATOM     26  C   UNL     1      -1.042  -2.867   4.795  0.00  0.00    +0.023 A 
ATOM     27  C   UNL     1      -2.174  -3.626   4.526  0.00  0.00    +0.035 A 
ATOM     28  C   UNL     1      -3.434  -3.056   4.651  0.00  0.00    +0.023 A 
ATOM     29  C   UNL     1      -3.558  -1.738   5.048  0.00  0.00    +0.005 A 
ENDBRANCH  17  27
ENDBRANCH  16  20
ENDBRANCH   1  16
BRANCH  10  30
ATOM     30  C   UNL     1      -1.268  -7.717  -0.367  0.00  0.00    -0.042 C 
BRANCH  30  31
ATOM     31  C   UNL     1      -2.623  -7.719  -1.028  0.00  0.00    -0.061 A 
ATOM     32  C   UNL     1      -2.871  -8.562  -2.095  0.00  0.00    +0.002 A 
ATOM     33  C   UNL     1      -4.113  -8.563  -2.701  0.00  0.00    +0.000 A 
ATOM     34  C   UNL     1      -5.108  -7.722  -2.239  0.00  0.00    +0.000 A 
ATOM     35  C   UNL     1      -4.861  -6.880  -1.171  0.00  0.00    +0.003 A 
ATOM     36  C   UNL     1      -3.620  -6.882  -0.563  0.00  0.00    -0.049 A 
ATOM     37  C   UNL     1      -3.352  -5.967   0.605  0.00  0.00    +0.044 C 
ENDBRANCH  30  31
ENDBRANCH  10  30
TORSDOF 7
