REMARK  Name = ZINC01183200
REMARK  9 active torsions:
REMARK  status: ('A' for Active; 'I' for Inactive)
REMARK    1  A    between atoms: C_1  and  C_2
REMARK    2  A    between atoms: C_5  and  C_21
REMARK    3  A    between atoms: C_7  and  N_8
REMARK    4  A    between atoms: N_8  and  C_9
REMARK    5  A    between atoms: C_9  and  N_11
REMARK    6  A    between atoms: C_12  and  C_14
REMARK    7  A    between atoms: C_15  and  C_16
REMARK    8  A    between atoms: C_25  and  C_31
REMARK    9  A    between atoms: C_27  and  C_30
REMARK                            x       y       z     vdW  Elec       q    Type
REMARK                         _______ _______ _______ _____ _____    ______ ____
ROOT
ATOM      1  C   UNL     1      -0.560   1.425   0.033  0.00  0.00    +0.045 C 
ATOM      2  C   UNL     1      -0.245  -0.049   0.017  0.00  0.00    -0.029 A 
ATOM      3  C   UNL     1      -0.231  -0.737  -1.181  0.00  0.00    +0.006 A 
ATOM      4  C   UNL     1       0.056  -2.087  -1.204  0.00  0.00    +0.013 A 
ATOM      5  C   UNL     1       0.334  -2.761  -0.013  0.00  0.00    +0.039 A 
ATOM      6  C   UNL     1       0.320  -2.067   1.196  0.00  0.00    +0.036 A 
ATOM      7  C   UNL     1       0.035  -0.710   1.207  0.00  0.00    +0.036 A 
ENDROOT
BRANCH   5   8
ATOM      8  C   UNL     1       0.642  -4.207  -0.035  0.00  0.00    +0.228 A 
ATOM      9  N   UNL     1       0.910  -4.933   1.021  0.00  0.00    -0.209 NA
ATOM     10  C   UNL     1       1.141  -6.211   0.625  0.00  0.00    +0.110 A 
ATOM     11  C   UNL     1       1.465  -7.388   1.305  0.00  0.00    +0.035 A 
ATOM     12  C   UNL     1       1.641  -8.557   0.600  0.00  0.00    -0.048 A 
ATOM     13  C   UNL     1       1.497  -8.574  -0.780  0.00  0.00    +0.010 A 
ATOM     14  C   UNL     1       1.177  -7.420  -1.465  0.00  0.00    -0.006 A 
ATOM     15  C   UNL     1       0.997  -6.233  -0.772  0.00  0.00    +0.159 A 
ATOM     16  O   UNL     1       0.682  -4.972  -1.143  0.00  0.00    -0.435 OA
ATOM     17  C   UNL     1       1.025  -7.449  -2.964  0.00  0.00    +0.047 C 
ATOM     18  C   UNL     1       1.991  -9.827   1.332  0.00  0.00    +0.044 C 
ENDBRANCH   5   8
BRANCH   7  19
ATOM     19  N   UNL     1       0.025  -0.008   2.417  0.00  0.00    -0.296 N 
ATOM     20  H   UNL     1       0.490   0.840   2.490  0.00  0.00    +0.154 HD
BRANCH  19  21
ATOM     21  C   UNL     1      -0.632  -0.509   3.482  0.00  0.00    +0.141 C 
ATOM     22  S   UNL     1      -1.360  -2.056   3.388  0.00  0.00    -0.018 S 
BRANCH  21  23
ATOM     23  N   UNL     1      -0.716   0.207   4.620  0.00  0.00    -0.264 N 
ATOM     24  C   UNL     1      -1.373  -0.295   5.685  0.00  0.00    +0.242 C 
ATOM     25  O   UNL     1      -1.891  -1.395   5.618  0.00  0.00    -0.270 OA
ATOM     26  H   UNL     1      -0.304   1.083   4.674  0.00  0.00    +0.157 HD
BRANCH  24  27
ATOM     27  C   UNL     1      -1.461   0.457   6.880  0.00  0.00    +0.071 C 
ATOM     28  C   UNL     1      -2.122  -0.048   7.952  0.00  0.00    +0.051 C 
BRANCH  28  29
ATOM     29  C   UNL     1      -2.210   0.704   9.148  0.00  0.00    +0.128 A 
ATOM     30  C   UNL     1      -2.844   0.312  10.309  0.00  0.00    +0.049 A 
ATOM     31  C   UNL     1      -2.679   1.362  11.226  0.00  0.00    +0.042 A 
ATOM     32  C   UNL     1      -1.970   2.329  10.604  0.00  0.00    +0.195 A 
ATOM     33  O   UNL     1      -1.685   1.929   9.357  0.00  0.00    -0.464 OA
ENDBRANCH  28  29
ENDBRANCH  24  27
ENDBRANCH  21  23
ENDBRANCH  19  21
ENDBRANCH   7  19
TORSDOF 6
