REMARK  Name = ZINC09723821
REMARK  9 active torsions:
REMARK  status: ('A' for Active; 'I' for Inactive)
REMARK    1  A    between atoms: C_1  and  C_2
REMARK    2  A    between atoms: C_2  and  O_3
REMARK    3  A    between atoms: O_3  and  C_4
REMARK    4  A    between atoms: C_7  and  N_18
REMARK    5  A    between atoms: C_9  and  S_10
REMARK    6  A    between atoms: S_10  and  N_13
REMARK    7  A    between atoms: C_19  and  C_21
REMARK    8  A    between atoms: C_21  and  N_60
REMARK    9  A    between atoms: C_29  and  C_31
REMARK                            x       y       z     vdW  Elec       q    Type
REMARK                         _______ _______ _______ _____ _____    ______ ____
ROOT
ATOM      1  C   UNL     1      -1.233   3.143   0.015  0.00  0.00    +0.147 A 
ATOM      2  C   UNL     1      -0.048   3.841  -0.166  0.00  0.00    +0.049 A 
ATOM      3  C   UNL     1       1.156   3.166  -0.176  0.00  0.00    +0.027 A 
ATOM      4  C   UNL     1       1.181   1.789  -0.005  0.00  0.00    +0.035 A 
ATOM      5  C   UNL     1      -0.005   1.091   0.177  0.00  0.00    +0.055 A 
ATOM      6  C   UNL     1      -1.210   1.767   0.181  0.00  0.00    +0.149 A 
ENDROOT
BRANCH   4   7
ATOM      7  N   UNL     1       2.403   1.103  -0.015  0.00  0.00    -0.287 N 
ATOM      8  C   UNL     1       3.512   1.695   0.471  0.00  0.00    +0.201 C 
ATOM      9  O   UNL     1       3.435   2.782   1.004  0.00  0.00    -0.278 OA
ATOM     10  H   UNL     1       2.451   0.202  -0.371  0.00  0.00    +0.155 HD
BRANCH   8  11
ATOM     11  C   UNL     1       4.847   1.006   0.353  0.00  0.00    +0.020 C 
BRANCH  11  21
ATOM     12  C   UNL     1       5.689   1.981   2.405  0.00  0.00    -0.072 C 
ATOM     13  C   UNL     1       6.521   3.170   2.914  0.00  0.00    +0.024 C 
ATOM     14  C   UNL     1       7.888   3.054   2.325  0.00  0.00    -0.010 A 
ATOM     15  C   UNL     1       8.264   2.248   1.293  0.00  0.00    -0.051 A 
ATOM     16  C   UNL     1       9.603   2.307   0.912  0.00  0.00    +0.010 A 
ATOM     17  C   UNL     1      10.454   3.138   1.558  0.00  0.00    +0.045 A 
ATOM     18  S   UNL     1       9.381   3.897   2.769  0.00  0.00    -0.101 S 
ATOM     19  C   UNL     1       7.228   1.349   0.624  0.00  0.00    -0.039 C 
ATOM     20  C   UNL     1       7.428   1.376  -0.893  0.00  0.00    -0.008 C 
ATOM     21  N   UNL     1       5.881   1.882   0.938  0.00  0.00    +0.390 N 
ATOM     22  H   UNL     1       5.794   2.820   0.529  0.00  0.00    -0.080 HD
ENDBRANCH  11  21
ENDBRANCH   8  11
ENDBRANCH   4   7
BRANCH   6  23
ATOM     23  S   UNL     1      -2.716   0.880   0.403  0.00  0.00    +0.064 S 
ATOM     24  O   UNL     1      -3.598   1.315  -0.623  0.00  0.00    -0.153 OA
ATOM     25  O   UNL     1      -2.362  -0.485   0.576  0.00  0.00    -0.153 OA
BRANCH  23  26
ATOM     26  N   UNL     1      -3.373   1.384   1.837  0.00  0.00    -0.176 NA
ATOM     27  C   UNL     1      -3.126   0.777   3.153  0.00  0.00    +0.109 C 
ATOM     28  C   UNL     1      -3.965   1.560   4.184  0.00  0.00    +0.018 C 
ATOM     29  C   UNL     1      -5.079   2.196   3.312  0.00  0.00    +0.018 C 
ATOM     30  C   UNL     1      -4.309   2.511   2.005  0.00  0.00    +0.109 C 
ENDBRANCH  23  26
ENDBRANCH   6  23
BRANCH   1  31
ATOM     31  O   UNL     1      -2.419   3.809   0.024  0.00  0.00    -0.490 OA
BRANCH  31  33
ATOM     32  C   UNL     1      -3.789   5.795  -0.120  0.00  0.00    +0.048 C 
ATOM     33  C   UNL     1      -2.369   5.225  -0.159  0.00  0.00    +0.226 C 
ENDBRANCH  31  33
ENDBRANCH   1  31
TORSDOF 7
