REMARK  Name = ZINC06928953
REMARK  7 active torsions:
REMARK  status: ('A' for Active; 'I' for Inactive)
REMARK    1  A    between atoms: C_4  and  C_7
REMARK    2  A    between atoms: C_7  and  N_8
REMARK    3  A    between atoms: C_17  and  C_19
REMARK    4  A    between atoms: N_21  and  N_22
REMARK    5  A    between atoms: C_23  and  C_24
REMARK    6  A    between atoms: C_28  and  O_31
REMARK    7  A    between atoms: C_29  and  O_30
REMARK                            x       y       z     vdW  Elec       q    Type
REMARK                         _______ _______ _______ _____ _____    ______ ____
ROOT
ATOM      1  N   UNL     1       4.152  -0.952   1.338  0.00  0.00    -0.224 N 
ATOM      2  C   UNL     1       3.768  -2.099   1.936  0.00  0.00    +0.275 A 
ATOM      3  O   UNL     1       3.074  -2.907   1.347  0.00  0.00    -0.266 OA
ATOM      4  C   UNL     1       4.208  -2.350   3.316  0.00  0.00    +0.050 A 
ATOM      5  C   UNL     1       3.866  -3.500   4.020  0.00  0.00    +0.014 A 
ATOM      6  C   UNL     1       4.319  -3.660   5.312  0.00  0.00    +0.001 A 
ATOM      7  C   UNL     1       5.109  -2.688   5.913  0.00  0.00    +0.001 A 
ATOM      8  C   UNL     1       5.458  -1.542   5.232  0.00  0.00    +0.011 A 
ATOM      9  C   UNL     1       5.012  -1.361   3.927  0.00  0.00    +0.020 A 
ATOM     10  C   UNL     1       5.339  -0.166   3.131  0.00  0.00    +0.155 A 
ATOM     11  N   UNL     1       4.884  -0.070   1.905  0.00  0.00    -0.163 NA
ENDROOT
BRANCH  10  12
ATOM     12  C   UNL     1       6.174   0.907   3.704  0.00  0.00    +0.284 C 
ATOM     13  O   UNL     1       6.596   0.808   4.841  0.00  0.00    -0.267 OA
ATOM     14  N   UNL     1       6.468   1.997   2.968  0.00  0.00    -0.202 N 
ATOM     15  H   UNL     1       6.132   2.076   2.062  0.00  0.00    +0.178 HD
BRANCH  14  16
ATOM     16  N   UNL     1       7.261   3.017   3.512  0.00  0.00    -0.187 NA
ATOM     17  C   UNL     1       7.545   4.066   2.804  0.00  0.00    +0.142 C 
BRANCH  17  18
ATOM     18  C   UNL     1       8.378   5.139   3.376  0.00  0.00    +0.040 A 
ATOM     19  C   UNL     1       8.681   6.273   2.618  0.00  0.00    +0.013 A 
ATOM     20  C   UNL     1       9.461   7.274   3.157  0.00  0.00    +0.004 A 
ATOM     21  C   UNL     1       9.947   7.162   4.448  0.00  0.00    +0.049 A 
ATOM     22  C   UNL     1       9.656   6.043   5.211  0.00  0.00    +0.159 A 
ATOM     23  C   UNL     1       8.866   5.029   4.683  0.00  0.00    +0.167 A 
BRANCH  23  24
ATOM     24  O   UNL     1       8.573   3.932   5.431  0.00  0.00    -0.503 OA
ATOM     25  H   UNL     1       9.214   3.213   5.343  0.00  0.00    +0.292 HD
ENDBRANCH  23  24
BRANCH  22  26
ATOM     26  O   UNL     1      10.138   5.940   6.479  0.00  0.00    -0.503 OA
ATOM     27  H   UNL     1       9.552   6.309   7.154  0.00  0.00    +0.292 HD
ENDBRANCH  22  26
ENDBRANCH  17  18
ENDBRANCH  14  16
ENDBRANCH  10  12
BRANCH   1  28
ATOM     28  C   UNL     1       3.711  -0.707  -0.038  0.00  0.00    +0.182 C 
BRANCH  28  32
ATOM     29  C   UNL     1      -0.017   1.378   0.010  0.00  0.00    +0.000 A 
ATOM     30  C   UNL     1       1.171   2.086   0.002  0.00  0.00    +0.000 A 
ATOM     31  C   UNL     1       2.377   1.411  -0.013  0.00  0.00    +0.005 A 
ATOM     32  C   UNL     1       2.396   0.029  -0.020  0.00  0.00    -0.026 A 
ATOM     33  C   UNL     1       1.208  -0.679  -0.012  0.00  0.00    +0.005 A 
ATOM     34  C   UNL     1       0.002  -0.004   0.002  0.00  0.00    +0.000 A 
ENDBRANCH  28  32
ENDBRANCH   1  28
TORSDOF 7
