REMARK  Name = ZINC44159939
REMARK  8 active torsions:
REMARK  status: ('A' for Active; 'I' for Inactive)
REMARK    1  A    between atoms: C_1  and  C_2
REMARK    2  A    between atoms: C_5  and  C_8
REMARK    3  A    between atoms: C_8  and  C_10
REMARK    4  A    between atoms: C_8  and  O_21
REMARK    5  A    between atoms: C_10  and  C_12
REMARK    6  A    between atoms: C_10  and  N_13
REMARK    7  A    between atoms: C_17  and  C_19
REMARK    8  A    between atoms: C_17  and  C_20
REMARK                            x       y       z     vdW  Elec       q    Type
REMARK                         _______ _______ _______ _____ _____    ______ ____
ROOT
ATOM      1  C   UNL     1       0.059  -4.275  -0.021  0.00  0.00    +0.161 C 
ENDROOT
BRANCH   1   6
ATOM      2  C   UNL     1      -0.018   1.503   0.010  0.00  0.00    +0.044 C 
ATOM      3  C   UNL     1       0.002  -0.004   0.002  0.00  0.00    -0.050 A 
ATOM      4  C   UNL     1       0.006  -0.689  -1.199  0.00  0.00    +0.004 A 
ATOM      5  C   UNL     1       0.025  -2.071  -1.206  0.00  0.00    +0.006 A 
ATOM      6  C   UNL     1       0.040  -2.768  -0.013  0.00  0.00    -0.018 A 
ATOM      7  C   UNL     1       0.037  -2.084   1.188  0.00  0.00    +0.006 A 
ATOM      8  C   UNL     1       0.023  -0.702   1.195  0.00  0.00    +0.004 A 
ENDBRANCH   1   6
BRANCH   1   9
ATOM      9  C   UNL     1       1.488  -4.768   0.218  0.00  0.00    +0.087 C 
ATOM     10  C   UNL     1       1.937  -4.365   1.624  0.00  0.00    +0.027 C 
BRANCH   9  11
ATOM     11  N   UNL     1       1.529  -6.231   0.092  0.00  0.00    -0.292 NA
ATOM     12  C   UNL     1       1.021  -6.661  -1.219  0.00  0.00    +0.113 C 
ATOM     13  C   UNL     1       1.026  -8.190  -1.286  0.00  0.00    +0.176 C 
ATOM     14  O   UNL     1       2.349  -8.670  -1.034  0.00  0.00    -0.371 OA
ATOM     15  C   UNL     1       2.875  -8.270   0.234  0.00  0.00    +0.077 C 
ATOM     16  C   UNL     1       2.889  -6.742   0.316  0.00  0.00    +0.119 C 
ATOM     17  C   UNL     1       1.995  -8.834   1.352  0.00  0.00    +0.042 C 
ATOM     18  C   UNL     1       4.301  -8.804   0.387  0.00  0.00    +0.042 C 
ENDBRANCH   9  11
ENDBRANCH   1   9
BRANCH   1  19
ATOM     19  O   UNL     1      -0.795  -4.768   1.013  0.00  0.00    -0.386 OA
ATOM     20  H   UNL     1      -0.540  -4.485   1.901  0.00  0.00    +0.210 HD
ENDBRANCH   1  19
TORSDOF 4
