REMARK  Name = ZINC04726854
REMARK  5 active torsions:
REMARK  status: ('A' for Active; 'I' for Inactive)
REMARK    1  A    between atoms: C_4  and  O_7
REMARK    2  A    between atoms: O_7  and  C_8
REMARK    3  A    between atoms: C_12  and  C_14
REMARK    4  A    between atoms: C_16  and  C_27
REMARK    5  A    between atoms: C_17  and  C_25
REMARK                            x       y       z     vdW  Elec       q    Type
REMARK                         _______ _______ _______ _____ _____    ______ ____
ROOT
ATOM      1  C   UNL     1       1.225  -2.192  -0.099  0.00  0.00    +0.077 C 
ATOM      2  C   UNL     1      -0.086  -2.922   0.194  0.00  0.00    +0.144 C 
ATOM      3  C   UNL     1       0.470  -2.872  -1.244  0.00  0.00    +0.165 C 
ATOM      4  C   UNL     1       0.767  -4.345  -1.546  0.00  0.00    +0.274 C 
ATOM      5  C   UNL     1      -0.044  -4.377   0.587  0.00  0.00    +0.092 C 
ATOM      6  N   UNL     1      -0.445  -4.856   1.806  0.00  0.00    -0.347 N 
ATOM      7  O   UNL     1       2.150  -4.520  -1.892  0.00  0.00    -0.328 OA
ATOM      8  C   UNL     1       2.183  -5.753  -2.644  0.00  0.00    +0.193 C 
ATOM      9  C   UNL     1       0.750  -5.930  -3.184  0.00  0.00    +0.193 C 
ATOM     10  O   UNL     1       0.021  -4.783  -2.693  0.00  0.00    -0.328 OA
ATOM     11  H   UNL     1      -0.783  -4.246   2.480  0.00  0.00    +0.143 HD
ATOM     12  H   UNL     1      -0.392  -5.806   1.995  0.00  0.00    +0.143 HD
ATOM     13  N   UNL     1       0.417  -5.133  -0.359  0.00  0.00    -0.324 N 
ATOM     14  H   UNL     1       0.523  -6.152  -0.287  0.00  0.00    +0.166 HD
ENDROOT
BRANCH   1  19
ATOM     15  C   UNL     1       0.091   1.393  -0.480  0.00  0.00    +0.129 A 
ATOM     16  C   UNL     1       1.181   2.081   0.034  0.00  0.00    +0.046 A 
ATOM     17  C   UNL     1       2.279   1.385   0.502  0.00  0.00    +0.004 A 
ATOM     18  C   UNL     1       2.292   0.003   0.459  0.00  0.00    +0.004 A 
ATOM     19  C   UNL     1       1.207  -0.686  -0.053  0.00  0.00    -0.037 A 
ATOM     20  C   UNL     1       0.107   0.006  -0.522  0.00  0.00    +0.050 A 
BRANCH  15  21
ATOM     21  O   UNL     1      -0.989   2.076  -0.941  0.00  0.00    -0.456 OA
BRANCH  21  25
ATOM     22  C   UNL     1      -0.700   3.897  -4.631  0.00  0.00    +0.000 A 
ATOM     23  C   UNL     1      -1.833   4.075  -3.860  0.00  0.00    +0.004 A 
ATOM     24  C   UNL     1      -1.933   3.467  -2.624  0.00  0.00    +0.046 A 
ATOM     25  C   UNL     1      -0.894   2.675  -2.156  0.00  0.00    +0.128 A 
ATOM     26  C   UNL     1       0.245   2.502  -2.929  0.00  0.00    +0.046 A 
ATOM     27  C   UNL     1       0.337   3.108  -4.167  0.00  0.00    +0.004 A 
ENDBRANCH  21  25
ENDBRANCH  15  21
ENDBRANCH   1  19
BRANCH   3  28
ATOM     28  C   UNL     1      -0.144  -2.054  -2.303  0.00  0.00    +0.079 C 
ATOM     29  N   UNL     1      -0.618  -1.423  -3.119  0.00  0.00    -0.196 NA
ENDBRANCH   3  28
BRANCH   2  30
ATOM     30  C   UNL     1      -1.272  -2.142   0.584  0.00  0.00    +0.079 C 
ATOM     31  N   UNL     1      -2.187  -1.539   0.885  0.00  0.00    -0.195 NA
ENDBRANCH   2  30
TORSDOF 5
