REMARK  Name = ZINC20568988
REMARK  6 active torsions:
REMARK  status: ('A' for Active; 'I' for Inactive)
REMARK    1  A    between atoms: C_1  and  C_2
REMARK    2  A    between atoms: N_12  and  S_13
REMARK    3  A    between atoms: S_13  and  C_16
REMARK    4  A    between atoms: C_19  and  N_22
REMARK    5  A    between atoms: N_22  and  S_23
REMARK    6  A    between atoms: S_23  and  C_26
REMARK                            x       y       z     vdW  Elec       q    Type
REMARK                         _______ _______ _______ _____ _____    ______ ____
ROOT
ATOM      1  C   UNL     1      -1.562   4.326   3.933  0.00  0.00    +0.109 A 
ATOM      2  C   UNL     1      -2.231   5.510   3.683  0.00  0.00    +0.031 A 
ATOM      3  C   UNL     1      -3.496   5.713   4.199  0.00  0.00    +0.028 A 
ATOM      4  C   UNL     1      -4.091   4.729   4.979  0.00  0.00    +0.074 A 
ATOM      5  C   UNL     1      -3.414   3.543   5.233  0.00  0.00    +0.028 A 
ATOM      6  C   UNL     1      -2.152   3.345   4.709  0.00  0.00    +0.031 A 
ENDROOT
BRANCH   1   7
ATOM      7  S   UNL     1       0.049   4.069   3.267  0.00  0.00    +0.075 S 
ATOM      8  O   UNL     1       0.685   3.110   4.101  0.00  0.00    -0.150 OA
ATOM      9  O   UNL     1       0.601   5.357   3.030  0.00  0.00    -0.150 OA
BRANCH   7  20
ATOM     10  C   UNL     1       0.296   1.241   2.953  0.00  0.00    +0.030 C 
ATOM     11  C   UNL     1      -0.213   1.893   1.666  0.00  0.00    +0.095 C 
ATOM     12  C   UNL     1       0.672   1.475   0.485  0.00  0.00    +0.029 C 
ATOM     13  C   UNL     1       0.107   2.082  -0.799  0.00  0.00    +0.039 C 
ATOM     14  C   UNL     1      -0.116   3.561  -0.629  0.00  0.00    -0.022 A 
ATOM     15  C   UNL     1      -0.204   4.359  -1.758  0.00  0.00    +0.043 A 
ATOM     16  C   UNL     1      -0.412   5.721  -1.636  0.00  0.00    +0.124 A 
ATOM     17  C   UNL     1      -0.534   6.295  -0.382  0.00  0.00    +0.040 A 
ATOM     18  C   UNL     1      -0.447   5.506   0.748  0.00  0.00    +0.028 A 
ATOM     19  C   UNL     1      -0.236   4.137   0.626  0.00  0.00    +0.055 A 
ATOM     20  N   UNL     1      -0.142   3.356   1.785  0.00  0.00    -0.200 N 
ATOM     21  F   UNL     1      -0.495   6.493  -2.742  0.00  0.00    -0.205 F 
ENDBRANCH   7  20
ENDBRANCH   1   7
BRANCH   4  22
ATOM     22  N   UNL     1      -5.369   4.933   5.507  0.00  0.00    -0.098 NA
BRANCH  22  23
ATOM     23  S   UNL     1      -5.750   6.379   6.217  0.00  0.00    +0.094 S 
ATOM     24  O   UNL     1      -5.388   7.394   5.291  0.00  0.00    -0.148 OA
ATOM     25  O   UNL     1      -7.071   6.247   6.724  0.00  0.00    -0.148 OA
BRANCH  23  26
ATOM     26  C   UNL     1      -4.692   6.570   7.613  0.00  0.00    +0.141 A 
ATOM     27  C   UNL     1      -3.782   7.574   7.649  0.00  0.00    +0.031 A 
ATOM     28  C   UNL     1      -2.928   7.761   8.744  0.00  0.00    +0.004 A 
ATOM     29  C   UNL     1      -2.955   6.941   9.823  0.00  0.00    +0.033 A 
ATOM     30  C   UNL     1      -3.871   5.871   9.855  0.00  0.00    +0.136 A 
ATOM     31  C   UNL     1      -4.780   5.677   8.699  0.00  0.00    +0.161 A 
ATOM     32  N   UNL     1      -5.476   4.624   9.051  0.00  0.00    -0.047 NA
ATOM     33  O   UNL     1      -5.104   4.250  10.145  0.00  0.00    -0.242 OA
ATOM     34  N   UNL     1      -4.212   4.894  10.659  0.00  0.00    -0.049 NA
ENDBRANCH  23  26
ENDBRANCH  22  23
ENDBRANCH   4  22
TORSDOF 5
