REMARK  Name = ZINC42183371
REMARK  12 active torsions:
REMARK  status: ('A' for Active; 'I' for Inactive)
REMARK    1  A    between atoms: C_1  and  C_2
REMARK    2  A    between atoms: C_2  and  C_3
REMARK    3  A    between atoms: N_5  and  C_6
REMARK    4  A    between atoms: C_9  and  C_12
REMARK    5  A    between atoms: C_12  and  C_14
REMARK    6  A    between atoms: C_12  and  N_15
REMARK    7  A    between atoms: N_15  and  C_16
REMARK    8  A    between atoms: C_16  and  C_18
REMARK    9  A    between atoms: C_16  and  C_19
REMARK   10  A    between atoms: N_21  and  C_22
REMARK   11  A    between atoms: C_22  and  C_23
REMARK   12  A    between atoms: C_26  and  C_29
REMARK                            x       y       z     vdW  Elec       q    Type
REMARK                         _______ _______ _______ _____ _____    ______ ____
ROOT
ATOM      1  N   UNL     1      -7.109  -4.779  -1.191  0.00  0.00    +0.391 N 
ATOM      2  H   UNL     1      -6.702  -4.560  -2.088  0.00  0.00    -0.084 HD
ATOM      3  H   UNL     1      -6.604  -5.545  -0.771  0.00  0.00    -0.084 HD
ENDROOT
BRANCH   1   4
ATOM      4  C   UNL     1      -7.027  -3.602  -0.316  0.00  0.00    -0.043 C 
ATOM      5  C   UNL     1      -7.529  -3.969   1.082  0.00  0.00    -0.009 C 
BRANCH   4   9
ATOM      6  C   UNL     1      -2.969  -2.285  -0.072  0.00  0.00    +0.033 A 
ATOM      7  C   UNL     1      -3.998  -1.356  -0.159  0.00  0.00    +0.023 A 
ATOM      8  C   UNL     1      -5.308  -1.785  -0.237  0.00  0.00    +0.004 A 
ATOM      9  C   UNL     1      -5.596  -3.137  -0.230  0.00  0.00    -0.062 A 
ATOM     10  C   UNL     1      -4.574  -4.065  -0.144  0.00  0.00    +0.004 A 
ATOM     11  C   UNL     1      -3.261  -3.643  -0.071  0.00  0.00    +0.023 A 
BRANCH   6  14
ATOM     12  C   UNL     1      -0.664  -2.565  -0.591  0.00  0.00    +0.217 C 
ATOM     13  O   UNL     1      -0.924  -3.621  -1.126  0.00  0.00    -0.275 OA
ATOM     14  N   UNL     1      -1.640  -1.854   0.008  0.00  0.00    -0.286 N 
ATOM     15  H   UNL     1      -1.421  -1.043   0.494  0.00  0.00    +0.155 HD
BRANCH  12  17
ATOM     16  C   UNL     1       1.655  -3.037  -1.332  0.00  0.00    +0.013 C 
ATOM     17  C   UNL     1       0.751  -2.047  -0.594  0.00  0.00    +0.093 C 
ENDBRANCH  12  17
ENDBRANCH   6  14
ENDBRANCH   4   9
ENDBRANCH   1   4
BRANCH   1  18
ATOM     18  C   UNL     1      -8.516  -5.159  -1.371  0.00  0.00    +0.014 C 
ATOM     19  C   UNL     1      -9.253  -4.047  -2.120  0.00  0.00    -0.004 C 
BRANCH  18  20
ATOM     20  C   UNL     1      -8.594  -6.437  -2.166  0.00  0.00    +0.199 C 
ATOM     21  O   UNL     1      -7.576  -6.978  -2.546  0.00  0.00    -0.278 OA
ATOM     22  N   UNL     1      -9.793  -6.979  -2.455  0.00  0.00    -0.313 N 
ATOM     23  H   UNL     1     -10.607  -6.547  -2.152  0.00  0.00    +0.149 HD
BRANCH  22  24
ATOM     24  C   UNL     1      -9.868  -8.221  -3.228  0.00  0.00    +0.139 C 
BRANCH  24  25
ATOM     25  C   UNL     1     -11.312  -8.611  -3.413  0.00  0.00    -0.030 A 
ATOM     26  C   UNL     1     -11.934  -9.420  -2.480  0.00  0.00    +0.005 A 
ATOM     27  C   UNL     1     -13.259  -9.777  -2.650  0.00  0.00    +0.003 A 
ATOM     28  C   UNL     1     -13.961  -9.327  -3.752  0.00  0.00    -0.050 A 
ATOM     29  C   UNL     1     -13.339  -8.518  -4.684  0.00  0.00    +0.003 A 
ATOM     30  C   UNL     1     -12.016  -8.156  -4.513  0.00  0.00    +0.005 A 
ATOM     31  C   UNL     1     -15.405  -9.718  -3.937  0.00  0.00    +0.044 C 
ENDBRANCH  24  25
ENDBRANCH  22  24
ENDBRANCH  18  20
ENDBRANCH   1  18
TORSDOF 8
