REMARK  Name = ZINC12156447
REMARK  10 active torsions:
REMARK  status: ('A' for Active; 'I' for Inactive)
REMARK    1  A    between atoms: C_1  and  C_2
REMARK    2  A    between atoms: C_2  and  C_3
REMARK    3  A    between atoms: C_2  and  C_4
REMARK    4  A    between atoms: C_4  and  C_5
REMARK    5  A    between atoms: C_5  and  C_6
REMARK    6  A    between atoms: C_6  and  C_13
REMARK    7  A    between atoms: C_18  and  C_19
REMARK    8  A    between atoms: C_18  and  N_65
REMARK    9  A    between atoms: C_22  and  C_26
REMARK   10  A    between atoms: C_26  and  C_28
REMARK                            x       y       z     vdW  Elec       q    Type
REMARK                         _______ _______ _______ _____ _____    ______ ____
ROOT
ATOM      1  C   UNL     1      -4.343   1.529   2.541  0.00  0.00    +0.018 C 
ATOM      2  C   UNL     1      -5.090   1.888   1.254  0.00  0.00    -0.013 C 
ATOM      3  C   UNL     1      -6.531   1.381   1.348  0.00  0.00    -0.078 C 
ATOM      4  C   UNL     1      -6.520   1.620   3.759  0.00  0.00    -0.078 C 
ATOM      5  C   UNL     1      -5.080   2.136   3.737  0.00  0.00    -0.013 C 
ATOM      6  N   UNL     1      -7.192   2.021   2.505  0.00  0.00    +0.382 N 
ATOM      7  H   UNL     1      -7.127   3.041   2.403  0.00  0.00    -0.081 HD
ENDROOT
BRANCH   1   8
ATOM      8  C   UNL     1      -2.920   2.088   2.478  0.00  0.00    +0.115 C 
ATOM      9  C   UNL     1      -2.940   3.603   2.521  0.00  0.00    +0.244 C 
ATOM     10  O   UNL     1      -3.459   4.352   1.721  0.00  0.00    -0.273 OA
ATOM     11  N   UNL     1      -2.261   3.945   3.634  0.00  0.00    -0.238 N 
ATOM     12  C   UNL     1      -1.820   2.868   4.294  0.00  0.00    +0.307 C 
ATOM     13  O   UNL     1      -1.182   2.923   5.327  0.00  0.00    -0.252 OA
ATOM     14  N   UNL     1      -2.161   1.718   3.686  0.00  0.00    -0.285 N 
ATOM     15  H   UNL     1      -2.112   4.859   3.922  0.00  0.00    +0.159 HD
ATOM     16  H   UNL     1      -1.949   0.819   3.984  0.00  0.00    +0.151 HD
BRANCH   8  17
ATOM     17  C   UNL     1      -2.204   1.595   1.220  0.00  0.00    +0.036 C 
BRANCH  17  18
ATOM     18  C   UNL     1      -0.735   2.019   1.269  0.00  0.00    +0.005 C 
BRANCH  18  20
ATOM     19  C   UNL     1       0.002  -0.004   0.002  0.00  0.00    +0.007 C 
ATOM     20  C   UNL     1      -0.019   1.526   0.010  0.00  0.00    -0.017 C 
ATOM     21  C   UNL     1       1.417   2.055  -0.000  0.00  0.00    +0.007 C 
ENDBRANCH  18  20
ENDBRANCH  17  18
ENDBRANCH   8  17
ENDBRANCH   1   8
BRANCH   6  22
ATOM     22  C   UNL     1      -8.617   1.633   2.550  0.00  0.00    -0.048 C 
BRANCH  22  23
ATOM     23  C   UNL     1      -9.217   1.799   1.177  0.00  0.00    -0.090 C 
ATOM     24  C   UNL     1      -9.284   0.755   0.414  0.00  0.00    -0.029 C 
ATOM     25  C   UNL     1      -9.863   0.761  -0.970  0.00  0.00    +0.035 C 
ATOM     26  C   UNL     1      -9.959   2.195  -1.495  0.00  0.00    +0.018 C 
ATOM     27  C   UNL     1     -10.639   3.059  -0.425  0.00  0.00    +0.012 C 
ATOM     28  C   UNL     1      -9.707   3.161   0.782  0.00  0.00    +0.029 C 
BRANCH  26  29
ATOM     29  C   UNL     1     -10.778   2.218  -2.760  0.00  0.00    -0.076 C 
ATOM     30  C   UNL     1     -10.247   2.650  -3.877  0.00  0.00    +0.007 C 
ATOM     31  C   UNL     1     -12.208   1.744  -2.740  0.00  0.00    +0.039 C 
ENDBRANCH  26  29
ENDBRANCH  22  23
ENDBRANCH   6  22
TORSDOF 7
