REMARK  Name = ZINC07718834
REMARK  11 active torsions:
REMARK  status: ('A' for Active; 'I' for Inactive)
REMARK    1  A    between atoms: C_1  and  C_2
REMARK    2  A    between atoms: C_5  and  C_8
REMARK    3  A    between atoms: C_8  and  O_10
REMARK    4  A    between atoms: O_10  and  C_11
REMARK    5  A    between atoms: C_15  and  C_17
REMARK    6  A    between atoms: C_17  and  C_18
REMARK    7  A    between atoms: C_17  and  C_26
REMARK    8  A    between atoms: C_19  and  C_25
REMARK    9  A    between atoms: C_23  and  O_24
REMARK   10  A    between atoms: C_27  and  C_33
REMARK   11  A    between atoms: C_31  and  O_32
REMARK                            x       y       z     vdW  Elec       q    Type
REMARK                         _______ _______ _______ _____ _____    ______ ____
ROOT
ATOM      1  C   UNL     1       0.120  -9.362   3.151  0.00  0.00    +0.093 C 
ENDROOT
BRANCH   1   2
ATOM      2  C   UNL     1      -1.086 -10.173   2.753  0.00  0.00    +0.048 A 
ATOM      3  C   UNL     1      -2.222 -10.398   3.537  0.00  0.00    +0.068 A 
ATOM      4  N   UNL     1      -3.051 -11.145   2.854  0.00  0.00    -0.176 NA
ATOM      5  N   UNL     1      -2.471 -11.423   1.609  0.00  0.00    -0.247 N 
ATOM      6  H   UNL     1      -2.865 -11.956   0.902  0.00  0.00    +0.192 HD
ATOM      7  C   UNL     1      -1.266 -10.812   1.567  0.00  0.00    +0.213 A 
ATOM      8  C   UNL     1      -2.452  -9.870   4.929  0.00  0.00    +0.068 C 
BRANCH   7   9
ATOM      9  O   UNL     1      -0.392 -10.834   0.528  0.00  0.00    -0.492 OA
ATOM     10  H   UNL     1       0.186 -11.609   0.517  0.00  0.00    +0.294 HD
ENDBRANCH   7   9
ENDBRANCH   1   2
BRANCH   1  11
ATOM     11  C   UNL     1       1.366 -10.188   2.960  0.00  0.00    +0.048 A 
ATOM     12  C   UNL     1       1.481 -11.518   3.178  0.00  0.00    +0.041 A 
ATOM     13  N   UNL     1       2.750 -11.876   2.893  0.00  0.00    -0.278 N 
ATOM     14  N   UNL     1       3.442 -10.728   2.484  0.00  0.00    -0.136 NA
ATOM     15  H   UNL     1       3.119 -12.770   2.958  0.00  0.00    +0.189 HD
ATOM     16  C   UNL     1       2.611  -9.715   2.519  0.00  0.00    +0.236 A 
ATOM     17  C   UNL     1       0.386 -12.437   3.656  0.00  0.00    +0.065 C 
BRANCH  16  18
ATOM     18  O   UNL     1       2.905  -8.429   2.188  0.00  0.00    -0.491 OA
ATOM     19  H   UNL     1       3.297  -7.917   2.908  0.00  0.00    +0.294 HD
ENDBRANCH  16  18
ENDBRANCH   1  11
BRANCH   1  24
ATOM     20  C   UNL     1       0.044  -5.746   2.055  0.00  0.00    +0.132 A 
ATOM     21  C   UNL     1       0.347  -5.861   0.706  0.00  0.00    +0.046 A 
ATOM     22  C   UNL     1       0.576  -7.107   0.155  0.00  0.00    +0.004 A 
ATOM     23  C   UNL     1       0.502  -8.239   0.947  0.00  0.00    +0.005 A 
ATOM     24  C   UNL     1       0.200  -8.126   2.291  0.00  0.00    -0.032 A 
ATOM     25  C   UNL     1      -0.024  -6.882   2.848  0.00  0.00    +0.051 A 
BRANCH  20  26
ATOM     26  O   UNL     1      -0.180  -4.521   2.600  0.00  0.00    -0.422 OA
BRANCH  26  27
ATOM     27  C   UNL     1       0.797  -3.973   3.347  0.00  0.00    +0.344 C 
ATOM     28  O   UNL     1       1.804  -4.607   3.592  0.00  0.00    -0.245 OA
BRANCH  27  33
ATOM     29  C   UNL     1       0.206   1.378   5.380  0.00  0.00    +0.044 C 
ATOM     30  C   UNL     1       0.361  -0.024   4.847  0.00  0.00    -0.050 A 
ATOM     31  C   UNL     1       1.508  -0.744   5.128  0.00  0.00    +0.004 A 
ATOM     32  C   UNL     1       1.657  -2.027   4.644  0.00  0.00    +0.015 A 
ATOM     33  C   UNL     1       0.645  -2.599   3.869  0.00  0.00    +0.059 A 
ATOM     34  C   UNL     1      -0.510  -1.867   3.590  0.00  0.00    +0.015 A 
ATOM     35  C   UNL     1      -0.648  -0.586   4.085  0.00  0.00    +0.004 A 
ENDBRANCH  27  33
ENDBRANCH  26  27
ENDBRANCH  20  26
ENDBRANCH   1  24
TORSDOF 8
