REMARK  Name = ZINC04730036
REMARK  8 active torsions:
REMARK  status: ('A' for Active; 'I' for Inactive)
REMARK    1  A    between atoms: C_1  and  C_2
REMARK    2  A    between atoms: C_5  and  C_8
REMARK    3  A    between atoms: C_10  and  C_22
REMARK    4  A    between atoms: C_12  and  C_15
REMARK    5  A    between atoms: C_20  and  O_21
REMARK    6  A    between atoms: C_25  and  C_28
REMARK    7  A    between atoms: C_28  and  O_30
REMARK    8  A    between atoms: O_30  and  C_31
REMARK                            x       y       z     vdW  Elec       q    Type
REMARK                         _______ _______ _______ _____ _____    ______ ____
ROOT
ATOM      1  C   UNL     1      -0.319   7.341  -1.427  0.00  0.00    +0.040 C 
ATOM      2  N   UNL     1      -0.913   7.935  -0.462  0.00  0.00    -0.299 NA
ATOM      3  C   UNL     1      -1.322   7.281   0.775  0.00  0.00    +0.081 C 
ATOM      4  C   UNL     1      -0.082   5.350   0.031  0.00  0.00    -0.028 C 
ATOM      5  C   UNL     1       0.021   5.877  -1.404  0.00  0.00    +0.044 C 
ATOM      6  N   UNL     1      -1.358   5.821   0.605  0.00  0.00    +0.401 N 
ATOM      7  H   UNL     1      -2.128   5.570  -0.026  0.00  0.00    -0.081 HD
ATOM      8  H   UNL     1      -1.505   5.375   1.519  0.00  0.00    -0.081 HD
ENDROOT
BRANCH   1  13
ATOM      9  C   UNL     1       1.113  10.415  -6.073  0.00  0.00    +0.044 C 
ATOM     10  C   UNL     1       0.738   9.609  -4.856  0.00  0.00    -0.050 A 
ATOM     11  C   UNL     1       0.096  10.223  -3.796  0.00  0.00    +0.004 A 
ATOM     12  C   UNL     1      -0.251   9.492  -2.678  0.00  0.00    +0.010 A 
ATOM     13  C   UNL     1       0.048   8.130  -2.619  0.00  0.00    -0.004 A 
ATOM     14  C   UNL     1       0.702   7.518  -3.691  0.00  0.00    +0.010 A 
ATOM     15  C   UNL     1       1.037   8.260  -4.804  0.00  0.00    +0.004 A 
ENDBRANCH   1  13
BRANCH   4  16
ATOM     16  C   UNL     1      -0.057   3.844   0.023  0.00  0.00    -0.019 A 
ATOM     17  C   UNL     1      -1.242   3.132   0.031  0.00  0.00    +0.005 A 
ATOM     18  C   UNL     1      -1.220   1.750   0.017  0.00  0.00    +0.000 A 
ATOM     19  C   UNL     1      -0.013   1.076   0.008  0.00  0.00    +0.004 A 
ATOM     20  C   UNL     1       1.174   1.782   0.000  0.00  0.00    +0.045 A 
ATOM     21  C   UNL     1       1.155   3.169   0.008  0.00  0.00    +0.118 A 
BRANCH  21  22
ATOM     22  O   UNL     1       2.321   3.867   0.000  0.00  0.00    -0.507 OA
ATOM     23  H   UNL     1       2.650   4.073  -0.885  0.00  0.00    +0.292 HD
ENDBRANCH  21  22
ENDBRANCH   4  16
BRANCH   3  24
ATOM     24  C   UNL     1      -2.696   7.766   1.162  0.00  0.00    -0.040 A 
ATOM     25  C   UNL     1      -3.550   6.929   1.857  0.00  0.00    +0.004 A 
ATOM     26  C   UNL     1      -4.807   7.368   2.220  0.00  0.00    +0.015 A 
ATOM     27  C   UNL     1      -5.220   8.656   1.874  0.00  0.00    +0.059 A 
ATOM     28  C   UNL     1      -4.354   9.493   1.167  0.00  0.00    +0.015 A 
ATOM     29  C   UNL     1      -3.098   9.043   0.816  0.00  0.00    +0.004 A 
BRANCH  27  30
ATOM     30  C   UNL     1      -6.566   9.131   2.253  0.00  0.00    +0.339 C 
ATOM     31  O   UNL     1      -6.922  10.252   1.950  0.00  0.00    -0.245 OA
BRANCH  30  32
ATOM     32  O   UNL     1      -7.399   8.320   2.935  0.00  0.00    -0.464 OA
ATOM     33  C   UNL     1      -8.706   8.853   3.274  0.00  0.00    +0.280 C 
ENDBRANCH  30  32
ENDBRANCH  27  30
ENDBRANCH   3  24
TORSDOF 6
