REMARK  Name = ZINC44164109
REMARK  7 active torsions:
REMARK  status: ('A' for Active; 'I' for Inactive)
REMARK    1  A    between atoms: C_4  and  C_7
REMARK    2  A    between atoms: C_9  and  C_28
REMARK    3  A    between atoms: C_13  and  C_16
REMARK    4  A    between atoms: N_18  and  C_19
REMARK    5  A    between atoms: C_19  and  C_20
REMARK    6  A    between atoms: C_20  and  C_21
REMARK    7  A    between atoms: C_24  and  O_27
REMARK                            x       y       z     vdW  Elec       q    Type
REMARK                         _______ _______ _______ _____ _____    ______ ____
ROOT
ATOM      1  C   UNL     1       3.711  -0.707  -0.038  0.00  0.00    -0.022 C 
ATOM      2  C   UNL     1       4.050  -1.179   1.381  0.00  0.00    +0.066 C 
ATOM      3  S   UNL     1       5.673  -2.002   1.337  0.00  0.00    -0.155 S 
ATOM      4  C   UNL     1       5.489  -3.168  -0.049  0.00  0.00    +0.063 C 
ATOM      5  C   UNL     1       4.935  -2.399  -1.254  0.00  0.00    +0.027 C 
ATOM      6  N   UNL     1       3.611  -1.861  -0.933  0.00  0.00    +0.393 N 
ATOM      7  H   UNL     1       3.061  -2.580  -0.486  0.00  0.00    -0.084 HD
ATOM      8  H   UNL     1       3.154  -1.579  -1.787  0.00  0.00    -0.084 HD
ENDROOT
BRANCH   1  12
ATOM      9  C   UNL     1      -0.017   1.378   0.010  0.00  0.00    +0.000 A 
ATOM     10  C   UNL     1       1.171   2.086   0.002  0.00  0.00    +0.000 A 
ATOM     11  C   UNL     1       2.377   1.411  -0.013  0.00  0.00    +0.002 A 
ATOM     12  C   UNL     1       2.396   0.029  -0.020  0.00  0.00    -0.060 A 
ATOM     13  C   UNL     1       1.208  -0.679  -0.012  0.00  0.00    +0.002 A 
ATOM     14  C   UNL     1       0.002  -0.004   0.002  0.00  0.00    +0.000 A 
ENDBRANCH   1  12
BRANCH   2  15
ATOM     15  C   UNL     1       4.106   0.006   2.311  0.00  0.00    -0.036 A 
ATOM     16  C   UNL     1       5.006   1.029   2.074  0.00  0.00    +0.004 A 
ATOM     17  C   UNL     1       5.057   2.116   2.926  0.00  0.00    +0.000 A 
ATOM     18  C   UNL     1       4.209   2.180   4.016  0.00  0.00    +0.000 A 
ATOM     19  C   UNL     1       3.308   1.158   4.252  0.00  0.00    +0.000 A 
ATOM     20  C   UNL     1       3.254   0.073   3.397  0.00  0.00    +0.004 A 
ENDBRANCH   2  15
BRANCH   5  21
ATOM     21  C   UNL     1       4.824  -3.330  -2.434  0.00  0.00    +0.200 C 
ATOM     22  O   UNL     1       3.744  -3.527  -2.950  0.00  0.00    -0.278 OA
ATOM     23  N   UNL     1       5.924  -3.942  -2.915  0.00  0.00    -0.316 N 
ATOM     24  H   UNL     1       6.787  -3.784  -2.502  0.00  0.00    +0.149 HD
BRANCH  23  25
ATOM     25  C   UNL     1       5.815  -4.847  -4.062  0.00  0.00    +0.109 C 
BRANCH  25  26
ATOM     26  C   UNL     1       7.198  -5.405  -4.404  0.00  0.00    +0.054 C 
BRANCH  26  27
ATOM     27  C   UNL     1       7.087  -6.336  -5.584  0.00  0.00    -0.046 A 
ATOM     28  C   UNL     1       6.843  -7.681  -5.381  0.00  0.00    +0.007 A 
ATOM     29  C   UNL     1       6.741  -8.537  -6.461  0.00  0.00    +0.045 A 
ATOM     30  C   UNL     1       6.883  -8.044  -7.750  0.00  0.00    +0.117 A 
ATOM     31  C   UNL     1       7.127  -6.694  -7.952  0.00  0.00    +0.045 A 
ATOM     32  C   UNL     1       7.223  -5.841  -6.869  0.00  0.00    +0.007 A 
BRANCH  30  33
ATOM     33  O   UNL     1       6.783  -8.884  -8.814  0.00  0.00    -0.507 OA
ATOM     34  H   UNL     1       5.885  -8.976  -9.160  0.00  0.00    +0.292 HD
ENDBRANCH  30  33
ENDBRANCH  26  27
ENDBRANCH  25  26
ENDBRANCH  23  25
ENDBRANCH   5  21
TORSDOF 7
