REMARK  Name = ZINC37783708
REMARK  2 active torsions:
REMARK  status: ('A' for Active; 'I' for Inactive)
REMARK    1  A    between atoms: C_7  and  N_12
REMARK    2  A    between atoms: N_12  and  C_13
REMARK                            x       y       z     vdW  Elec       q    Type
REMARK                         _______ _______ _______ _____ _____    ______ ____
ROOT
ATOM      1  N   UNL     1       1.055  -2.804   1.180  0.00  0.00    -0.329 N 
ATOM      2  H   UNL     1       0.899  -2.289   1.987  0.00  0.00    +0.147 HD
ENDROOT
BRANCH   1   9
ATOM      3  C   UNL     1      -0.017   1.380   0.010  0.00  0.00    +0.000 A 
ATOM      4  C   UNL     1       1.174   2.084   0.002  0.00  0.00    +0.002 A 
ATOM      5  C   UNL     1       2.380   1.415  -0.013  0.00  0.00    +0.023 A 
ATOM      6  C   UNL     1       2.407   0.021  -0.021  0.00  0.00    +0.039 A 
ATOM      7  C   UNL     1       1.205  -0.674  -0.013  0.00  0.00    +0.003 A 
ATOM      8  C   UNL     1       0.002  -0.004   0.002  0.00  0.00    +0.008 A 
ATOM      9  C   UNL     1       1.563  -2.143  -0.025  0.00  0.00    +0.190 C 
ATOM     10  C   UNL     1       3.077  -2.152  -0.040  0.00  0.00    +0.242 C 
ATOM     11  O   UNL     1       3.791  -3.132  -0.052  0.00  0.00    -0.273 OA
ATOM     12  N   UNL     1       3.480  -0.870  -0.037  0.00  0.00    -0.283 N 
ATOM     13  H   UNL     1       4.410  -0.596  -0.044  0.00  0.00    +0.155 HD
ENDBRANCH   1   9
BRANCH   1  14
ATOM     14  C   UNL     1       0.795  -4.174   1.165  0.00  0.00    +0.039 A 
ATOM     15  C   UNL     1       1.021  -4.912   0.019  0.00  0.00    +0.024 A 
ATOM     16  C   UNL     1       0.764  -6.276  -0.000  0.00  0.00    +0.004 A 
ATOM     17  C   UNL     1       0.281  -6.916   1.119  0.00  0.00    +0.028 A 
ATOM     18  C   UNL     1       0.045  -6.195   2.287  0.00  0.00    +0.067 A 
ATOM     19  C   UNL     1       0.307  -4.814   2.319  0.00  0.00    +0.040 A 
ATOM     20  C   UNL     1      -0.018  -4.363   3.620  0.00  0.00    +0.144 A 
ATOM     21  N   UNL     1      -0.435  -5.378   4.320  0.00  0.00    -0.181 NA
ATOM     22  N   UNL     1      -0.421  -6.534   3.531  0.00  0.00    -0.277 N 
ATOM     23  H   UNL     1      -0.684  -7.423   3.818  0.00  0.00    +0.189 HD
ENDBRANCH   1  14
TORSDOF 2
