REMARK  Name = ZINC20136091
REMARK  9 active torsions:
REMARK  status: ('A' for Active; 'I' for Inactive)
REMARK    1  A    between atoms: C_1  and  C_2
REMARK    2  A    between atoms: C_4  and  C_7
REMARK    3  A    between atoms: C_10  and  C_16
REMARK    4  A    between atoms: C_11  and  N_13
REMARK    5  A    between atoms: N_13  and  C_14
REMARK    6  A    between atoms: N_13  and  C_15
REMARK    7  A    between atoms: N_18  and  C_19
REMARK    8  A    between atoms: C_19  and  C_20
REMARK    9  A    between atoms: C_21  and  C_25
REMARK                            x       y       z     vdW  Elec       q    Type
REMARK                         _______ _______ _______ _____ _____    ______ ____
ROOT
ATOM      1  C   UNL     1      -0.319   2.553   4.929  0.00  0.00    +0.080 A 
ATOM      2  C   UNL     1      -1.094   3.002   6.004  0.00  0.00    +0.030 A 
ATOM      3  C   UNL     1      -0.490   3.290   7.197  0.00  0.00    +0.018 A 
ATOM      4  C   UNL     1       0.899   3.125   7.304  0.00  0.00    +0.077 A 
ATOM      5  C   UNL     1       1.621   2.670   6.186  0.00  0.00    +0.134 A 
ATOM      6  N   UNL     1       0.997   2.398   5.053  0.00  0.00    -0.231 NA
ENDROOT
BRANCH   1  10
ATOM      7  C   UNL     1      -0.644   1.078   0.090  0.00  0.00    +0.044 C 
ATOM      8  C   UNL     1      -1.222   1.570   1.392  0.00  0.00    -0.043 A 
ATOM      9  C   UNL     1      -0.406   1.794   2.476  0.00  0.00    +0.021 A 
ATOM     10  C   UNL     1      -0.969   2.242   3.644  0.00  0.00    +0.038 A 
ATOM     11  S   UNL     1      -2.696   2.351   3.202  0.00  0.00    -0.095 S 
ATOM     12  C   UNL     1      -2.557   1.804   1.508  0.00  0.00    +0.049 A 
ENDBRANCH   1  10
BRANCH   4  13
ATOM     13  C   UNL     1       1.591   3.423   8.569  0.00  0.00    +0.248 C 
ATOM     14  O   UNL     1       2.778   3.183   8.684  0.00  0.00    -0.270 OA
ATOM     15  N   UNL     1       0.910   3.963   9.598  0.00  0.00    -0.305 N 
ATOM     16  H   UNL     1      -0.163   4.180   9.494  0.00  0.00    +0.149 HD
BRANCH  15  17
ATOM     17  C   UNL     1       1.599   4.260  10.857  0.00  0.00    +0.165 C 
BRANCH  17  18
ATOM     18  C   UNL     1       0.620   4.853  11.838  0.00  0.00    +0.124 A 
ATOM     19  C   UNL     1      -0.160   4.119  12.754  0.00  0.00    +0.106 A 
ATOM     20  N   UNL     1      -0.894   4.937  13.447  0.00  0.00    -0.054 NA
ATOM     21  O   UNL     1      -0.608   6.252  12.995  0.00  0.00    -0.242 OA
ATOM     22  N   UNL     1       0.367   6.120  11.974  0.00  0.00    -0.052 NA
ATOM     23  C   UNL     1      -0.146   2.620  12.905  0.00  0.00    +0.071 C 
ENDBRANCH  17  18
ENDBRANCH  15  17
ENDBRANCH   4  13
BRANCH   5  24
ATOM     24  N   UNL     1       2.991   2.501   6.274  0.00  0.00    -0.321 N 
ATOM     25  C   UNL     1       3.378   1.134   5.899  0.00  0.00    +0.130 C 
ATOM     26  C   UNL     1       3.697   3.492   5.452  0.00  0.00    +0.130 C 
ENDBRANCH   5  24
TORSDOF 5
