REMARK  Name = ZINC32865953
REMARK  5 active torsions:
REMARK  status: ('A' for Active; 'I' for Inactive)
REMARK    1  A    between atoms: C_8  and  C_11
REMARK    2  A    between atoms: C_11  and  O_13
REMARK    3  A    between atoms: O_13  and  C_14
REMARK    4  A    between atoms: C_14  and  C_15
REMARK    5  A    between atoms: C_17  and  C_20
REMARK                            x       y       z     vdW  Elec       q    Type
REMARK                         _______ _______ _______ _____ _____    ______ ____
ROOT
ATOM      1  C   UNL     1       1.123  -2.113  -0.020  0.00  0.00    +0.309 C 
ENDROOT
BRANCH   1   2
ATOM      2  C   UNL     1       2.523  -2.670  -0.036  0.00  0.00    +0.175 A 
ATOM      3  C   UNL     1       3.285  -2.969   1.040  0.00  0.00    +0.079 A 
ATOM      4  C   UNL     1       4.497  -3.457   0.476  0.00  0.00    +0.115 A 
ATOM      5  N   UNL     1       4.345  -3.394  -0.824  0.00  0.00    -0.078 NA
ATOM      6  O   UNL     1       3.256  -2.960  -1.121  0.00  0.00    -0.356 OA
BRANCH   4   7
ATOM      7  C   UNL     1       5.694  -3.934   1.211  0.00  0.00    +0.022 A 
ATOM      8  C   UNL     1       5.704  -3.936   2.605  0.00  0.00    +0.013 A 
ATOM      9  C   UNL     1       6.818  -4.385   3.284  0.00  0.00    +0.021 A 
ATOM     10  C   UNL     1       7.929  -4.825   2.584  0.00  0.00    +0.042 A 
ATOM     11  C   UNL     1       7.927  -4.822   1.201  0.00  0.00    +0.040 A 
ATOM     12  C   UNL     1       6.815  -4.378   0.510  0.00  0.00    +0.052 A 
ATOM     13 CL   UNL     1       6.813  -4.375  -1.226  0.00  0.00    -0.083 Cl
ATOM     14 CL   UNL     1       9.329  -5.382   3.446  0.00  0.00    -0.083 Cl
ENDBRANCH   4   7
ENDBRANCH   1   2
BRANCH   1  15
ATOM     15  O   UNL     1       1.179  -0.662  -0.013  0.00  0.00    -0.452 OA
BRANCH  15  16
ATOM     16  C   UNL     1       0.002  -0.004   0.002  0.00  0.00    +0.356 C 
ATOM     17  O   UNL     1      -1.042  -0.626   0.009  0.00  0.00    -0.243 OA
BRANCH  16  25
ATOM     18  C   UNL     1      -0.726   5.985   0.040  0.00  0.00    +0.001 A 
ATOM     19  C   UNL     1       0.664   5.988   0.027  0.00  0.00    +0.002 A 
ATOM     20  C   UNL     1       1.369   4.806   0.015  0.00  0.00    +0.026 A 
ATOM     21  C   UNL     1       0.685   3.593   0.015  0.00  0.00    +0.047 A 
ATOM     22  C   UNL     1      -0.724   3.592   0.028  0.00  0.00    +0.000 A 
ATOM     23  C   UNL     1      -1.417   4.809   0.041  0.00  0.00    +0.010 A 
ATOM     24  C   UNL     1      -1.136   2.238   0.019  0.00  0.00    +0.042 A 
ATOM     25  C   UNL     1      -0.018   1.465   0.010  0.00  0.00    +0.125 A 
ATOM     26  N   UNL     1       1.097   2.281   0.004  0.00  0.00    -0.349 N 
ATOM     27  H   UNL     1       2.171   2.042  -0.008  0.00  0.00    +0.166 HD
ENDBRANCH  16  25
ENDBRANCH  15  16
ENDBRANCH   1  15
TORSDOF 5
