REMARK  Name = ZINC65946228
REMARK  4 active torsions:
REMARK  status: ('A' for Active; 'I' for Inactive)
REMARK    1  A    between atoms: C_1  and  C_2
REMARK    2  A    between atoms: C_4  and  N_9
REMARK    3  A    between atoms: C_13  and  C_15
REMARK    4  A    between atoms: N_17  and  C_18
REMARK                            x       y       z     vdW  Elec       q    Type
REMARK                         _______ _______ _______ _____ _____    ______ ____
ROOT
ATOM      1  N   UNL     1       0.030  -2.826  -2.330  0.00  0.00    -0.314 N 
ATOM      2  C   UNL     1       0.044  -4.295  -2.294  0.00  0.00    +0.106 C 
ATOM      3  C   UNL     1      -1.120  -4.820  -3.139  0.00  0.00    +0.020 C 
ATOM      4  C   UNL     1      -1.033  -4.225  -4.547  0.00  0.00    +0.016 C 
ATOM      5  C   UNL     1      -1.145  -2.701  -4.466  0.00  0.00    +0.092 C 
ATOM      6  C   UNL     1       0.013  -2.152  -3.635  0.00  0.00    +0.119 C 
ENDROOT
BRANCH   1  10
ATOM      7  C   UNL     1       0.419   1.475   0.029  0.00  0.00    +0.066 C 
ATOM      8  C   UNL     1       0.210  -0.017   0.011  0.00  0.00    +0.045 A 
ATOM      9  C   UNL     1       0.223  -0.709  -1.184  0.00  0.00    +0.066 A 
ATOM     10  C   UNL     1       0.026  -2.091  -1.156  0.00  0.00    +0.127 A 
ATOM     11  N   UNL     1      -0.167  -2.692   0.014  0.00  0.00    -0.200 NA
ATOM     12  C   UNL     1      -0.172  -1.991   1.139  0.00  0.00    +0.214 A 
ATOM     13  N   UNL     1       0.018  -0.680   1.142  0.00  0.00    -0.220 NA
ATOM     14  N   UNL     1      -0.375  -2.647   2.341  0.00  0.00    -0.327 N 
ATOM     15  H   UNL     1      -0.511  -3.607   2.353  0.00  0.00    +0.145 HD
ATOM     16  H   UNL     1      -0.380  -2.146   3.171  0.00  0.00    +0.145 HD
ENDBRANCH   1  10
BRANCH   5  17
ATOM     17  C   UNL     1      -1.091  -2.118  -5.854  0.00  0.00    +0.218 C 
ATOM     18  O   UNL     1      -0.212  -1.338  -6.151  0.00  0.00    -0.275 OA
ATOM     19  N   UNL     1      -2.021  -2.464  -6.766  0.00  0.00    -0.312 N 
ATOM     20  H   UNL     1      -2.725  -3.088  -6.529  0.00  0.00    +0.149 HD
BRANCH  19  21
ATOM     21  C   UNL     1      -1.970  -1.898  -8.117  0.00  0.00    +0.073 C 
ATOM     22  C   UNL     1      -2.676  -0.540  -8.127  0.00  0.00    +0.022 C 
ATOM     23  C   UNL     1      -2.622   0.051  -9.537  0.00  0.00    +0.002 C 
ATOM     24  C   UNL     1      -3.321  -0.895 -10.515  0.00  0.00    +0.000 C 
ATOM     25  C   UNL     1      -2.615  -2.252 -10.504  0.00  0.00    +0.002 C 
ATOM     26  C   UNL     1      -2.669  -2.844  -9.094  0.00  0.00    +0.022 C 
ENDBRANCH  19  21
ENDBRANCH   5  17
TORSDOF 3
