REMARK  Name = ZINC12425130
REMARK  10 active torsions:
REMARK  status: ('A' for Active; 'I' for Inactive)
REMARK    1  A    between atoms: C_1  and  N_2
REMARK    2  A    between atoms: C_5  and  C_18
REMARK    3  A    between atoms: C_6  and  N_17
REMARK    4  A    between atoms: N_7  and  C_10
REMARK    5  A    between atoms: C_10  and  C_11
REMARK    6  A    between atoms: C_18  and  C_20
REMARK    7  A    between atoms: C_20  and  O_21
REMARK    8  A    between atoms: O_21  and  C_22
REMARK    9  A    between atoms: C_22  and  C_24
REMARK   10  A    between atoms: C_24  and  C_25
REMARK                            x       y       z     vdW  Elec       q    Type
REMARK                         _______ _______ _______ _____ _____    ______ ____
ROOT
ATOM      1  C   UNL     1      -1.315   5.007   3.919  0.00  0.00    +0.157 C 
ATOM      2  N   UNL     1      -1.742   3.752   3.297  0.00  0.00    -0.263 N 
ATOM      3  C   UNL     1      -2.507   2.889   3.997  0.00  0.00    +0.269 A 
ATOM      4  O   UNL     1      -2.845   3.143   5.138  0.00  0.00    -0.267 OA
ATOM      5  C   UNL     1      -2.924   1.636   3.353  0.00  0.00    +0.123 A 
ATOM      6  C   UNL     1      -2.505   1.406   2.031  0.00  0.00    +0.116 A 
ATOM      7  N   UNL     1      -1.726   2.342   1.413  0.00  0.00    -0.277 N 
ATOM      8  C   UNL     1      -1.367   3.475   2.038  0.00  0.00    +0.333 A 
ATOM      9  O   UNL     1      -0.678   4.279   1.442  0.00  0.00    -0.246 OA
ENDROOT
BRANCH   6  10
ATOM     10  N   UNL     1      -2.864   0.267   1.381  0.00  0.00    -0.344 N 
ATOM     11  H   UNL     1      -3.085  -0.531   1.886  0.00  0.00    +0.144 HD
ATOM     12  H   UNL     1      -2.900   0.252   0.411  0.00  0.00    +0.144 HD
ENDBRANCH   6  10
BRANCH   5  13
ATOM     13  C   UNL     1      -3.724   0.697   4.037  0.00  0.00    +0.209 C 
ATOM     14  O   UNL     1      -4.151  -0.278   3.452  0.00  0.00    -0.288 OA
BRANCH  13  15
ATOM     15  C   UNL     1      -4.050   0.904   5.494  0.00  0.00    +0.311 C 
BRANCH  15  16
ATOM     16  O   UNL     1      -4.880  -0.191   5.965  0.00  0.00    -0.457 OA
BRANCH  16  17
ATOM     17  C   UNL     1      -5.261  -0.157   7.251  0.00  0.00    +0.309 C 
ATOM     18  O   UNL     1      -4.913   0.756   7.961  0.00  0.00    -0.251 OA
BRANCH  17  19
ATOM     19  C   UNL     1      -6.124  -1.259   7.811  0.00  0.00    +0.144 C 
BRANCH  19  20
ATOM     20  C   UNL     1      -6.412  -0.981   9.287  0.00  0.00    +0.148 C 
ATOM     21  C   UNL     1      -7.353  -2.028   9.825  0.00  0.00    +0.231 C 
ATOM     22  O   UNL     1      -8.534  -1.760   9.897  0.00  0.00    -0.274 OA
ATOM     23  N   UNL     1      -6.953  -3.230  10.225  0.00  0.00    -0.284 N 
ATOM     24  C   UNL     1      -5.639  -3.677  10.327  0.00  0.00    +0.047 A 
ATOM     25  C   UNL     1      -5.391  -5.043  10.412  0.00  0.00    +0.024 A 
ATOM     26  C   UNL     1      -4.095  -5.512  10.493  0.00  0.00    +0.002 A 
ATOM     27  C   UNL     1      -3.029  -4.631  10.491  0.00  0.00    +0.001 A 
ATOM     28  C   UNL     1      -3.260  -3.270  10.412  0.00  0.00    +0.016 A 
ATOM     29  C   UNL     1      -4.559  -2.794  10.332  0.00  0.00    +0.030 A 
ATOM     30  S   UNL     1      -4.863  -1.058  10.237  0.00  0.00    -0.110 S 
ATOM     31  H   UNL     1      -7.647  -3.861  10.470  0.00  0.00    +0.155 HD
ENDBRANCH  19  20
ENDBRANCH  17  19
ENDBRANCH  16  17
ENDBRANCH  15  16
ENDBRANCH  13  15
ENDBRANCH   5  13
BRANCH   7  32
ATOM     32  C   UNL     1      -1.279   2.109   0.037  0.00  0.00    +0.163 C 
BRANCH  32  33
ATOM     33  C   UNL     1       0.044   1.388   0.054  0.00  0.00    -0.028 A 
ATOM     34  C   UNL     1       1.224   2.109   0.064  0.00  0.00    +0.005 A 
ATOM     35  C   UNL     1       2.437   1.448   0.073  0.00  0.00    +0.000 A 
ATOM     36  C   UNL     1       2.472   0.066   0.073  0.00  0.00    +0.000 A 
ATOM     37  C   UNL     1       1.292  -0.655   0.064  0.00  0.00    +0.000 A 
ATOM     38  C   UNL     1       0.078   0.006   0.055  0.00  0.00    +0.005 A 
ENDBRANCH  32  33
ENDBRANCH   7  32
TORSDOF 9
