REMARK  Name = ZINC20084966
REMARK  11 active torsions:
REMARK  status: ('A' for Active; 'I' for Inactive)
REMARK    1  A    between atoms: C_1  and  C_2
REMARK    2  A    between atoms: C_3  and  C_31
REMARK    3  A    between atoms: N_4  and  C_25
REMARK    4  A    between atoms: C_5  and  N_9
REMARK    5  A    between atoms: C_6  and  C_7
REMARK    6  A    between atoms: C_10  and  C_12
REMARK    7  A    between atoms: C_12  and  O_13
REMARK    8  A    between atoms: O_13  and  C_14
REMARK    9  A    between atoms: C_14  and  C_16
REMARK   10  A    between atoms: C_16  and  N_17
REMARK   11  A    between atoms: C_25  and  C_26
REMARK                            x       y       z     vdW  Elec       q    Type
REMARK                         _______ _______ _______ _____ _____    ______ ____
ROOT
ATOM      1  N   UNL     1       3.487   1.180   0.279  0.00  0.00    -0.268 N 
ATOM      2  C   UNL     1       3.926   2.454   0.325  0.00  0.00    +0.256 C 
ATOM      3  O   UNL     1       3.130   3.369   0.325  0.00  0.00    -0.272 OA
ATOM      4  H   UNL     1       4.207   0.349   0.311  0.00  0.00    +0.156 HD
ENDROOT
BRANCH   1   9
ATOM      5  C   UNL     1      -1.402   1.330  -0.990  0.00  0.00    +0.047 C 
ATOM      6  C   UNL     1      -0.085   0.958  -0.359  0.00  0.00    -0.011 A 
ATOM      7  C   UNL     1       0.127  -0.017   0.540  0.00  0.00    +0.022 A 
ATOM      8  N   UNL     1       1.455  -0.045   0.873  0.00  0.00    -0.324 N 
ATOM      9  C   UNL     1       2.128   0.917   0.192  0.00  0.00    +0.124 A 
ATOM     10  C   UNL     1       1.216   1.591  -0.608  0.00  0.00    +0.095 A 
ATOM     11  C   UNL     1      -0.932  -0.932   1.099  0.00  0.00    +0.064 C 
BRANCH  10  12
ATOM     12  C   UNL     1       1.488   2.683  -1.494  0.00  0.00    +0.103 C 
ATOM     13  N   UNL     1       1.704   3.548  -2.198  0.00  0.00    -0.191 NA
ENDBRANCH  10  12
BRANCH   8  14
ATOM     14  C   UNL     1       2.061  -0.978   1.826  0.00  0.00    +0.197 C 
BRANCH  14  15
ATOM     15  C   UNL     1       2.395  -2.268   1.123  0.00  0.00    +0.124 A 
ATOM     16  C   UNL     1       3.556  -2.549   0.505  0.00  0.00    +0.046 A 
ATOM     17  C   UNL     1       3.439  -3.860  -0.011  0.00  0.00    +0.041 A 
ATOM     18  C   UNL     1       2.210  -4.299   0.316  0.00  0.00    +0.195 A 
ATOM     19  O   UNL     1       1.582  -3.330   1.003  0.00  0.00    -0.466 OA
ENDBRANCH  14  15
ENDBRANCH   8  14
ENDBRANCH   1   9
BRANCH   2  20
ATOM     20  C   UNL     1       5.404   2.740   0.378  0.00  0.00    +0.328 C 
BRANCH  20  21
ATOM     21  O   UNL     1       5.618   4.176   0.421  0.00  0.00    -0.454 OA
BRANCH  21  22
ATOM     22  C   UNL     1       6.890   4.601   0.471  0.00  0.00    +0.325 C 
ATOM     23  O   UNL     1       7.795   3.801   0.478  0.00  0.00    -0.249 OA
BRANCH  22  24
ATOM     24  C   UNL     1       7.189   6.078   0.518  0.00  0.00    +0.228 C 
BRANCH  24  25
ATOM     25  N   UNL     1       8.639   6.281   0.567  0.00  0.00    -0.291 N 
ATOM     26  C   UNL     1       9.402   6.415  -0.684  0.00  0.00    +0.108 C 
ATOM     27  C   UNL     1      10.227   5.143  -0.894  0.00  0.00    +0.019 C 
ATOM     28  C   UNL     1      11.561   5.239  -0.177  0.00  0.00    +0.002 C 
ATOM     29  C   UNL     1      11.443   5.261   1.336  0.00  0.00    +0.009 C 
ATOM     30  C   UNL     1      10.759   6.546   1.809  0.00  0.00    +0.096 C 
ATOM     31  C   UNL     1       9.259   6.348   1.746  0.00  0.00    +0.216 C 
ATOM     32  O   UNL     1       8.620   6.247   2.772  0.00  0.00    -0.276 OA
ENDBRANCH  24  25
ENDBRANCH  22  24
ENDBRANCH  21  22
ENDBRANCH  20  21
ENDBRANCH   2  20
TORSDOF 9
