REMARK  Name = ZINC32591544
REMARK  4 active torsions:
REMARK  status: ('A' for Active; 'I' for Inactive)
REMARK    1  A    between atoms: C_1  and  C_2
REMARK    2  A    between atoms: C_5  and  S_9
REMARK    3  A    between atoms: S_9  and  N_12
REMARK    4  A    between atoms: N_12  and  C_13
REMARK                            x       y       z     vdW  Elec       q    Type
REMARK                         _______ _______ _______ _____ _____    ______ ____
ROOT
ATOM      1  N   UNL     1      -4.001   4.914   0.126  0.00  0.00    -0.216 N 
ATOM      2  H   UNL     1      -2.965   4.827  -0.231  0.00  0.00    +0.174 HD
ENDROOT
BRANCH   1   3
ATOM      3  C   UNL     1      -4.255   5.249   1.461  0.00  0.00    +0.049 A 
ATOM      4  C   UNL     1      -5.207   6.224   1.763  0.00  0.00    +0.026 A 
ATOM      5  C   UNL     1      -5.470   6.565   3.058  0.00  0.00    +0.029 A 
ATOM      6  C   UNL     1      -4.791   5.935   4.098  0.00  0.00    +0.066 A 
ATOM      7  C   UNL     1      -3.824   4.955   3.805  0.00  0.00    +0.021 A 
ATOM      8  C   UNL     1      -3.563   4.614   2.472  0.00  0.00    +0.036 A 
ATOM      9  C   UNL     1      -3.297   4.501   5.088  0.00  0.00    +0.142 A 
ATOM     10  N   UNL     1      -3.905   5.167   6.027  0.00  0.00    -0.181 NA
ATOM     11  N   UNL     1      -4.825   6.059   5.465  0.00  0.00    -0.277 N 
ATOM     12  H   UNL     1      -5.510   6.780   5.935  0.00  0.00    +0.189 HD
ENDBRANCH   1   3
BRANCH   1  13
ATOM     13  S   UNL     1      -5.261   4.649  -0.915  0.00  0.00    +0.073 S 
ATOM     14  O   UNL     1      -6.110   5.785  -0.823  0.00  0.00    -0.150 OA
ATOM     15  O   UNL     1      -4.689   4.222  -2.144  0.00  0.00    -0.150 OA
BRANCH  13  20
ATOM     16  C   UNL     1      -8.404  -0.031   1.238  0.00  0.00    +0.044 C 
ATOM     17  C   UNL     1      -7.618   1.138   0.701  0.00  0.00    -0.049 A 
ATOM     18  C   UNL     1      -8.205   2.387   0.623  0.00  0.00    +0.005 A 
ATOM     19  C   UNL     1      -7.485   3.459   0.129  0.00  0.00    +0.030 A 
ATOM     20  C   UNL     1      -6.178   3.282  -0.286  0.00  0.00    +0.122 A 
ATOM     21  C   UNL     1      -5.593   2.031  -0.212  0.00  0.00    +0.045 A 
ATOM     22  C   UNL     1      -6.312   0.960   0.287  0.00  0.00    +0.020 A 
ATOM     23 BR   UNL     1      -3.808   1.788  -0.786  0.00  0.00    -0.048 Br
ENDBRANCH  13  20
ENDBRANCH   1  13
TORSDOF 3
