REMARK  Name = ZINC39359598
REMARK  7 active torsions:
REMARK  status: ('A' for Active; 'I' for Inactive)
REMARK    1  A    between atoms: C_1  and  C_2
REMARK    2  A    between atoms: C_3  and  C_29
REMARK    3  A    between atoms: C_4  and  C_16
REMARK    4  A    between atoms: C_20  and  O_22
REMARK    5  A    between atoms: O_22  and  C_23
REMARK    6  A    between atoms: C_29  and  O_31
REMARK    7  A    between atoms: O_31  and  C_32
REMARK                            x       y       z     vdW  Elec       q    Type
REMARK                         _______ _______ _______ _____ _____    ______ ____
ROOT
ATOM      1  C   UNL     1       1.484  -0.317  -0.425  0.00  0.00    +0.061 C 
ATOM      2  C   UNL     1       1.074  -1.765  -0.491  0.00  0.00    +0.016 C 
ATOM      3  C   UNL     1      -0.221  -2.088  -0.376  0.00  0.00    +0.062 C 
ATOM      4  C   UNL     1      -0.724  -3.504  -0.409  0.00  0.00    +0.076 C 
ATOM      5  C   UNL     1       0.282  -4.408  -1.124  0.00  0.00    +0.148 C 
ATOM      6  C   UNL     1       1.643  -4.033  -0.557  0.00  0.00    +0.106 C 
ATOM      7  N   UNL     1       2.359  -4.952   0.022  0.00  0.00    -0.151 NA
ATOM      8  C   UNL     1       1.925  -6.212   0.157  0.00  0.00    +0.331 C 
ATOM      9  O   UNL     1       2.673  -7.014   0.684  0.00  0.00    -0.250 OA
ATOM     10  N   UNL     1       0.727  -6.650  -0.248  0.00  0.00    -0.238 N 
ATOM     11  C   UNL     1      -0.160  -5.842  -0.892  0.00  0.00    +0.231 C 
ATOM     12  O   UNL     1      -1.246  -6.237  -1.258  0.00  0.00    -0.275 OA
ATOM     13  N   UNL     1       2.037  -2.734  -0.673  0.00  0.00    -0.307 N 
ATOM     14  H   UNL     1       0.482  -7.574  -0.082  0.00  0.00    +0.159 HD
ATOM     15  H   UNL     1       2.957  -2.501  -0.873  0.00  0.00    +0.153 HD
ENDROOT
BRANCH   4  16
ATOM     16  C   UNL     1      -2.040  -3.549  -1.143  0.00  0.00    -0.035 A 
ATOM     17  C   UNL     1      -2.109  -3.142  -2.462  0.00  0.00    +0.004 A 
ATOM     18  C   UNL     1      -3.314  -3.183  -3.139  0.00  0.00    +0.004 A 
ATOM     19  C   UNL     1      -4.453  -3.630  -2.497  0.00  0.00    +0.046 A 
ATOM     20  C   UNL     1      -4.386  -4.039  -1.173  0.00  0.00    +0.129 A 
ATOM     21  C   UNL     1      -3.174  -4.003  -0.498  0.00  0.00    +0.050 A 
BRANCH  20  22
ATOM     22  O   UNL     1      -5.505  -4.480  -0.540  0.00  0.00    -0.456 OA
BRANCH  22  23
ATOM     23  C   UNL     1      -5.393  -4.863   0.759  0.00  0.00    +0.128 A 
ATOM     24  C   UNL     1      -5.579  -3.936   1.776  0.00  0.00    +0.046 A 
ATOM     25  C   UNL     1      -5.466  -4.328   3.095  0.00  0.00    +0.004 A 
ATOM     26  C   UNL     1      -5.166  -5.642   3.404  0.00  0.00    +0.000 A 
ATOM     27  C   UNL     1      -4.980  -6.567   2.393  0.00  0.00    +0.004 A 
ATOM     28  C   UNL     1      -5.099  -6.182   1.072  0.00  0.00    +0.046 A 
ENDBRANCH  22  23
ENDBRANCH  20  22
ENDBRANCH   4  16
BRANCH   3  29
ATOM     29  C   UNL     1      -1.163  -1.044  -0.216  0.00  0.00    +0.337 C 
ATOM     30  O   UNL     1      -0.789   0.113  -0.185  0.00  0.00    -0.245 OA
BRANCH  29  31
ATOM     31  O   UNL     1      -2.476  -1.332  -0.098  0.00  0.00    -0.465 OA
ATOM     32  C   UNL     1      -3.370  -0.228   0.061  0.00  0.00    +0.280 C 
ENDBRANCH  29  31
ENDBRANCH   3  29
TORSDOF 5
