REMARK  Name = ZINC35990947
REMARK  10 active torsions:
REMARK  status: ('A' for Active; 'I' for Inactive)
REMARK    1  A    between atoms: C_1  and  C_2
REMARK    2  A    between atoms: C_2  and  O_3
REMARK    3  A    between atoms: O_3  and  C_4
REMARK    4  A    between atoms: C_4  and  C_6
REMARK    5  A    between atoms: C_7  and  C_23
REMARK    6  A    between atoms: N_8  and  C_22
REMARK    7  A    between atoms: C_12  and  C_14
REMARK    8  A    between atoms: C_17  and  C_21
REMARK    9  A    between atoms: C_19  and  C_20
REMARK   10  A    between atoms: C_23  and  N_24
REMARK                            x       y       z     vdW  Elec       q    Type
REMARK                         _______ _______ _______ _____ _____    ______ ____
ROOT
ATOM      1  C   UNL     1      -2.842  -2.103   0.055  0.00  0.00    +0.080 C 
ATOM      2  C   UNL     1      -3.029  -3.438  -0.028  0.00  0.00    +0.041 C 
ATOM      3  N   UNL     1      -4.284  -3.970  -0.105  0.00  0.00    -0.260 N 
ATOM      4  C   UNL     1      -5.404  -3.236  -0.105  0.00  0.00    +0.307 C 
ATOM      5  O   UNL     1      -6.478  -3.801  -0.177  0.00  0.00    -0.252 OA
ATOM      6  N   UNL     1      -5.379  -1.891  -0.028  0.00  0.00    -0.288 N 
ATOM      7  C   UNL     1      -4.073  -1.218   0.066  0.00  0.00    +0.144 C 
ATOM      8  C   UNL     1      -4.412  -5.427  -0.193  0.00  0.00    +0.139 C 
ATOM      9  H   UNL     1      -6.203  -1.378  -0.030  0.00  0.00    +0.151 HD
ENDROOT
BRANCH   7  10
ATOM     10  C   UNL     1      -4.051  -0.408   1.336  0.00  0.00    -0.020 A 
ATOM     11  C   UNL     1      -4.691  -0.880   2.468  0.00  0.00    +0.006 A 
ATOM     12  C   UNL     1      -4.671  -0.137   3.633  0.00  0.00    +0.004 A 
ATOM     13  C   UNL     1      -4.012   1.077   3.668  0.00  0.00    -0.050 A 
ATOM     14  C   UNL     1      -3.372   1.549   2.537  0.00  0.00    +0.007 A 
ATOM     15  C   UNL     1      -3.388   0.804   1.373  0.00  0.00    -0.045 A 
ATOM     16  C   UNL     1      -2.685   1.315   0.141  0.00  0.00    +0.044 C 
ATOM     17  C   UNL     1      -3.992   1.888   4.938  0.00  0.00    +0.044 C 
ENDBRANCH   7  10
BRANCH   1  18
ATOM     18  C   UNL     1      -1.543  -1.549   0.135  0.00  0.00    +0.339 C 
ATOM     19  O   UNL     1      -1.100  -1.190   1.210  0.00  0.00    -0.245 OA
BRANCH  18  20
ATOM     20  O   UNL     1      -0.795  -1.420  -0.980  0.00  0.00    -0.462 OA
BRANCH  20  22
ATOM     21  C   UNL     1       1.195  -0.762  -2.183  0.00  0.00    +0.048 C 
ATOM     22  C   UNL     1       0.547  -0.959  -0.811  0.00  0.00    +0.229 C 
ENDBRANCH  20  22
ENDBRANCH  18  20
ENDBRANCH   1  18
BRANCH   2  23
ATOM     23  C   UNL     1      -1.833  -4.354  -0.037  0.00  0.00    +0.136 C 
BRANCH  23  24
ATOM     24  N   UNL     1      -1.756  -5.047  -1.330  0.00  0.00    -0.299 NA
ATOM     25  C   UNL     1      -1.377  -4.137  -2.383  0.00  0.00    +0.083 C 
ATOM     26  C   UNL     1      -2.089  -4.431  -3.719  0.00  0.00    -0.004 C 
ATOM     27  C   UNL     1      -2.164  -5.941  -4.015  0.00  0.00    -0.081 C 
ATOM     28  N   UNL     1      -0.935  -6.619  -3.675  0.00  0.00    +0.380 N 
ATOM     29  C   UNL     1      -1.079  -7.171  -2.314  0.00  0.00    -0.067 C 
ATOM     30  C   UNL     1      -0.809  -6.189  -1.266  0.00  0.00    +0.066 C 
ATOM     31  H   UNL     1      -0.766  -7.367  -4.330  0.00  0.00    -0.086 HD
ATOM     32  H   UNL     1      -0.168  -5.964  -3.698  0.00  0.00    -0.086 HD
ENDBRANCH  23  24
ENDBRANCH   2  23
TORSDOF 6
