REMARK  Name = ZINC23074448
REMARK  6 active torsions:
REMARK  status: ('A' for Active; 'I' for Inactive)
REMARK    1  A    between atoms: C_3  and  N_25
REMARK    2  A    between atoms: C_6  and  C_7
REMARK    3  A    between atoms: C_7  and  C_9
REMARK    4  A    between atoms: C_7  and  O_24
REMARK    5  A    between atoms: C_9  and  N_10
REMARK    6  A    between atoms: C_17  and  C_20
REMARK                            x       y       z     vdW  Elec       q    Type
REMARK                         _______ _______ _______ _____ _____    ______ ____
ROOT
ATOM      1  N   UNL     1      -2.419   3.834   0.045  0.00  0.00    -0.325 N 
ATOM      2  C   UNL     1      -1.204   3.157   0.030  0.00  0.00    +0.140 A 
ATOM      3  C   UNL     1      -1.194   1.748   0.017  0.00  0.00    +0.049 A 
ATOM      4  C   UNL     1      -0.013   1.076   0.008  0.00  0.00    +0.053 A 
ATOM      5  C   UNL     1       1.192   1.805   0.000  0.00  0.00    +0.178 A 
ATOM      6  N   UNL     1       2.470   1.463  -0.014  0.00  0.00    -0.128 NA
ATOM      7  N   UNL     1       3.195   2.527  -0.015  0.00  0.00    -0.123 NA
ATOM      8  C   UNL     1       2.432   3.592  -0.002  0.00  0.00    +0.258 A 
ATOM      9  N   UNL     1       1.147   3.178   0.008  0.00  0.00    -0.187 N 
ATOM     10  N   UNL     1      -0.083   3.838   0.023  0.00  0.00    -0.148 NA
ATOM     11  H   UNL     1      -2.436   4.934   0.052  0.00  0.00    +0.148 HD
ENDROOT
BRANCH   8  12
ATOM     12  C   UNL     1       2.904   5.024   0.002  0.00  0.00    +0.454 C 
ATOM     13  F   UNL     1       4.257   5.069  -0.352  0.00  0.00    -0.163 F 
ATOM     14  F   UNL     1       2.156   5.764  -0.919  0.00  0.00    -0.163 F 
ATOM     15  F   UNL     1       2.738   5.566   1.281  0.00  0.00    -0.163 F 
ENDBRANCH   8  12
BRANCH   1  16
ATOM     16  C   UNL     1      -3.677   3.083   0.053  0.00  0.00    +0.139 C 
BRANCH  16  17
ATOM     17  C   UNL     1      -4.854   4.060   0.070  0.00  0.00    +0.161 C 
BRANCH  17  23
ATOM     18  C   UNL     1      -6.707   2.691  -0.910  0.00  0.00    +0.008 A 
ATOM     19  C   UNL     1      -7.887   1.982  -0.788  0.00  0.00    +0.033 A 
ATOM     20  C   UNL     1      -8.509   1.879   0.442  0.00  0.00    +0.126 A 
ATOM     21  C   UNL     1      -7.947   2.482   1.552  0.00  0.00    +0.033 A 
ATOM     22  C   UNL     1      -6.765   3.188   1.432  0.00  0.00    +0.008 A 
ATOM     23  C   UNL     1      -6.143   3.290   0.201  0.00  0.00    -0.018 A 
BRANCH  20  24
ATOM     24  N   UNL     1      -9.775   1.124   0.571  0.00  0.00    +0.056 N 
ATOM     25  O   UNL     1     -10.323   1.034   1.655  0.00  0.00    -0.126 OA
ATOM     26  O   UNL     1     -10.270   0.593  -0.407  0.00  0.00    -0.126 OA
ENDBRANCH  20  24
ENDBRANCH  17  23
BRANCH  17  27
ATOM     27  O   UNL     1      -4.869   4.809  -1.147  0.00  0.00    -0.386 OA
ATOM     28  H   UNL     1      -4.007   5.437  -1.417  0.00  0.00    +0.210 HD
ENDBRANCH  17  27
ENDBRANCH  16  17
ENDBRANCH   1  16
TORSDOF 6
