REMARK  Name = ZINC43283337
REMARK  6 active torsions:
REMARK  status: ('A' for Active; 'I' for Inactive)
REMARK    1  A    between atoms: C_1  and  C_2
REMARK    2  A    between atoms: C_2  and  C_4
REMARK    3  A    between atoms: C_2  and  N_19
REMARK    4  A    between atoms: C_4  and  C_6
REMARK    5  A    between atoms: C_4  and  S_12
REMARK    6  A    between atoms: S_12  and  C_13
REMARK                            x       y       z     vdW  Elec       q    Type
REMARK                         _______ _______ _______ _____ _____    ______ ____
ROOT
ATOM      1  C   UNL     1       0.663  -0.621   1.239  0.00  0.00    +0.076 C 
ENDROOT
BRANCH   1   2
ATOM      2  C   UNL     1       0.730  -2.124   1.147  0.00  0.00    +0.003 A 
ATOM      3  C   UNL     1       1.818  -2.930   1.141  0.00  0.00    +0.013 A 
ATOM      4  C   UNL     1       1.639  -4.298   1.048  0.00  0.00    +0.023 A 
ATOM      5  C   UNL     1       0.379  -4.792   0.965  0.00  0.00    +0.055 A 
ATOM      6  S   UNL     1      -0.605  -3.303   1.026  0.00  0.00    -0.085 S 
ATOM      7 BR   UNL     1      -0.190  -6.590   0.828  0.00  0.00    -0.043 Br
ENDBRANCH   1   2
BRANCH   1   9
ATOM      8  C   UNL     1       0.811  -0.366  -1.242  0.00  0.00    -0.013 C 
ATOM      9  C   UNL     1      -0.036  -0.065  -0.004  0.00  0.00    -0.060 C 
BRANCH   9  10
ATOM     10  N   UNL     1      -0.200   1.388   0.136  0.00  0.00    +0.381 N 
ATOM     11  H   UNL     1      -0.660   1.755  -0.684  0.00  0.00    -0.090 HD
ATOM     12  H   UNL     1      -0.758   1.587   0.952  0.00  0.00    -0.090 HD
ATOM     13  H   UNL     1       0.707   1.821   0.234  0.00  0.00    -0.090 HD
ENDBRANCH   9  10
ENDBRANCH   1   9
BRANCH   1  14
ATOM     14  S   UNL     1      -0.271  -0.146   2.720  0.00  0.00    -0.080 S 
BRANCH  14  15
ATOM     15  C   UNL     1       0.761  -0.656   4.055  0.00  0.00    +0.185 A 
ATOM     16  N   UNL     1       0.528  -0.440   5.367  0.00  0.00    -0.254 N 
ATOM     17  H   UNL     1      -0.232   0.022   5.755  0.00  0.00    +0.191 HD
ATOM     18  N   UNL     1       1.605  -1.016   6.060  0.00  0.00    -0.160 NA
ATOM     19  C   UNL     1       2.403  -1.532   5.164  0.00  0.00    +0.245 A 
ATOM     20  N   UNL     1       1.892  -1.321   3.950  0.00  0.00    -0.209 NA
ENDBRANCH  14  15
ENDBRANCH   1  14
TORSDOF 5
