REMARK  Name = ZINC08325728
REMARK  5 active torsions:
REMARK  status: ('A' for Active; 'I' for Inactive)
REMARK    1  A    between atoms: C_1  and  C_2
REMARK    2  A    between atoms: N_11  and  C_15
REMARK    3  A    between atoms: C_15  and  C_16
REMARK    4  A    between atoms: N_18  and  C_19
REMARK    5  A    between atoms: C_20  and  C_24
REMARK                            x       y       z     vdW  Elec       q    Type
REMARK                         _______ _______ _______ _____ _____    ______ ____
ROOT
ATOM      1  C   UNL     1       1.400  -0.358  -2.507  0.00  0.00    +0.010 C 
ATOM      2  C   UNL     1       1.792  -1.178  -1.276  0.00  0.00    +0.018 C 
ATOM      3  C   UNL     1       1.013  -2.496  -1.271  0.00  0.00    +0.006 C 
ATOM      4  C   UNL     1       1.390  -3.305  -0.029  0.00  0.00    +0.000 C 
ATOM      5  C   UNL     1       1.037  -2.510   1.228  0.00  0.00    +0.003 C 
ATOM      6  C   UNL     1       1.816  -1.192   1.233  0.00  0.00    +0.035 C 
ATOM      7  C   UNL     1       1.464  -0.388  -0.014  0.00  0.00    +0.115 C 
ATOM      8  C   UNL     1       0.002  -0.004   0.002  0.00  0.00    +0.247 C 
ATOM      9  O   UNL     1      -0.953  -0.751   0.007  0.00  0.00    -0.273 OA
ATOM     10  N   UNL     1      -0.016   1.345   0.009  0.00  0.00    -0.215 N 
ATOM     11  C   UNL     1       1.222   1.855   0.000  0.00  0.00    +0.310 C 
ATOM     12  O   UNL     1       1.462   3.046   0.004  0.00  0.00    -0.252 OA
ATOM     13  N   UNL     1       2.171   0.899  -0.014  0.00  0.00    -0.285 N 
ATOM     14  H   UNL     1       3.131   1.035  -0.023  0.00  0.00    +0.151 HD
ENDROOT
BRANCH  10  15
ATOM     15  C   UNL     1      -1.239   2.152   0.020  0.00  0.00    +0.214 C 
BRANCH  15  16
ATOM     16  C   UNL     1      -1.651   2.421   1.444  0.00  0.00    +0.236 C 
ATOM     17  O   UNL     1      -0.989   1.982   2.360  0.00  0.00    -0.274 OA
ATOM     18  N   UNL     1      -2.756   3.149   1.700  0.00  0.00    -0.278 N 
ATOM     19  H   UNL     1      -3.286   3.500   0.967  0.00  0.00    +0.155 HD
BRANCH  18  20
ATOM     20  C   UNL     1      -3.136   3.397   3.012  0.00  0.00    +0.089 A 
ATOM     21  C   UNL     1      -4.230   4.118   3.471  0.00  0.00    +0.080 A 
ATOM     22  C   UNL     1      -4.388   4.218   4.902  0.00  0.00    +0.028 A 
ATOM     23  C   UNL     1      -3.463   3.607   5.666  0.00  0.00    +0.048 A 
ATOM     24  S   UNL     1      -2.364   2.875   4.471  0.00  0.00    -0.081 S 
BRANCH  21  25
ATOM     25  C   UNL     1      -5.158   4.731   2.569  0.00  0.00    +0.102 C 
ATOM     26  N   UNL     1      -5.894   5.218   1.854  0.00  0.00    -0.191 NA
ENDBRANCH  21  25
ENDBRANCH  18  20
ENDBRANCH  15  16
ENDBRANCH  10  15
TORSDOF 4
