REMARK  Name = ZINC49002601
REMARK  7 active torsions:
REMARK  status: ('A' for Active; 'I' for Inactive)
REMARK    1  A    between atoms: C_1  and  C_2
REMARK    2  A    between atoms: C_7  and  C_8
REMARK    3  A    between atoms: C_10  and  C_13
REMARK    4  A    between atoms: N_17  and  C_20
REMARK    5  A    between atoms: C_20  and  C_21
REMARK    6  A    between atoms: N_23  and  C_24
REMARK    7  A    between atoms: C_24  and  C_25
REMARK                            x       y       z     vdW  Elec       q    Type
REMARK                         _______ _______ _______ _____ _____    ______ ____
ROOT
ATOM      1  C   UNL     1      -0.028  -0.160   6.167  0.00  0.00    +0.104 A 
ATOM      2  C   UNL     1       0.196  -1.460   6.610  0.00  0.00    +0.020 A 
ATOM      3  C   UNL     1       0.268  -1.704   7.983  0.00  0.00    +0.019 A 
ATOM      4  C   UNL     1       0.121  -0.683   8.864  0.00  0.00    +0.089 A 
ATOM      5  N   UNL     1      -0.098   0.586   8.440  0.00  0.00    -0.306 N 
ATOM      6  C   UNL     1      -0.170   0.875   7.127  0.00  0.00    +0.264 A 
ATOM      7  O   UNL     1      -0.362   2.023   6.764  0.00  0.00    -0.267 OA
ENDROOT
BRANCH   1  10
ATOM      8  C   UNL     1      -0.122  -0.120   2.567  0.00  0.00    +0.203 A 
ATOM      9  N   UNL     1       0.006  -0.737   3.751  0.00  0.00    -0.187 NA
ATOM     10  C   UNL     1      -0.110   0.137   4.727  0.00  0.00    +0.264 A 
ATOM     11  O   UNL     1      -0.317   1.349   4.182  0.00  0.00    -0.332 OA
ATOM     12  N   UNL     1      -0.317   1.160   2.775  0.00  0.00    -0.056 NA
BRANCH   8  19
ATOM     13  C   UNL     1       2.011  -1.992   2.010  0.00  0.00    +0.044 C 
ATOM     14  C   UNL     1       0.975  -1.680   0.961  0.00  0.00    -0.040 A 
ATOM     15  C   UNL     1       1.035  -2.294  -0.274  0.00  0.00    +0.004 A 
ATOM     16  C   UNL     1       0.085  -2.008  -1.238  0.00  0.00    +0.000 A 
ATOM     17  C   UNL     1      -0.930  -1.107  -0.970  0.00  0.00    +0.001 A 
ATOM     18  C   UNL     1      -1.000  -0.489   0.262  0.00  0.00    +0.012 A 
ATOM     19  C   UNL     1      -0.048  -0.777   1.238  0.00  0.00    +0.025 A 
ENDBRANCH   8  19
ENDBRANCH   1  10
BRANCH   5  20
ATOM     20  C   UNL     1      -0.253   1.659   9.425  0.00  0.00    +0.220 C 
BRANCH  20  21
ATOM     21  C   UNL     1       1.096   2.258   9.731  0.00  0.00    +0.233 C 
ATOM     22  O   UNL     1       2.088   1.831   9.180  0.00  0.00    -0.274 OA
ATOM     23  N   UNL     1       1.199   3.269  10.616  0.00  0.00    -0.310 N 
ATOM     24  H   UNL     1       0.405   3.611  11.056  0.00  0.00    +0.149 HD
BRANCH  23  25
ATOM     25  C   UNL     1       2.510   3.852  10.913  0.00  0.00    +0.141 C 
BRANCH  25  26
ATOM     26  C   UNL     1       2.350   4.956  11.927  0.00  0.00    -0.012 A 
ATOM     27  C   UNL     1       2.328   6.275  11.514  0.00  0.00    +0.006 A 
ATOM     28  C   UNL     1       2.182   7.288  12.443  0.00  0.00    +0.000 A 
ATOM     29  C   UNL     1       2.058   6.982  13.786  0.00  0.00    +0.001 A 
ATOM     30  C   UNL     1       2.080   5.664  14.199  0.00  0.00    +0.020 A 
ATOM     31  C   UNL     1       2.220   4.649  13.269  0.00  0.00    +0.046 A 
ATOM     32 CL   UNL     1       2.241   2.993  13.788  0.00  0.00    -0.083 Cl
ENDBRANCH  25  26
ENDBRANCH  23  25
ENDBRANCH  20  21
ENDBRANCH   5  20
TORSDOF 6
