REMARK  Name = ZINC05727578
REMARK  13 active torsions:
REMARK  status: ('A' for Active; 'I' for Inactive)
REMARK    1  A    between atoms: C_1  and  C_2
REMARK    2  A    between atoms: C_2  and  C_3
REMARK    3  A    between atoms: C_3  and  C_24
REMARK    4  A    between atoms: N_4  and  N_5
REMARK    5  A    between atoms: C_6  and  C_8
REMARK    6  A    between atoms: C_8  and  C_9
REMARK    7  A    between atoms: C_9  and  C_10
REMARK    8  A    between atoms: N_12  and  N_13
REMARK    9  A    between atoms: C_14  and  C_15
REMARK   10  A    between atoms: C_14  and  C_17
REMARK   11  A    between atoms: C_15  and  C_16
REMARK   12  A    between atoms: C_20  and  O_23
REMARK   13  A    between atoms: C_27  and  O_30
REMARK                            x       y       z     vdW  Elec       q    Type
REMARK                         _______ _______ _______ _____ _____    ______ ____
ROOT
ATOM      1  C   UNL     1       0.002  -0.004   0.002  0.00  0.00    +0.107 C 
ENDROOT
BRANCH   1   3
ATOM      2  N   UNL     1      -1.195   2.161   0.019  0.00  0.00    -0.207 N 
ATOM      3  C   UNL     1      -0.018   1.503   0.010  0.00  0.00    +0.233 C 
ATOM      4  O   UNL     1       1.024   2.124   0.004  0.00  0.00    -0.274 OA
ATOM      5  H   UNL     1      -2.028   1.664   0.021  0.00  0.00    +0.177 HD
BRANCH   2   7
ATOM      6  C   UNL     1      -2.346   4.195   0.036  0.00  0.00    +0.066 C 
ATOM      7  N   UNL     1      -1.214   3.562   0.027  0.00  0.00    -0.184 NA
BRANCH   6   8
ATOM      8  C   UNL     1      -2.366   5.669   0.044  0.00  0.00    -0.002 A 
ATOM      9  C   UNL     1      -3.585   6.354   0.048  0.00  0.00    +0.013 A 
ATOM     10  C   UNL     1      -3.598   7.731   0.061  0.00  0.00    +0.046 A 
ATOM     11  C   UNL     1      -2.404   8.440   0.059  0.00  0.00    +0.117 A 
ATOM     12  C   UNL     1      -1.190   7.764   0.049  0.00  0.00    +0.046 A 
ATOM     13  C   UNL     1      -1.167   6.386   0.042  0.00  0.00    +0.013 A 
BRANCH  11  14
ATOM     14  O   UNL     1      -2.422   9.798   0.067  0.00  0.00    -0.507 OA
ATOM     15  H   UNL     1      -2.432  10.197  -0.814  0.00  0.00    +0.292 HD
ENDBRANCH  11  14
ENDBRANCH   6   8
BRANCH   6  17
ATOM     16  C   UNL     1      -4.072   3.155   1.481  0.00  0.00    +0.010 C 
ATOM     17  C   UNL     1      -3.641   3.424   0.038  0.00  0.00    +0.054 C 
ENDBRANCH   6  17
ENDBRANCH   2   7
ENDBRANCH   1   3
BRANCH   1  18
ATOM     18  C   UNL     1       1.451  -0.494  -0.015  0.00  0.00    +0.107 C 
BRANCH  18  19
ATOM     19  C   UNL     1       1.472  -2.001  -0.023  0.00  0.00    +0.233 C 
ATOM     20  O   UNL     1       0.429  -2.622  -0.016  0.00  0.00    -0.274 OA
ATOM     21  N   UNL     1       2.648  -2.659  -0.037  0.00  0.00    -0.207 N 
ATOM     22  H   UNL     1       3.481  -2.163  -0.043  0.00  0.00    +0.177 HD
BRANCH  21  23
ATOM     23  N   UNL     1       2.667  -4.060  -0.045  0.00  0.00    -0.184 NA
ATOM     24  C   UNL     1       3.800  -4.694  -0.059  0.00  0.00    +0.066 C 
BRANCH  24  25
ATOM     25  C   UNL     1       3.820  -6.168  -0.068  0.00  0.00    -0.002 A 
ATOM     26  C   UNL     1       5.038  -6.852  -0.089  0.00  0.00    +0.013 A 
ATOM     27  C   UNL     1       5.052  -8.230  -0.091  0.00  0.00    +0.046 A 
ATOM     28  C   UNL     1       3.857  -8.938  -0.083  0.00  0.00    +0.117 A 
ATOM     29  C   UNL     1       2.644  -8.263  -0.068  0.00  0.00    +0.046 A 
ATOM     30  C   UNL     1       2.620  -6.885  -0.060  0.00  0.00    +0.013 A 
BRANCH  28  31
ATOM     31  O   UNL     1       3.876 -10.297  -0.090  0.00  0.00    -0.507 OA
ATOM     32  H   UNL     1       3.872 -10.686  -0.976  0.00  0.00    +0.292 HD
ENDBRANCH  28  31
ENDBRANCH  24  25
BRANCH  24  33
ATOM     33  C   UNL     1       5.094  -3.922  -0.068  0.00  0.00    +0.054 C 
ATOM     34  C   UNL     1       5.546  -3.669   1.372  0.00  0.00    +0.010 C 
ENDBRANCH  24  33
ENDBRANCH  21  23
ENDBRANCH  18  19
ENDBRANCH   1  18
TORSDOF 11
