REMARK  Name = ZINC36160966
REMARK  11 active torsions:
REMARK  status: ('A' for Active; 'I' for Inactive)
REMARK    1  A    between atoms: C_1  and  C_2
REMARK    2  A    between atoms: C_2  and  N_3
REMARK    3  A    between atoms: N_3  and  C_4
REMARK    4  A    between atoms: N_3  and  C_20
REMARK    5  A    between atoms: C_4  and  C_5
REMARK    6  A    between atoms: C_20  and  C_21
REMARK    7  A    between atoms: C_21  and  C_23
REMARK    8  A    between atoms: C_21  and  O_31
REMARK    9  A    between atoms: C_23  and  O_24
REMARK   10  A    between atoms: O_24  and  C_25
REMARK   11  A    between atoms: C_25  and  C_26
REMARK                            x       y       z     vdW  Elec       q    Type
REMARK                         _______ _______ _______ _____ _____    ______ ____
ROOT
ATOM      1  N   UNL     1       0.711  -0.739   1.151  0.00  0.00    +0.386 N 
ATOM      2  H   UNL     1       1.644  -0.368   1.049  0.00  0.00    -0.081 HD
ENDROOT
BRANCH   1   4
ATOM      3  C   UNL     1      -0.065   1.195  -0.137  0.00  0.00    -0.017 C 
ATOM      4  C   UNL     1      -0.107  -0.328   0.002  0.00  0.00    -0.082 C 
ENDBRANCH   1   4
BRANCH   1   5
ATOM      5  C   UNL     1       0.111  -0.222   2.389  0.00  0.00    -0.003 C 
BRANCH   5   6
ATOM      6  C   UNL     1       1.038  -0.490   3.546  0.00  0.00    +0.094 A 
ATOM      7  N   UNL     1       0.625  -0.215   4.809  0.00  0.00    -0.312 N 
ATOM      8  H   UNL     1      -0.263   0.151   4.950  0.00  0.00    +0.170 HD
ATOM      9  C   UNL     1       1.420  -0.440   5.872  0.00  0.00    +0.260 A 
ATOM     10  O   UNL     1       1.034  -0.188   7.000  0.00  0.00    -0.267 OA
ATOM     11  C   UNL     1       2.730  -0.981   5.654  0.00  0.00    +0.075 A 
ATOM     12  C   UNL     1       3.756  -1.303   6.645  0.00  0.00    -0.023 A 
ATOM     13  C   UNL     1       4.919  -1.807   6.180  0.00  0.00    -0.004 A 
ATOM     14  S   UNL     1       4.716  -1.882   4.420  0.00  0.00    -0.073 S 
ATOM     15  C   UNL     1       3.068  -1.233   4.315  0.00  0.00    +0.116 A 
ATOM     16  N   UNL     1       2.224  -0.989   3.316  0.00  0.00    -0.229 NA
ATOM     17  C   UNL     1       6.117  -2.213   6.982  0.00  0.00    +0.043 C 
ATOM     18  C   UNL     1       5.977  -1.625   8.394  0.00  0.00    +0.005 C 
ATOM     19  C   UNL     1       4.566  -1.922   8.911  0.00  0.00    +0.005 C 
ATOM     20  C   UNL     1       3.543  -1.085   8.140  0.00  0.00    +0.037 C 
ENDBRANCH   5   6
ENDBRANCH   1   5
BRANCH   1  21
ATOM     21  C   UNL     1       0.770  -2.205   1.211  0.00  0.00    -0.044 C 
BRANCH  21  22
ATOM     22  C   UNL     1       1.507  -2.736  -0.021  0.00  0.00    +0.124 C 
BRANCH  22  23
ATOM     23  O   UNL     1       2.867  -2.301   0.013  0.00  0.00    -0.391 OA
ATOM     24  H   UNL     1       3.357  -2.602   0.790  0.00  0.00    +0.210 HD
ENDBRANCH  22  23
BRANCH  22  25
ATOM     25  C   UNL     1       1.460  -4.266  -0.023  0.00  0.00    +0.189 C 
BRANCH  25  26
ATOM     26  O   UNL     1       2.045  -4.758  -1.230  0.00  0.00    -0.370 OA
BRANCH  26  27
ATOM     27  C   UNL     1       2.052  -6.184  -1.333  0.00  0.00    +0.234 C 
BRANCH  27  28
ATOM     28  C   UNL     1       2.688  -6.590  -2.637  0.00  0.00    +0.130 A 
ATOM     29  C   UNL     1       3.996  -6.838  -2.831  0.00  0.00    +0.047 A 
ATOM     30  C   UNL     1       4.149  -7.184  -4.194  0.00  0.00    +0.041 A 
ATOM     31  C   UNL     1       2.926  -7.127  -4.750  0.00  0.00    +0.195 A 
ATOM     32  O   UNL     1       2.044  -6.772  -3.801  0.00  0.00    -0.465 OA
ENDBRANCH  27  28
ENDBRANCH  26  27
ENDBRANCH  25  26
ENDBRANCH  22  25
ENDBRANCH  21  22
ENDBRANCH   1  21
TORSDOF 10
