REMARK  Name = ZINC57003476
REMARK  5 active torsions:
REMARK  status: ('A' for Active; 'I' for Inactive)
REMARK    1  A    between atoms: C_1  and  C_2
REMARK    2  A    between atoms: C_7  and  N_12
REMARK    3  A    between atoms: C_9  and  C_11
REMARK    4  A    between atoms: N_15  and  C_16
REMARK    5  A    between atoms: C_25  and  O_27
REMARK                            x       y       z     vdW  Elec       q    Type
REMARK                         _______ _______ _______ _____ _____    ______ ____
ROOT
ATOM      1  N   UNL     1      -0.612  -2.548   1.244  0.00  0.00    -0.296 N 
ATOM      2  C   UNL     1      -0.873  -3.776   1.733  0.00  0.00    +0.300 C 
ATOM      3  O   UNL     1       0.032  -4.463   2.165  0.00  0.00    -0.253 OA
ATOM      4  N   UNL     1      -2.137  -4.243   1.742  0.00  0.00    -0.290 N 
ATOM      5  H   UNL     1      -1.333  -2.000   0.898  0.00  0.00    +0.151 HD
ATOM      6  H   UNL     1      -2.859  -3.694   1.397  0.00  0.00    +0.151 HD
ENDROOT
BRANCH   4   7
ATOM      7  C   UNL     1      -2.422  -5.578   2.274  0.00  0.00    +0.134 C 
ATOM      8  C   UNL     1      -2.275  -6.619   1.185  0.00  0.00    -0.021 A 
ATOM      9  C   UNL     1      -1.139  -7.197   0.643  0.00  0.00    +0.006 A 
ATOM     10  C   UNL     1      -1.249  -8.140  -0.359  0.00  0.00    +0.000 A 
ATOM     11  C   UNL     1      -2.498  -8.510  -0.824  0.00  0.00    +0.000 A 
ATOM     12  C   UNL     1      -3.632  -7.935  -0.285  0.00  0.00    +0.004 A 
ATOM     13  C   UNL     1      -3.523  -6.989   0.721  0.00  0.00    -0.040 A 
ATOM     14  C   UNL     1      -4.594  -6.221   1.466  0.00  0.00    +0.069 C 
ATOM     15  C   UNL     1      -3.893  -5.671   2.729  0.00  0.00    +0.143 C 
BRANCH  15  16
ATOM     16  O   UNL     1      -4.402  -4.380   3.073  0.00  0.00    -0.389 OA
ATOM     17  H   UNL     1      -5.323  -4.386   3.365  0.00  0.00    +0.210 HD
ENDBRANCH  15  16
ENDBRANCH   4   7
BRANCH   1  23
ATOM     18  C   UNL     1      -0.019   1.526   0.010  0.00  0.00    +0.008 C 
ATOM     19  C   UNL     1       0.002  -0.004   0.002  0.00  0.00    -0.009 C 
ATOM     20  C   UNL     1       0.718  -0.497  -1.257  0.00  0.00    +0.003 C 
ATOM     21  C   UNL     1       0.739  -2.027  -1.265  0.00  0.00    +0.002 C 
ATOM     22  C   UNL     1       1.479  -2.534  -0.026  0.00  0.00    +0.022 C 
ATOM     23  C   UNL     1       0.763  -2.041   1.233  0.00  0.00    +0.078 C 
ATOM     24  C   UNL     1       0.742  -0.511   1.242  0.00  0.00    +0.009 C 
ATOM     25  C   UNL     1       0.026  -0.018   2.500  0.00  0.00    +0.009 C 
ENDBRANCH   1  23
TORSDOF 3
