REMARK  Name = ZINC58264958
REMARK  9 active torsions:
REMARK  status: ('A' for Active; 'I' for Inactive)
REMARK    1  A    between atoms: C_1  and  C_2
REMARK    2  A    between atoms: C_5  and  C_8
REMARK    3  A    between atoms: C_8  and  C_10
REMARK    4  A    between atoms: C_8  and  N_27
REMARK    5  A    between atoms: C_10  and  N_11
REMARK    6  A    between atoms: N_14  and  C_15
REMARK    7  A    between atoms: C_15  and  C_16
REMARK    8  A    between atoms: N_27  and  C_28
REMARK    9  A    between atoms: N_27  and  C_29
REMARK                            x       y       z     vdW  Elec       q    Type
REMARK                         _______ _______ _______ _____ _____    ______ ____
ROOT
ATOM      1  N   UNL     1       0.774  -6.390   0.509  0.00  0.00    -0.301 N 
ATOM      2  C   UNL     1       1.768  -7.243   0.827  0.00  0.00    +0.300 C 
ATOM      3  O   UNL     1       2.916  -6.844   0.883  0.00  0.00    -0.253 OA
ATOM      4  N   UNL     1       1.491  -8.537   1.083  0.00  0.00    -0.295 N 
ATOM      5  H   UNL     1      -0.141  -6.708   0.465  0.00  0.00    +0.150 HD
ATOM      6  H   UNL     1       0.576  -8.854   1.038  0.00  0.00    +0.151 HD
ENDROOT
BRANCH   1   7
ATOM      7  C   UNL     1       1.075  -4.984   0.231  0.00  0.00    +0.095 C 
BRANCH   7   8
ATOM      8  C   UNL     1      -0.229  -4.220  -0.007  0.00  0.00    -0.021 C 
BRANCH   8  13
ATOM      9  C   UNL     1      -2.812  -6.249  -4.761  0.00  0.00    +0.044 C 
ATOM     10  C   UNL     1      -2.139  -5.720  -3.521  0.00  0.00    -0.050 A 
ATOM     11  C   UNL     1      -2.566  -6.132  -2.273  0.00  0.00    +0.003 A 
ATOM     12  C   UNL     1      -1.948  -5.647  -1.136  0.00  0.00    +0.002 A 
ATOM     13  C   UNL     1      -0.902  -4.750  -1.247  0.00  0.00    -0.059 A 
ATOM     14  C   UNL     1      -0.474  -4.338  -2.495  0.00  0.00    +0.002 A 
ATOM     15  C   UNL     1      -1.089  -4.827  -3.632  0.00  0.00    +0.003 A 
ENDBRANCH   8  13
BRANCH   8  16
ATOM     16  N   UNL     1       0.065  -2.792  -0.182  0.00  0.00    +0.382 N 
ATOM     17  C   UNL     1      -1.182  -2.065  -0.455  0.00  0.00    -0.096 C 
ATOM     18  C   UNL     1       0.680  -2.265   1.044  0.00  0.00    -0.096 C 
ATOM     19  H   UNL     1       0.701  -2.671  -0.956  0.00  0.00    -0.082 HD
ENDBRANCH   8  16
ENDBRANCH   7   8
ENDBRANCH   1   7
BRANCH   4  20
ATOM     20  C   UNL     1       2.572  -9.463   1.429  0.00  0.00    +0.142 C 
BRANCH  20  21
ATOM     21  C   UNL     1       2.000 -10.837   1.665  0.00  0.00    -0.012 A 
ATOM     22  C   UNL     1       1.581 -11.213   2.934  0.00  0.00    +0.010 A 
ATOM     23  C   UNL     1       1.061 -12.485   3.107  0.00  0.00    +0.048 A 
ATOM     24  C   UNL     1       0.976 -13.335   2.012  0.00  0.00    +0.154 A 
ATOM     25  N   UNL     1       1.386 -12.940   0.818  0.00  0.00    -0.236 NA
ATOM     26  C   UNL     1       1.881 -11.733   0.621  0.00  0.00    +0.118 A 
ATOM     27  N   UNL     1       0.453 -14.622   2.173  0.00  0.00    -0.222 N 
ATOM     28  C   UNL     1       0.316 -15.558   1.198  0.00  0.00    +0.116 A 
ATOM     29  C   UNL     1      -0.227 -16.661   1.763  0.00  0.00    +0.041 A 
ATOM     30  C   UNL     1      -0.429 -16.395   3.122  0.00  0.00    +0.135 A 
ATOM     31  N   UNL     1      -0.017 -15.178   3.370  0.00  0.00    -0.173 NA
ENDBRANCH  20  21
ENDBRANCH   4  20
TORSDOF 6
