REMARK  Name = ZINC36622654
REMARK  8 active torsions:
REMARK  status: ('A' for Active; 'I' for Inactive)
REMARK    1  A    between atoms: C_1  and  C_2
REMARK    2  A    between atoms: C_2  and  C_4
REMARK    3  A    between atoms: C_2  and  O_18
REMARK    4  A    between atoms: N_6  and  C_7
REMARK    5  A    between atoms: C_7  and  C_8
REMARK    6  A    between atoms: C_10  and  N_15
REMARK    7  A    between atoms: C_13  and  O_14
REMARK    8  A    between atoms: O_18  and  C_19
REMARK                            x       y       z     vdW  Elec       q    Type
REMARK                         _______ _______ _______ _____ _____    ______ ____
ROOT
ATOM      1  C   UNL     1      -1.426  -0.749  -0.046  0.00  0.00    +0.254 C 
ATOM      2  O   UNL     1      -1.835  -1.187  -1.100  0.00  0.00    -0.272 OA
ATOM      3  N   UNL     1      -2.233  -0.726   1.034  0.00  0.00    -0.308 N 
ATOM      4  H   UNL     1      -1.905  -0.376   1.877  0.00  0.00    +0.149 HD
ENDROOT
BRANCH   1   6
ATOM      5  C   UNL     1      -0.044   1.273   0.345  0.00  0.00    +0.062 C 
ATOM      6  C   UNL     1      -0.015  -0.229   0.058  0.00  0.00    +0.255 C 
BRANCH   6   7
ATOM      7  O   UNL     1       0.671  -0.465  -1.174  0.00  0.00    -0.480 OA
BRANCH   7   8
ATOM      8  C   UNL     1       2.026  -0.553  -1.118  0.00  0.00    +0.122 A 
ATOM      9  C   UNL     1       2.690  -0.309   0.075  0.00  0.00    +0.045 A 
ATOM     10  C   UNL     1       4.067  -0.400   0.129  0.00  0.00    +0.004 A 
ATOM     11  C   UNL     1       4.784  -0.733  -1.005  0.00  0.00    +0.000 A 
ATOM     12  C   UNL     1       4.125  -0.976  -2.196  0.00  0.00    +0.004 A 
ATOM     13  C   UNL     1       2.747  -0.893  -2.253  0.00  0.00    +0.045 A 
ENDBRANCH   7   8
ENDBRANCH   6   7
ENDBRANCH   1   6
BRANCH   3  14
ATOM     14  C   UNL     1      -3.604  -1.231   0.933  0.00  0.00    +0.143 C 
BRANCH  14  15
ATOM     15  C   UNL     1      -4.289  -1.094   2.269  0.00  0.00    +0.013 A 
ATOM     16  C   UNL     1      -5.232  -0.103   2.464  0.00  0.00    +0.041 A 
ATOM     17  C   UNL     1      -5.860   0.023   3.689  0.00  0.00    +0.127 A 
ATOM     18  C   UNL     1      -5.547  -0.842   4.721  0.00  0.00    +0.036 A 
ATOM     19  C   UNL     1      -4.606  -1.835   4.531  0.00  0.00    +0.048 A 
ATOM     20  C   UNL     1      -3.978  -1.967   3.301  0.00  0.00    +0.122 A 
BRANCH  17  21
ATOM     21  N   UNL     1      -6.869   1.085   3.895  0.00  0.00    +0.056 N 
ATOM     22  O   UNL     1      -7.143   1.843   2.993  0.00  0.00    -0.126 OA
ATOM     23  O   UNL     1      -7.420   1.197   4.966  0.00  0.00    -0.126 OA
ENDBRANCH  17  21
BRANCH  20  24
ATOM     24  O   UNL     1      -3.054  -2.946   3.110  0.00  0.00    -0.506 OA
ATOM     25  H   UNL     1      -2.150  -2.680   3.325  0.00  0.00    +0.292 HD
ENDBRANCH  20  24
ENDBRANCH  14  15
ENDBRANCH   3  14
TORSDOF 7
