REMARK  Name = ZINC43973600
REMARK  7 active torsions:
REMARK  status: ('A' for Active; 'I' for Inactive)
REMARK    1  A    between atoms: C_1  and  N_2
REMARK    2  A    between atoms: C_6  and  C_7
REMARK    3  A    between atoms: C_7  and  N_8
REMARK    4  A    between atoms: C_11  and  C_14
REMARK    5  A    between atoms: C_14  and  N_15
REMARK    6  A    between atoms: C_16  and  C_18
REMARK    7  A    between atoms: C_23  and  N_24
REMARK                            x       y       z     vdW  Elec       q    Type
REMARK                         _______ _______ _______ _____ _____    ______ ____
ROOT
ATOM      1  C   UNL     1       5.818   2.450   4.089  0.00  0.00    +0.108 C 
ENDROOT
BRANCH   1   5
ATOM      2  N   UNL     1       2.399   1.520   1.697  0.00  0.00    +0.383 N 
ATOM      3  C   UNL     1       3.321   2.529   1.161  0.00  0.00    -0.078 C 
ATOM      4  C   UNL     1       4.674   2.414   1.866  0.00  0.00    -0.014 C 
ATOM      5  C   UNL     1       4.482   2.642   3.368  0.00  0.00    +0.003 C 
ATOM      6  C   UNL     1       3.463   1.631   3.901  0.00  0.00    -0.014 C 
ATOM      7  C   UNL     1       2.154   1.775   3.121  0.00  0.00    -0.078 C 
ATOM      8  H   UNL     1       2.806   0.603   1.585  0.00  0.00    -0.081 HD
BRANCH   2   9
ATOM      9  C   UNL     1       1.127   1.583   0.964  0.00  0.00    -0.024 C 
BRANCH   9  15
ATOM     10  C   UNL     1       2.060   3.467  -1.314  0.00  0.00    +0.148 C 
ATOM     11  N   UNL     1       1.768   2.040  -1.469  0.00  0.00    -0.355 N 
ATOM     12  C   UNL     1       1.868   1.330  -2.628  0.00  0.00    +0.085 A 
ATOM     13  C   UNL     1       1.517   0.053  -2.372  0.00  0.00    +0.019 A 
ATOM     14  C   UNL     1       1.189  -0.028  -1.004  0.00  0.00    +0.021 A 
ATOM     15  C   UNL     1       1.357   1.201  -0.475  0.00  0.00    +0.002 A 
ENDBRANCH   9  15
ENDBRANCH   2   9
ENDBRANCH   1   5
BRANCH   1  16
ATOM     16  N   UNL     1       5.660   2.783   5.507  0.00  0.00    -0.311 N 
ATOM     17  C   UNL     1       6.713   2.687   6.343  0.00  0.00    +0.246 C 
ATOM     18  O   UNL     1       7.793   2.324   5.921  0.00  0.00    -0.270 OA
ATOM     19  H   UNL     1       4.798   3.073   5.844  0.00  0.00    +0.149 HD
BRANCH  17  20
ATOM     20  C   UNL     1       6.554   3.024   7.774  0.00  0.00    +0.068 A 
ATOM     21  C   UNL     1       6.046   4.269   8.149  0.00  0.00    +0.035 A 
ATOM     22  C   UNL     1       5.900   4.577   9.487  0.00  0.00    +0.042 A 
ATOM     23  C   UNL     1       6.256   3.653  10.455  0.00  0.00    +0.022 A 
ATOM     24  C   UNL     1       6.759   2.417  10.089  0.00  0.00    +0.035 A 
ATOM     25  C   UNL     1       6.905   2.096   8.755  0.00  0.00    +0.138 A 
ATOM     26 CL   UNL     1       5.269   6.124   9.956  0.00  0.00    -0.084 Cl
BRANCH  25  27
ATOM     27  N   UNL     1       7.438   0.771   8.366  0.00  0.00    +0.057 N 
ATOM     28  O   UNL     1       7.857   0.015   9.212  0.00  0.00    -0.126 OA
ATOM     29  O   UNL     1       7.455   0.444   7.202  0.00  0.00    -0.126 OA
ENDBRANCH  25  27
ENDBRANCH  17  20
ENDBRANCH   1  16
TORSDOF 6
