REMARK  Name = ZINC49061003
REMARK  6 active torsions:
REMARK  status: ('A' for Active; 'I' for Inactive)
REMARK    1  A    between atoms: C_4  and  C_7
REMARK    2  A    between atoms: C_7  and  C_9
REMARK    3  A    between atoms: C_7  and  N_13
REMARK    4  A    between atoms: N_10  and  O_11
REMARK    5  A    between atoms: N_13  and  S_14
REMARK    6  A    between atoms: S_14  and  C_17
REMARK                            x       y       z     vdW  Elec       q    Type
REMARK                         _______ _______ _______ _____ _____    ______ ____
ROOT
ATOM      1  C   UNL     1       3.711  -0.707  -0.038  0.00  0.00    +0.173 C 
ENDROOT
BRANCH   1   5
ATOM      2  C   UNL     1      -0.017   1.378   0.010  0.00  0.00    +0.000 A 
ATOM      3  C   UNL     1       1.171   2.086   0.002  0.00  0.00    +0.000 A 
ATOM      4  C   UNL     1       2.377   1.411  -0.013  0.00  0.00    +0.005 A 
ATOM      5  C   UNL     1       2.396   0.029  -0.020  0.00  0.00    -0.022 A 
ATOM      6  C   UNL     1       1.208  -0.679  -0.012  0.00  0.00    +0.005 A 
ATOM      7  C   UNL     1       0.002  -0.004   0.002  0.00  0.00    +0.000 A 
ENDBRANCH   1   5
BRANCH   1   8
ATOM      8  C   UNL     1       4.014  -1.161  -1.442  0.00  0.00    +0.155 C 
ATOM      9  N   UNL     1       5.132  -0.831  -2.001  0.00  0.00    -0.075 NA
ATOM     10  N   UNL     1       3.100  -1.927  -2.131  0.00  0.00    -0.342 N 
ATOM     11  H   UNL     1       2.262  -2.175  -1.712  0.00  0.00    +0.144 HD
ATOM     12  H   UNL     1       3.296  -2.219  -3.035  0.00  0.00    +0.144 HD
BRANCH   9  13
ATOM     13  O   UNL     1       5.417  -1.257  -3.321  0.00  0.00    -0.408 OA
ATOM     14  H   UNL     1       6.275  -0.961  -3.653  0.00  0.00    +0.328 HD
ENDBRANCH   9  13
ENDBRANCH   1   8
BRANCH   1  15
ATOM     15  N   UNL     1       3.630  -1.873   0.845  0.00  0.00    -0.175 NA
ATOM     16  H   UNL     1       2.798  -2.365   0.924  0.00  0.00    +0.149 HD
BRANCH  15  17
ATOM     17  S   UNL     1       4.959  -2.352   1.709  0.00  0.00    +0.067 S 
ATOM     18  O   UNL     1       4.560  -3.478   2.479  0.00  0.00    -0.152 OA
ATOM     19  O   UNL     1       6.043  -2.402   0.792  0.00  0.00    -0.152 OA
BRANCH  17  20
ATOM     20  C   UNL     1       5.328  -1.064   2.854  0.00  0.00    +0.156 A 
ATOM     21  C   UNL     1       6.327  -0.995   3.768  0.00  0.00    +0.051 A 
ATOM     22  C   UNL     1       6.424   0.128   4.571  0.00  0.00    +0.025 A 
ATOM     23  C   UNL     1       5.518   1.125   4.419  0.00  0.00    +0.048 A 
ATOM     24  S   UNL     1       4.488   0.491   3.106  0.00  0.00    -0.076 S 
ATOM     25 BR   UNL     1       7.567  -2.411   3.945  0.00  0.00    -0.048 Br
ENDBRANCH  17  20
ENDBRANCH  15  17
ENDBRANCH   1  15
TORSDOF 6
