REMARK  Name = ZINC35356082
REMARK  7 active torsions:
REMARK  status: ('A' for Active; 'I' for Inactive)
REMARK    1  A    between atoms: C_1  and  N_2
REMARK    2  A    between atoms: N_2  and  C_3
REMARK    3  A    between atoms: C_4  and  C_6
REMARK    4  A    between atoms: C_6  and  N_7
REMARK    5  A    between atoms: N_7  and  C_8
REMARK    6  A    between atoms: N_7  and  C_9
REMARK    7  A    between atoms: C_14  and  N_15
REMARK                            x       y       z     vdW  Elec       q    Type
REMARK                         _______ _______ _______ _____ _____    ______ ____
ROOT
ATOM      1  C   UNL     1      -1.202  -2.906  -3.211  0.00  0.00    +0.053 A 
ATOM      2  C   UNL     1      -1.821  -1.896  -3.931  0.00  0.00    +0.048 A 
ATOM      3  C   UNL     1      -3.025  -2.143  -4.575  0.00  0.00    +0.038 A 
ATOM      4  C   UNL     1      -3.610  -3.401  -4.497  0.00  0.00    -0.024 A 
ATOM      5  C   UNL     1      -2.995  -4.409  -3.779  0.00  0.00    +0.030 A 
ATOM      6  C   UNL     1      -1.789  -4.169  -3.139  0.00  0.00    +0.046 A 
ATOM      7  C   UNL     1      -4.917  -3.664  -5.199  0.00  0.00    +0.046 C 
ATOM      8  C   UNL     1      -5.776  -2.399  -5.172  0.00  0.00    +0.101 C 
ATOM      9  C   UNL     1      -4.959  -1.215  -5.615  0.00  0.00    +0.218 C 
ATOM     10  O   UNL     1      -5.484  -0.332  -6.259  0.00  0.00    -0.275 OA
ATOM     11  N   UNL     1      -3.653  -1.125  -5.304  0.00  0.00    -0.285 N 
ATOM     12  H   UNL     1      -3.143  -0.351  -5.588  0.00  0.00    +0.155 HD
ENDROOT
BRANCH   6  13
ATOM     13  N   UNL     1      -1.162  -5.194  -2.415  0.00  0.00    -0.357 N 
ATOM     14  H   UNL     1      -0.320  -5.024  -1.964  0.00  0.00    +0.142 HD
ATOM     15  H   UNL     1      -1.571  -6.072  -2.365  0.00  0.00    +0.142 HD
ENDBRANCH   6  13
BRANCH   1  16
ATOM     16  N   UNL     1       0.014  -2.659  -2.561  0.00  0.00    -0.323 N 
ATOM     17  C   UNL     1       1.279  -2.882  -3.265  0.00  0.00    +0.130 C 
BRANCH  16  18
ATOM     18  C   UNL     1       0.021  -2.178  -1.177  0.00  0.00    +0.200 C 
BRANCH  18  22
ATOM     19  C   UNL     1      -0.018   1.461   0.010  0.00  0.00    +0.131 C 
ATOM     20  N   UNL     1       0.002  -0.004   0.002  0.00  0.00    -0.306 N 
ATOM     21  C   UNL     1       0.024  -0.743   1.267  0.00  0.00    +0.131 C 
ATOM     22  C   UNL     1       0.000  -0.672  -1.169  0.00  0.00    +0.232 C 
ATOM     23  O   UNL     1      -0.018  -0.060  -2.216  0.00  0.00    -0.274 OA
ENDBRANCH  18  22
ENDBRANCH  16  18
ENDBRANCH   1  16
TORSDOF 4
