REMARK  Name = ZINC35667355
REMARK  9 active torsions:
REMARK  status: ('A' for Active; 'I' for Inactive)
REMARK    1  A    between atoms: C_1  and  C_2
REMARK    2  A    between atoms: N_4  and  CA_5
REMARK    3  A    between atoms: CA_5  and  C_25
REMARK    4  A    between atoms: C_6  and  C_7
REMARK    5  A    between atoms: C_9  and  O_23
REMARK    6  A    between atoms: C_10  and  O_14
REMARK    7  A    between atoms: O_14  and  C_15
REMARK    8  A    between atoms: C_15  and  C_16
REMARK    9  A    between atoms: O_23  and  C_24
REMARK                            x       y       z     vdW  Elec       q    Type
REMARK                         _______ _______ _______ _____ _____    ______ ____
ROOT
ATOM      1  C   UNL     1      -1.986  -4.216   0.230  0.00  0.00    -0.018 A 
ATOM      2  C   UNL     1      -3.107  -5.017  -0.022  0.00  0.00    +0.057 A 
ATOM      3  C   UNL     1      -2.983  -6.392  -0.018  0.00  0.00    +0.164 A 
ATOM      4  C   UNL     1      -1.745  -6.981   0.237  0.00  0.00    +0.181 A 
ATOM      5  C   UNL     1      -0.632  -6.188   0.487  0.00  0.00    +0.087 A 
ATOM      6  C   UNL     1      -0.745  -4.814   0.479  0.00  0.00    +0.032 A 
ATOM      7 CL   UNL     1       0.905  -6.929   0.805  0.00  0.00    -0.080 Cl
ENDROOT
BRANCH   1   9
ATOM      8  CA  UNL     1      -3.227  -2.166   0.726  0.00  0.00    +0.123 C 
ATOM      9  C   UNL     1      -2.111  -2.753   0.227  0.00  0.00    +0.038 C 
BRANCH   8  13
ATOM     10  C   UNL     1      -4.595   1.317   1.148  0.00  0.00    +0.109 C 
ATOM     11  C   UNL     1      -4.459  -0.183   1.192  0.00  0.00    +0.214 C 
ATOM     12  O   UNL     1      -5.296  -0.851   1.762  0.00  0.00    -0.276 OA
ATOM     13  N   UNL     1      -3.408  -0.782   0.599  0.00  0.00    -0.280 N 
ATOM     14  H   UNL     1      -2.777  -0.256   0.084  0.00  0.00    +0.155 HD
ENDBRANCH   8  13
BRANCH   8  15
ATOM     15  C   UNL     1      -4.242  -2.978   1.398  0.00  0.00    +0.400 C 
ATOM     16  O   UNL     1      -4.088  -3.307   2.568  0.00  0.00    -0.239 OA
ATOM     17  OXT UNL     1      -5.246  -3.329   0.790  0.00  0.00    -0.239 OA
ENDBRANCH   8  15
ENDBRANCH   1   9
BRANCH   3  18
ATOM     18  O   UNL     1      -4.070  -7.173  -0.262  0.00  0.00    -0.491 OA
ATOM     19  C   UNL     1      -5.306  -6.503  -0.515  0.00  0.00    +0.277 C 
ENDBRANCH   3  18
BRANCH   4  20
ATOM     20  O   UNL     1      -1.627  -8.335   0.240  0.00  0.00    -0.482 OA
BRANCH  20  21
ATOM     21  C   UNL     1      -1.305  -8.961  -1.003  0.00  0.00    +0.264 C 
BRANCH  21  22
ATOM     22  C   UNL     1      -1.216 -10.453  -0.806  0.00  0.00    -0.009 A 
ATOM     23  C   UNL     1      -0.011 -11.034  -0.459  0.00  0.00    +0.007 A 
ATOM     24  C   UNL     1       0.071 -12.402  -0.278  0.00  0.00    +0.001 A 
ATOM     25  C   UNL     1      -1.053 -13.189  -0.444  0.00  0.00    +0.015 A 
ATOM     26  C   UNL     1      -2.259 -12.609  -0.790  0.00  0.00    +0.018 A 
ATOM     27  C   UNL     1      -2.342 -11.239  -0.966  0.00  0.00    +0.022 A 
ATOM     28 BR   UNL     1      -3.797 -13.686  -1.017  0.00  0.00    -0.050 Br
ENDBRANCH  21  22
ENDBRANCH  20  21
ENDBRANCH   4  20
TORSDOF 7
