REMARK  Name = ZINC39606660
REMARK  8 active torsions:
REMARK  status: ('A' for Active; 'I' for Inactive)
REMARK    1  A    between atoms: C_1  and  C_2
REMARK    2  A    between atoms: C_2  and  C_3
REMARK    3  A    between atoms: C_3  and  C_5
REMARK    4  A    between atoms: C_3  and  C_6
REMARK    5  A    between atoms: C_6  and  N_7
REMARK    6  A    between atoms: C_8  and  C_10
REMARK    7  A    between atoms: C_21  and  C_23
REMARK    8  A    between atoms: C_26  and  C_28
REMARK                            x       y       z     vdW  Elec       q    Type
REMARK                         _______ _______ _______ _____ _____    ______ ____
ROOT
ATOM      1  C   UNL     1       2.767  -4.311   3.595  0.00  0.00    +0.100 C 
ATOM      2  C   UNL     1       2.131  -3.880   4.936  0.00  0.00    +0.121 C 
ATOM      3  N   UNL     1       1.317  -5.045   5.356  0.00  0.00    -0.294 N 
ATOM      4  C   UNL     1       2.143  -6.222   4.994  0.00  0.00    +0.115 C 
ATOM      5  C   UNL     1       2.776  -5.849   3.639  0.00  0.00    -0.004 C 
ATOM      6  C   UNL     1       1.940  -6.415   2.494  0.00  0.00    -0.010 C 
ATOM      7  C   UNL     1       2.011  -7.944   2.525  0.00  0.00    -0.082 C 
ATOM      8  N   UNL     1       3.409  -8.374   2.397  0.00  0.00    +0.379 N 
ATOM      9  C   UNL     1       4.186  -7.903   3.549  0.00  0.00    -0.082 C 
ATOM     10  C   UNL     1       4.207  -6.372   3.562  0.00  0.00    -0.010 C 
ATOM     11  C   UNL     1       0.101  -5.036   5.937  0.00  0.00    +0.282 C 
ATOM     12  O   UNL     1      -0.443  -6.086   6.226  0.00  0.00    -0.267 OA
ATOM     13  H   UNL     1       3.447  -9.381   2.356  0.00  0.00    -0.086 HD
ATOM     14  H   UNL     1       3.800  -7.990   1.549  0.00  0.00    -0.086 HD
ENDROOT
BRANCH  11  15
ATOM     15  C   UNL     1      -0.566  -3.763   6.221  0.00  0.00    +0.190 A 
ATOM     16  C   UNL     1      -1.801  -3.611   6.812  0.00  0.00    +0.055 A 
ATOM     17  C   UNL     1      -2.046  -2.236   6.888  0.00  0.00    +0.050 A 
ATOM     18  C   UNL     1      -0.963  -1.605   6.346  0.00  0.00    +0.136 A 
ATOM     19  O   UNL     1      -0.076  -2.534   5.953  0.00  0.00    -0.450 OA
BRANCH  18  20
ATOM     20  C   UNL     1      -0.793  -0.144   6.219  0.00  0.00    +0.017 A 
ATOM     21  C   UNL     1      -1.788   0.721   6.679  0.00  0.00    +0.011 A 
ATOM     22  C   UNL     1      -1.623   2.085   6.558  0.00  0.00    +0.001 A 
ATOM     23  C   UNL     1      -0.474   2.597   5.981  0.00  0.00    +0.000 A 
ATOM     24  C   UNL     1       0.516   1.746   5.523  0.00  0.00    +0.001 A 
ATOM     25  C   UNL     1       0.366   0.380   5.643  0.00  0.00    +0.011 A 
ENDBRANCH  18  20
ENDBRANCH  11  15
BRANCH   1  27
ATOM     26  N   UNL     1       2.513  -3.567   1.250  0.00  0.00    -0.315 N 
ATOM     27  C   UNL     1       1.933  -3.824   2.438  0.00  0.00    +0.218 C 
ATOM     28  O   UNL     1       0.739  -3.663   2.577  0.00  0.00    -0.275 OA
ATOM     29  H   UNL     1       3.468  -3.696   1.139  0.00  0.00    +0.149 HD
BRANCH  26  30
ATOM     30  C   UNL     1       1.702  -3.094   0.125  0.00  0.00    +0.107 C 
BRANCH  30  31
ATOM     31  C   UNL     1       2.599  -2.881  -1.096  0.00  0.00    +0.003 C 
ATOM     32  C   UNL     1       3.592  -1.752  -0.809  0.00  0.00    +0.009 C 
BRANCH  31  34
ATOM     33  C   UNL     1       2.617  -2.416  -3.551  0.00  0.00    +0.004 C 
ATOM     34  C   UNL     1       1.736  -2.506  -2.303  0.00  0.00    +0.001 C 
ENDBRANCH  31  34
ENDBRANCH  30  31
ENDBRANCH  26  30
ENDBRANCH   1  27
TORSDOF 6
