REMARK  Name = ZINC22131354
REMARK  5 active torsions:
REMARK  status: ('A' for Active; 'I' for Inactive)
REMARK    1  A    between atoms: C_1  and  C_2
REMARK    2  A    between atoms: C_6  and  C_15
REMARK    3  A    between atoms: N_17  and  C_18
REMARK    4  A    between atoms: C_21  and  O_24
REMARK    5  A    between atoms: O_24  and  C_25
REMARK                            x       y       z     vdW  Elec       q    Type
REMARK                         _______ _______ _______ _____ _____    ______ ____
ROOT
ATOM      1  C   UNL     1       0.656  -1.692  -0.011  0.00  0.00    +0.260 C 
ATOM      2  O   UNL     1      -0.361  -2.080  -0.545  0.00  0.00    -0.271 OA
ATOM      3  N   UNL     1       1.610  -2.575   0.347  0.00  0.00    -0.282 N 
ATOM      4  H   UNL     1       2.486  -2.236   0.920  0.00  0.00    +0.155 HD
ENDROOT
BRANCH   1  10
ATOM      5  C   UNL     1       4.599   1.481  -0.173  0.00  0.00    +0.109 C 
ATOM      6  C   UNL     1       3.352   2.327  -0.183  0.00  0.00    +0.217 C 
ATOM      7  O   UNL     1       3.434   3.529  -0.050  0.00  0.00    -0.276 OA
ATOM      8  N   UNL     1       2.146   1.747  -0.341  0.00  0.00    -0.264 N 
ATOM      9  C   UNL     1       2.022   0.301  -0.596  0.00  0.00    +0.168 C 
ATOM     10  C   UNL     1       0.854  -0.221   0.253  0.00  0.00    +0.276 C 
ATOM     11  O   UNL     1      -0.331   0.493  -0.105  0.00  0.00    -0.476 OA
ATOM     12  C   UNL     1      -0.264   1.850  -0.147  0.00  0.00    +0.143 A 
ATOM     13  C   UNL     1       0.962   2.500  -0.268  0.00  0.00    +0.078 A 
ATOM     14  C   UNL     1       1.015   3.884  -0.315  0.00  0.00    +0.027 A 
ATOM     15  C   UNL     1      -0.153   4.621  -0.238  0.00  0.00    +0.002 A 
ATOM     16  C   UNL     1      -1.371   3.978  -0.115  0.00  0.00    +0.004 A 
ATOM     17  C   UNL     1      -1.430   2.597  -0.075  0.00  0.00    +0.047 A 
ENDBRANCH   1  10
BRANCH   3  18
ATOM     18  C   UNL     1       1.485  -3.923  -0.010  0.00  0.00    +0.034 A 
ATOM     19  C   UNL     1       2.104  -4.904   0.753  0.00  0.00    +0.027 A 
ATOM     20  C   UNL     1       1.976  -6.234   0.404  0.00  0.00    +0.048 A 
ATOM     21  C   UNL     1       1.238  -6.589  -0.717  0.00  0.00    +0.129 A 
ATOM     22  C   UNL     1       0.624  -5.609  -1.483  0.00  0.00    +0.048 A 
ATOM     23  C   UNL     1       0.747  -4.279  -1.131  0.00  0.00    +0.027 A 
BRANCH  21  24
ATOM     24  O   UNL     1       1.117  -7.898  -1.064  0.00  0.00    -0.455 OA
BRANCH  24  25
ATOM     25  C   UNL     1       1.646  -8.831  -0.229  0.00  0.00    +0.147 A 
ATOM     26  C   UNL     1       2.950  -9.268  -0.411  0.00  0.00    +0.048 A 
ATOM     27  C   UNL     1       3.486 -10.213   0.443  0.00  0.00    +0.004 A 
ATOM     28  C   UNL     1       2.721 -10.731   1.471  0.00  0.00    +0.002 A 
ATOM     29  C   UNL     1       1.419 -10.302   1.652  0.00  0.00    +0.024 A 
ATOM     30  C   UNL     1       0.879  -9.353   0.805  0.00  0.00    +0.083 A 
ATOM     31 CL   UNL     1      -0.755  -8.814   1.033  0.00  0.00    -0.080 Cl
ENDBRANCH  24  25
ENDBRANCH  21  24
ENDBRANCH   3  18
TORSDOF 4
