REMARK  Name = ZINC50710795
REMARK  4 active torsions:
REMARK  status: ('A' for Active; 'I' for Inactive)
REMARK    1  A    between atoms: C_3  and  N_19
REMARK    2  A    between atoms: C_4  and  C_8
REMARK    3  A    between atoms: C_6  and  N_7
REMARK    4  A    between atoms: N_10  and  C_11
REMARK                            x       y       z     vdW  Elec       q    Type
REMARK                         _______ _______ _______ _____ _____    ______ ____
ROOT
ATOM      1  C   UNL     1      -0.020   1.429   0.084  0.00  0.00    +0.025 A 
ATOM      2  C   UNL     1       0.834   1.626  -0.985  0.00  0.00    +0.035 A 
ATOM      3  C   UNL     1       2.041   0.960  -1.041  0.00  0.00    +0.138 A 
ATOM      4  C   UNL     1       2.403   0.083  -0.017  0.00  0.00    +0.069 A 
ATOM      5  C   UNL     1       1.542  -0.116   1.062  0.00  0.00    +0.038 A 
ATOM      6  C   UNL     1       0.331   0.558   1.109  0.00  0.00    +0.025 A 
ENDROOT
BRANCH   4   7
ATOM      7  C   UNL     1       3.696  -0.632  -0.075  0.00  0.00    +0.251 C 
ATOM      8  O   UNL     1       4.738  -0.009  -0.032  0.00  0.00    -0.270 OA
ATOM      9  N   UNL     1       3.718  -1.976  -0.177  0.00  0.00    -0.279 N 
ATOM     10  H   UNL     1       2.890  -2.468  -0.295  0.00  0.00    +0.155 HD
BRANCH   9  11
ATOM     11  C   UNL     1       4.937  -2.663  -0.111  0.00  0.00    +0.069 A 
ATOM     12  C   UNL     1       6.020  -2.095   0.546  0.00  0.00    +0.027 A 
ATOM     13  C   UNL     1       7.221  -2.775   0.610  0.00  0.00    +0.022 A 
ATOM     14  C   UNL     1       7.346  -4.020   0.020  0.00  0.00    +0.044 A 
ATOM     15  C   UNL     1       6.269  -4.590  -0.636  0.00  0.00    +0.060 A 
ATOM     16  C   UNL     1       5.062  -3.917  -0.697  0.00  0.00    +0.146 A 
ATOM     17  F   UNL     1       4.008  -4.476  -1.332  0.00  0.00    -0.203 F 
ATOM     18 CL   UNL     1       8.858  -4.870   0.103  0.00  0.00    -0.083 Cl
ENDBRANCH   9  11
ENDBRANCH   4   7
BRANCH   6  19
ATOM     19  N   UNL     1      -0.536   0.363   2.187  0.00  0.00    -0.358 N 
ATOM     20  H   UNL     1      -1.383   0.835   2.220  0.00  0.00    +0.142 HD
ATOM     21  H   UNL     1      -0.291  -0.245   2.902  0.00  0.00    +0.142 HD
ENDBRANCH   6  19
BRANCH   3  22
ATOM     22  N   UNL     1       2.952   1.174  -2.188  0.00  0.00    +0.057 N 
ATOM     23  O   UNL     1       2.601   1.863  -3.118  0.00  0.00    -0.126 OA
ATOM     24  O   UNL     1       4.046   0.660  -2.196  0.00  0.00    -0.126 OA
ENDBRANCH   3  22
TORSDOF 4
