REMARK  Name = ZINC67030043
REMARK  4 active torsions:
REMARK  status: ('A' for Active; 'I' for Inactive)
REMARK    1  A    between atoms: C_1  and  C_2
REMARK    2  A    between atoms: N_4  and  C_5
REMARK    3  A    between atoms: C_5  and  C_6
REMARK    4  A    between atoms: C_9  and  C_11
REMARK                            x       y       z     vdW  Elec       q    Type
REMARK                         _______ _______ _______ _____ _____    ______ ____
ROOT
ATOM      1  C   UNL     1      -1.025  -3.937  -6.325  0.00  0.00    +0.257 C 
ATOM      2  O   UNL     1      -0.282  -4.246  -7.239  0.00  0.00    -0.269 OA
ATOM      3  N   UNL     1      -2.361  -4.009  -6.489  0.00  0.00    -0.266 N 
ATOM      4  C   UNL     1      -2.941  -4.465  -7.763  0.00  0.00    +0.115 C 
ATOM      5  C   UNL     1      -3.168  -3.309  -8.702  0.00  0.00    +0.030 C 
ATOM      6  C   UNL     1      -4.236  -2.318  -8.270  0.00  0.00    +0.076 C 
ATOM      7  S   UNL     1      -3.658  -1.358  -6.840  0.00  0.00    -0.123 S 
ATOM      8  C   UNL     1      -3.950  -2.465  -5.481  0.00  0.00    +0.029 A 
ATOM      9  C   UNL     1      -3.229  -3.659  -5.451  0.00  0.00    +0.050 A 
ATOM     10  C   UNL     1      -3.393  -4.520  -4.372  0.00  0.00    +0.024 A 
ATOM     11  C   UNL     1      -4.289  -4.203  -3.368  0.00  0.00    +0.002 A 
ATOM     12  C   UNL     1      -5.029  -3.036  -3.422  0.00  0.00    +0.001 A 
ATOM     13  C   UNL     1      -4.856  -2.147  -4.490  0.00  0.00    +0.016 A 
ENDROOT
BRANCH   1  17
ATOM     14  C   UNL     1       0.013  -2.631  -2.600  0.00  0.00    +0.008 A 
ATOM     15  C   UNL     1       1.079  -2.895  -3.396  0.00  0.00    +0.013 A 
ATOM     16  C   UNL     1       0.863  -3.343  -4.677  0.00  0.00    +0.021 A 
ATOM     17  C   UNL     1      -0.466  -3.487  -5.048  0.00  0.00    +0.075 A 
ATOM     18  S   UNL     1      -1.317  -2.988  -3.562  0.00  0.00    -0.087 S 
BRANCH  14  19
ATOM     19  C   UNL     1       0.020  -2.136  -1.177  0.00  0.00    +0.146 C 
BRANCH  19  23
ATOM     20  C   UNL     1      -0.018   1.503   0.010  0.00  0.00    +0.109 C 
ATOM     21  C   UNL     1       0.002  -0.004   0.002  0.00  0.00    +0.210 C 
ATOM     22  O   UNL     1       0.020  -0.616   1.049  0.00  0.00    -0.276 OA
ATOM     23  N   UNL     1       0.000  -0.672  -1.169  0.00  0.00    -0.311 N 
ATOM     24  H   UNL     1      -0.015  -0.182  -2.006  0.00  0.00    +0.149 HD
ENDBRANCH  19  23
ENDBRANCH  14  19
ENDBRANCH   1  17
TORSDOF 3
