REMARK  Name = ZINC21713457
REMARK  5 active torsions:
REMARK  status: ('A' for Active; 'I' for Inactive)
REMARK    1  A    between atoms: C_1  and  C_2
REMARK    2  A    between atoms: C_4  and  N_9
REMARK    3  A    between atoms: C_12  and  N_16
REMARK    4  A    between atoms: C_17  and  C_22
REMARK    5  A    between atoms: C_19  and  C_21
REMARK                            x       y       z     vdW  Elec       q    Type
REMARK                         _______ _______ _______ _____ _____    ______ ____
ROOT
ATOM      1  N   UNL     1       3.634  -0.503  -0.036  0.00  0.00    -0.299 N 
ATOM      2  C   UNL     1       2.438  -0.049  -0.573  0.00  0.00    +0.128 A 
ATOM      3  C   UNL     1       1.255  -0.755  -0.363  0.00  0.00    +0.092 A 
ATOM      4  C   UNL     1       0.085  -0.259  -0.923  0.00  0.00    +0.159 A 
ATOM      5  N   UNL     1       0.134   0.865  -1.634  0.00  0.00    -0.216 NA
ATOM      6  C   UNL     1       1.272   1.505  -1.810  0.00  0.00    +0.225 A 
ATOM      7  N   UNL     1       2.404   1.067  -1.296  0.00  0.00    -0.220 NA
ATOM      8  H   UNL     1       3.672  -1.475   0.479  0.00  0.00    +0.154 HD
ENDROOT
BRANCH   1  12
ATOM      9  C   UNL     1       8.519  -0.232  -0.510  0.00  0.00    +0.045 C 
ATOM     10  C   UNL     1       7.172   0.432  -0.380  0.00  0.00    -0.035 A 
ATOM     11  C   UNL     1       6.031  -0.338  -0.269  0.00  0.00    +0.027 A 
ATOM     12  C   UNL     1       4.791   0.274  -0.148  0.00  0.00    +0.033 A 
ATOM     13  C   UNL     1       4.701   1.660  -0.146  0.00  0.00    +0.024 A 
ATOM     14  C   UNL     1       5.846   2.425  -0.251  0.00  0.00    +0.017 A 
ATOM     15  C   UNL     1       7.080   1.812  -0.371  0.00  0.00    +0.021 A 
ATOM     16 BR   UNL     1       8.645   2.863  -0.523  0.00  0.00    -0.050 Br
ENDBRANCH   1  12
BRANCH   4  17
ATOM     17  N   UNL     1      -1.126  -0.930  -0.742  0.00  0.00    -0.219 N 
ATOM     18  C   UNL     1      -2.365  -0.372  -0.788  0.00  0.00    +0.044 A 
ATOM     19  C   UNL     1      -3.265  -1.357  -0.567  0.00  0.00    +0.048 A 
ATOM     20  C   UNL     1      -2.560  -2.550  -0.369  0.00  0.00    +0.061 A 
ATOM     21  N   UNL     1      -1.281  -2.296  -0.473  0.00  0.00    -0.170 NA
ATOM     22  C   UNL     1      -3.170  -3.898  -0.084  0.00  0.00    +0.067 C 
ATOM     23  C   UNL     1      -2.678   1.079  -1.044  0.00  0.00    +0.066 C 
ENDBRANCH   4  17
TORSDOF 2
