REMARK  Name = ZINC02231963
REMARK  9 active torsions:
REMARK  status: ('A' for Active; 'I' for Inactive)
REMARK    1  A    between atoms: C_1  and  C_2
REMARK    2  A    between atoms: C_2  and  C_3
REMARK    3  A    between atoms: C_2  and  C_4
REMARK    4  A    between atoms: C_7  and  C_10
REMARK    5  A    between atoms: C_21  and  C_23
REMARK    6  A    between atoms: C_27  and  O_31
REMARK    7  A    between atoms: C_28  and  O_29
REMARK    8  A    between atoms: O_29  and  C_30
REMARK    9  A    between atoms: O_31  and  C_32
REMARK                            x       y       z     vdW  Elec       q    Type
REMARK                         _______ _______ _______ _____ _____    ______ ____
ROOT
ATOM      1  C   UNL     1      -5.346  -1.995   0.218  0.00  0.00    +0.163 C 
ATOM      2  C   UNL     1      -6.274  -1.117  -0.590  0.00  0.00    +0.028 C 
ATOM      3  C   UNL     1      -6.959  -1.684  -1.605  0.00  0.00    +0.083 C 
ATOM      4  C   UNL     1      -7.859  -0.809  -2.398  0.00  0.00    +0.042 A 
ATOM      5  C   UNL     1      -8.830  -1.338  -3.237  0.00  0.00    +0.013 A 
ATOM      6  C   UNL     1      -9.649  -0.487  -3.955  0.00  0.00    +0.001 A 
ATOM      7  C   UNL     1      -9.501   0.884  -3.838  0.00  0.00    +0.004 A 
ATOM      8  C   UNL     1      -8.536   1.419  -3.005  0.00  0.00    +0.046 A 
ATOM      9  C   UNL     1      -7.708   0.578  -2.281  0.00  0.00    +0.131 A 
ATOM     10  O   UNL     1      -6.747   1.076  -1.462  0.00  0.00    -0.479 OA
ATOM     11  C   UNL     1      -6.442   0.341  -0.275  0.00  0.00    +0.238 C 
ATOM     12  N   UNL     1      -6.829  -3.002  -1.892  0.00  0.00    -0.216 NA
ATOM     13  C   UNL     1      -6.045  -3.827  -1.235  0.00  0.00    +0.209 C 
ATOM     14  N   UNL     1      -5.282  -3.407  -0.189  0.00  0.00    -0.182 N 
ATOM     15  N   UNL     1      -4.568  -4.510   0.282  0.00  0.00    -0.169 NA
ATOM     16  C   UNL     1      -4.881  -5.538  -0.439  0.00  0.00    +0.208 C 
ATOM     17  N   UNL     1      -5.792  -5.166  -1.385  0.00  0.00    -0.275 N 
ATOM     18  H   UNL     1      -6.189  -5.748  -2.051  0.00  0.00    +0.156 HD
ENDROOT
BRANCH   1  22
ATOM     19  C   UNL     1      -1.408  -0.359  -0.029  0.00  0.00    -0.045 A 
ATOM     20  C   UNL     1      -2.152  -0.197   1.124  0.00  0.00    +0.004 A 
ATOM     21  C   UNL     1      -3.427  -0.726   1.204  0.00  0.00    +0.006 A 
ATOM     22  C   UNL     1      -3.957  -1.418   0.131  0.00  0.00    -0.021 A 
ATOM     23  C   UNL     1      -3.212  -1.579  -1.023  0.00  0.00    +0.006 A 
ATOM     24  C   UNL     1      -1.940  -1.046  -1.105  0.00  0.00    +0.004 A 
BRANCH  19  26
ATOM     25  C   UNL     1      -0.082   1.734   0.077  0.00  0.00    +0.012 C 
ATOM     26  C   UNL     1      -0.018   0.217  -0.117  0.00  0.00    +0.013 C 
ATOM     27  C   UNL     1       0.860  -0.399   0.974  0.00  0.00    +0.012 C 
ENDBRANCH  19  26
ENDBRANCH   1  22
BRANCH  11  28
ATOM     28  C   UNL     1      -7.563   0.510   0.718  0.00  0.00    +0.042 A 
ATOM     29  C   UNL     1      -8.844   0.783   0.274  0.00  0.00    +0.011 A 
ATOM     30  C   UNL     1      -9.875   0.939   1.182  0.00  0.00    +0.004 A 
ATOM     31  C   UNL     1      -9.629   0.822   2.538  0.00  0.00    +0.049 A 
ATOM     32  C   UNL     1      -8.349   0.548   2.989  0.00  0.00    +0.162 A 
ATOM     33  C   UNL     1      -7.312   0.386   2.074  0.00  0.00    +0.168 A 
BRANCH  33  34
ATOM     34  O   UNL     1      -6.054   0.112   2.512  0.00  0.00    -0.491 OA
ATOM     35  C   UNL     1      -5.257   1.221   2.933  0.00  0.00    +0.277 C 
ENDBRANCH  33  34
BRANCH  32  36
ATOM     36  O   UNL     1      -8.105   0.434   4.322  0.00  0.00    -0.491 OA
ATOM     37  C   UNL     1      -9.218   0.607   5.201  0.00  0.00    +0.277 C 
ENDBRANCH  32  36
ENDBRANCH  11  28
TORSDOF 5
