REMARK  Name = ZINC04742756
REMARK  8 active torsions:
REMARK  status: ('A' for Active; 'I' for Inactive)
REMARK    1  A    between atoms: C_1  and  C_2
REMARK    2  A    between atoms: C_6  and  O_27
REMARK    3  A    between atoms: C_7  and  C_26
REMARK    4  A    between atoms: C_12  and  C_13
REMARK    5  A    between atoms: C_13  and  C_14
REMARK    6  A    between atoms: N_16  and  C_17
REMARK    7  A    between atoms: C_17  and  C_18
REMARK    8  A    between atoms: C_18  and  C_19
REMARK                            x       y       z     vdW  Elec       q    Type
REMARK                         _______ _______ _______ _____ _____    ______ ____
ROOT
ATOM      1  C   UNL     1      -1.947  -0.618  -6.080  0.00  0.00    +0.045 C 
ATOM      2  C   UNL     1      -1.558   0.713  -6.669  0.00  0.00    -0.029 A 
ATOM      3  C   UNL     1      -2.242   1.241  -7.852  0.00  0.00    +0.021 A 
ATOM      4  C   UNL     1      -3.276   0.524  -8.466  0.00  0.00    +0.015 A 
ATOM      5  C   UNL     1      -3.893   1.036  -9.571  0.00  0.00    +0.046 A 
ATOM      6  C   UNL     1      -3.501   2.268 -10.091  0.00  0.00    +0.123 A 
ATOM      7  C   UNL     1      -2.481   2.991  -9.495  0.00  0.00    +0.034 A 
ATOM      8  C   UNL     1      -1.843   2.486  -8.372  0.00  0.00    +0.146 A 
ATOM      9  O   UNL     1      -0.846   3.174  -7.776  0.00  0.00    -0.422 OA
ATOM     10  C   UNL     1      -0.218   2.699  -6.689  0.00  0.00    +0.341 A 
ATOM     11  O   UNL     1       0.675   3.356  -6.186  0.00  0.00    -0.245 OA
ATOM     12  C   UNL     1      -0.567   1.459  -6.115  0.00  0.00    +0.049 A 
ATOM     13  C   UNL     1      -2.066   4.323 -10.065  0.00  0.00    +0.051 C 
ENDROOT
BRANCH   6  14
ATOM     14  O   UNL     1      -4.124   2.764 -11.190  0.00  0.00    -0.506 OA
ATOM     15  H   UNL     1      -3.715   2.502 -12.026  0.00  0.00    +0.292 HD
ENDBRANCH   6  14
BRANCH  12  16
ATOM     16  C   UNL     1       0.162   0.960  -4.895  0.00  0.00    +0.138 C 
BRANCH  16  17
ATOM     17  C   UNL     1      -0.543   1.446  -3.655  0.00  0.00    +0.218 C 
ATOM     18  O   UNL     1      -1.540   2.130  -3.753  0.00  0.00    -0.275 OA
ATOM     19  N   UNL     1      -0.067   1.120  -2.437  0.00  0.00    -0.315 N 
ATOM     20  H   UNL     1       0.730   0.573  -2.358  0.00  0.00    +0.149 HD
BRANCH  19  21
ATOM     21  C   UNL     1      -0.753   1.593  -1.232  0.00  0.00    +0.109 C 
BRANCH  21  22
ATOM     22  C   UNL     1      -0.013   1.086   0.008  0.00  0.00    +0.054 C 
BRANCH  22  23
ATOM     23  C   UNL     1      -0.718   1.572   1.248  0.00  0.00    -0.046 A 
ATOM     24  C   UNL     1      -0.359   2.779   1.818  0.00  0.00    +0.006 A 
ATOM     25  C   UNL     1      -1.009   3.228   2.953  0.00  0.00    +0.038 A 
ATOM     26  C   UNL     1      -2.012   2.463   3.524  0.00  0.00    +0.123 A 
ATOM     27  C   UNL     1      -2.367   1.252   2.955  0.00  0.00    +0.038 A 
ATOM     28  C   UNL     1      -1.719   0.807   1.817  0.00  0.00    +0.006 A 
ATOM     29  F   UNL     1      -2.644   2.899   4.635  0.00  0.00    -0.205 F 
ENDBRANCH  22  23
ENDBRANCH  21  22
ENDBRANCH  19  21
ENDBRANCH  16  17
ENDBRANCH  12  16
TORSDOF 6
