REMARK  Name = ZINC41078952
REMARK  5 active torsions:
REMARK  status: ('A' for Active; 'I' for Inactive)
REMARK    1  A    between atoms: C_1  and  C_2
REMARK    2  A    between atoms: C_5  and  O_9
REMARK    3  A    between atoms: C_6  and  N_8
REMARK    4  A    between atoms: O_9  and  C_10
REMARK    5  A    between atoms: C_19  and  C_20
REMARK                            x       y       z     vdW  Elec       q    Type
REMARK                         _______ _______ _______ _____ _____    ______ ____
ROOT
ATOM      1  C   UNL     1       0.059  -4.758  -1.234  0.00  0.00    +0.156 A 
ATOM      2  C   UNL     1      -1.150  -5.106  -1.879  0.00  0.00    +0.044 A 
ATOM      3  C   UNL     1      -2.393  -4.815  -1.297  0.00  0.00    +0.014 A 
ATOM      4  C   UNL     1      -3.539  -5.164  -1.946  0.00  0.00    +0.001 A 
ATOM      5  C   UNL     1      -3.491  -5.806  -3.181  0.00  0.00    +0.002 A 
ATOM      6  C   UNL     1      -2.301  -6.102  -3.773  0.00  0.00    +0.028 A 
ATOM      7  C   UNL     1      -1.098  -5.758  -3.134  0.00  0.00    +0.075 A 
ATOM      8  N   UNL     1       0.084  -6.040  -3.700  0.00  0.00    -0.253 NA
ATOM      9  C   UNL     1       1.218  -5.729  -3.125  0.00  0.00    +0.134 A 
ATOM     10  C   UNL     1       1.259  -5.077  -1.882  0.00  0.00    +0.113 A 
ENDROOT
BRANCH  10  11
ATOM     11  C   UNL     1       2.515  -4.744  -1.281  0.00  0.00    +0.104 C 
ATOM     12  N   UNL     1       3.512  -4.481  -0.804  0.00  0.00    -0.191 NA
ENDBRANCH  10  11
BRANCH   1  13
ATOM     13  O   UNL     1       0.057  -4.134  -0.034  0.00  0.00    -0.452 OA
BRANCH  13  18
ATOM     14  C   UNL     1      -0.018   1.503   0.010  0.00  0.00    +0.044 C 
ATOM     15  C   UNL     1       0.002  -0.004   0.002  0.00  0.00    -0.048 A 
ATOM     16  C   UNL     1       0.006  -0.687  -1.200  0.00  0.00    +0.007 A 
ATOM     17  C   UNL     1       0.025  -2.069  -1.214  0.00  0.00    +0.048 A 
ATOM     18  C   UNL     1       0.040  -2.775  -0.022  0.00  0.00    +0.149 A 
ATOM     19  C   UNL     1       0.036  -2.087   1.190  0.00  0.00    +0.068 A 
ATOM     20  C   UNL     1       0.023  -0.700   1.196  0.00  0.00    +0.029 A 
BRANCH  19  21
ATOM     21  N   UNL     1       0.051  -2.794   2.397  0.00  0.00    -0.355 N 
ATOM     22  H   UNL     1       0.064  -3.764   2.392  0.00  0.00    +0.142 HD
ATOM     23  H   UNL     1       0.049  -2.314   3.240  0.00  0.00    +0.142 HD
ENDBRANCH  19  21
ENDBRANCH  13  18
ENDBRANCH   1  13
TORSDOF 4
