REMARK  Name = ZINC12731688
REMARK  11 active torsions:
REMARK  status: ('A' for Active; 'I' for Inactive)
REMARK    1  A    between atoms: C_1  and  C_2
REMARK    2  A    between atoms: C_2  and  C_3
REMARK    3  A    between atoms: C_4  and  C_20
REMARK    4  A    between atoms: C_5  and  N_19
REMARK    5  A    between atoms: C_7  and  S_9
REMARK    6  A    between atoms: S_9  and  C_10
REMARK    7  A    between atoms: C_10  and  C_11
REMARK    8  A    between atoms: N_13  and  C_14
REMARK    9  A    between atoms: C_14  and  C_16
REMARK   10  A    between atoms: C_14  and  C_17
REMARK   11  A    between atoms: C_17  and  C_18
REMARK                            x       y       z     vdW  Elec       q    Type
REMARK                         _______ _______ _______ _____ _____    ______ ____
ROOT
ATOM      1  C   UNL     1      -3.385   1.084  -1.057  0.00  0.00    +0.055 A 
ATOM      2  C   UNL     1      -2.505   1.003   0.020  0.00  0.00    +0.043 A 
ATOM      3  C   UNL     1      -2.861   0.190   1.112  0.00  0.00    +0.129 A 
ATOM      4  N   UNL     1      -4.013  -0.469   1.073  0.00  0.00    -0.207 NA
ATOM      5  C   UNL     1      -4.817  -0.365   0.024  0.00  0.00    +0.191 A 
ATOM      6  N   UNL     1      -4.512   0.391  -1.021  0.00  0.00    -0.226 NA
ENDROOT
BRANCH   2   7
ATOM      7  C   UNL     1      -1.228   1.758   0.017  0.00  0.00    -0.013 A 
ATOM      8  C   UNL     1      -0.013   1.076   0.008  0.00  0.00    +0.010 A 
ATOM      9  C   UNL     1       1.172   1.783   0.000  0.00  0.00    +0.020 A 
ATOM     10  C   UNL     1       1.155   3.167   0.008  0.00  0.00    +0.041 A 
ATOM     11  C   UNL     1      -0.050   3.849   0.022  0.00  0.00    +0.020 A 
ATOM     12  C   UNL     1      -1.240   3.151   0.030  0.00  0.00    +0.010 A 
ATOM     13 CL   UNL     1       2.649   4.051  -0.003  0.00  0.00    -0.084 Cl
ENDBRANCH   2   7
BRANCH   3  14
ATOM     14  N   UNL     1      -2.025   0.080   2.209  0.00  0.00    -0.343 N 
ATOM     15  H   UNL     1      -1.185   0.565   2.229  0.00  0.00    +0.144 HD
ATOM     16  H   UNL     1      -2.278  -0.483   2.958  0.00  0.00    +0.144 HD
ENDBRANCH   3  14
BRANCH   1  18
ATOM     17  C   UNL     1      -2.283   1.117  -3.278  0.00  0.00    +0.010 C 
ATOM     18  C   UNL     1      -3.056   1.944  -2.249  0.00  0.00    +0.053 C 
ENDBRANCH   1  18
BRANCH   5  19
ATOM     19  S   UNL     1      -6.335  -1.260   0.019  0.00  0.00    -0.077 S 
BRANCH  19  20
ATOM     20  C   UNL     1      -6.222  -2.081   1.628  0.00  0.00    +0.173 C 
BRANCH  20  21
ATOM     21  C   UNL     1      -7.449  -2.927   1.848  0.00  0.00    +0.224 C 
ATOM     22  O   UNL     1      -8.315  -2.971   1.000  0.00  0.00    -0.275 OA
ATOM     23  N   UNL     1      -7.584  -3.635   2.986  0.00  0.00    -0.312 N 
ATOM     24  H   UNL     1      -6.892  -3.600   3.665  0.00  0.00    +0.149 HD
BRANCH  23  25
ATOM     25  C   UNL     1      -8.777  -4.458   3.200  0.00  0.00    +0.070 C 
ATOM     26  C   UNL     1      -9.898  -3.592   3.779  0.00  0.00    +0.028 C 
BRANCH  25  27
ATOM     27  C   UNL     1      -8.450  -5.588   4.178  0.00  0.00    +0.018 C 
ATOM     28  C   UNL     1      -7.418  -6.526   3.547  0.00  0.00    +0.005 C 
ENDBRANCH  25  27
ENDBRANCH  23  25
ENDBRANCH  20  21
ENDBRANCH  19  20
ENDBRANCH   5  19
TORSDOF 8
