REMARK  Name = ZINC60271495
REMARK  9 active torsions:
REMARK  status: ('A' for Active; 'I' for Inactive)
REMARK    1  A    between atoms: C_1  and  C_2
REMARK    2  A    between atoms: C_3  and  C_13
REMARK    3  A    between atoms: C_4  and  C_12
REMARK    4  A    between atoms: C_13  and  C_14
REMARK    5  A    between atoms: N_16  and  C_17
REMARK    6  A    between atoms: C_17  and  C_18
REMARK    7  A    between atoms: C_18  and  C_19
REMARK    8  A    between atoms: C_18  and  C_20
REMARK    9  A    between atoms: C_18  and  C_21
REMARK                            x       y       z     vdW  Elec       q    Type
REMARK                         _______ _______ _______ _____ _____    ______ ____
ROOT
ATOM      1  C   UNL     1      -2.893   0.357   1.434  0.00  0.00    +0.217 C 
ATOM      2  O   UNL     1      -2.160   0.040   2.347  0.00  0.00    -0.275 OA
ATOM      3  N   UNL     1      -4.040   1.016   1.689  0.00  0.00    -0.314 N 
ATOM      4  H   UNL     1      -4.626   1.269   0.959  0.00  0.00    +0.149 HD
ENDROOT
BRANCH   1   5
ATOM      5  C   UNL     1      -2.520   0.013   0.015  0.00  0.00    +0.134 C 
BRANCH   5   8
ATOM      6  C   UNL     1      -0.018   1.503   0.010  0.00  0.00    +0.066 C 
ATOM      7  C   UNL     1       0.002  -0.004   0.002  0.00  0.00    +0.047 A 
ATOM      8  C   UNL     1      -1.202  -0.717   0.004  0.00  0.00    +0.004 A 
ATOM      9  C   UNL     1      -1.169  -2.075  -0.004  0.00  0.00    +0.049 A 
ATOM     10  N   UNL     1       0.035  -2.706  -0.013  0.00  0.00    -0.199 N 
ATOM     11  C   UNL     1       1.192  -1.980  -0.014  0.00  0.00    +0.255 A 
ATOM     12  N   UNL     1       1.151  -0.643  -0.012  0.00  0.00    -0.216 NA
ATOM     13  N   UNL     1       2.202  -2.844  -0.023  0.00  0.00    -0.176 NA
ATOM     14  C   UNL     1       1.728  -4.088  -0.027  0.00  0.00    +0.234 A 
ATOM     15  N   UNL     1       0.411  -4.055  -0.021  0.00  0.00    -0.128 NA
ATOM     16  N   UNL     1       2.504  -5.244  -0.036  0.00  0.00    -0.326 N 
ATOM     17  C   UNL     1      -2.449  -2.871  -0.001  0.00  0.00    +0.066 C 
ATOM     18  H   UNL     1       3.471  -5.179  -0.040  0.00  0.00    +0.145 HD
ATOM     19  H   UNL     1       2.076  -6.115  -0.039  0.00  0.00    +0.145 HD
ENDBRANCH   5   8
ENDBRANCH   1   5
BRANCH   3  20
ATOM     20  C   UNL     1      -4.402   1.350   3.069  0.00  0.00    +0.115 C 
BRANCH  20  21
ATOM     21  C   UNL     1      -5.740   2.091   3.079  0.00  0.00    +0.006 C 
ATOM     22  C   UNL     1      -5.618   3.377   2.259  0.00  0.00    +0.017 C 
ATOM     23  C   UNL     1      -6.823   1.198   2.470  0.00  0.00    +0.017 C 
BRANCH  21  24
ATOM     24  C   UNL     1      -6.113   2.435   4.499  0.00  0.00    -0.039 A 
ATOM     25  C   UNL     1      -5.274   2.078   5.539  0.00  0.00    +0.006 A 
ATOM     26  C   UNL     1      -5.615   2.392   6.841  0.00  0.00    +0.022 A 
ATOM     27  C   UNL     1      -6.795   3.064   7.104  0.00  0.00    +0.059 A 
ATOM     28  C   UNL     1      -7.635   3.422   6.063  0.00  0.00    +0.060 A 
ATOM     29  C   UNL     1      -7.290   3.111   4.760  0.00  0.00    +0.025 A 
ATOM     30 CL   UNL     1      -9.116   4.264   6.392  0.00  0.00    -0.082 Cl
ATOM     31 CL   UNL     1      -7.224   3.458   8.740  0.00  0.00    -0.082 Cl
ENDBRANCH  21  24
ENDBRANCH  20  21
ENDBRANCH   3  20
TORSDOF 5
