REMARK  Name = ZINC67626970
REMARK  13 active torsions:
REMARK  status: ('A' for Active; 'I' for Inactive)
REMARK    1  A    between atoms: C_1  and  C_2
REMARK    2  A    between atoms: C_2  and  C_3
REMARK    3  A    between atoms: C_3  and  O_4
REMARK    4  A    between atoms: O_4  and  C_5
REMARK    5  A    between atoms: C_5  and  C_6
REMARK    6  A    between atoms: C_11  and  C_12
REMARK    7  A    between atoms: C_12  and  N_13
REMARK    8  A    between atoms: N_16  and  C_17
REMARK    9  A    between atoms: C_17  and  C_18
REMARK   10  A    between atoms: C_18  and  C_20
REMARK   11  A    between atoms: C_18  and  O_28
REMARK   12  A    between atoms: C_20  and  N_21
REMARK   13  A    between atoms: C_24  and  C_27
REMARK                            x       y       z     vdW  Elec       q    Type
REMARK                         _______ _______ _______ _____ _____    ______ ____
ROOT
ATOM      1  N   UNL     1      -5.426  -3.802  -1.327  0.00  0.00    -0.295 N 
ATOM      2  C   UNL     1      -6.614  -3.208  -1.555  0.00  0.00    +0.300 C 
ATOM      3  O   UNL     1      -7.390  -3.029  -0.636  0.00  0.00    -0.253 OA
ATOM      4  N   UNL     1      -6.942  -2.813  -2.801  0.00  0.00    -0.297 N 
ATOM      5  H   UNL     1      -4.806  -3.945  -2.060  0.00  0.00    +0.151 HD
ATOM      6  H   UNL     1      -6.323  -2.956  -3.534  0.00  0.00    +0.150 HD
ENDROOT
BRANCH   1   7
ATOM      7  C   UNL     1      -5.069  -4.231   0.028  0.00  0.00    +0.141 C 
BRANCH   7  13
ATOM      8  C   UNL     1      -2.572  -4.062   0.005  0.00  0.00    -0.017 A 
ATOM      9  C   UNL     1      -1.316  -4.639  -0.005  0.00  0.00    +0.006 A 
ATOM     10  C   UNL     1      -1.188  -6.016  -0.013  0.00  0.00    +0.000 A 
ATOM     11  C   UNL     1      -2.316  -6.815  -0.012  0.00  0.00    +0.000 A 
ATOM     12  C   UNL     1      -3.572  -6.237  -0.002  0.00  0.00    +0.005 A 
ATOM     13  C   UNL     1      -3.700  -4.861   0.011  0.00  0.00    -0.025 A 
BRANCH   8  14
ATOM     14  C   UNL     1      -2.711  -2.561   0.014  0.00  0.00    +0.195 C 
BRANCH  14  15
ATOM     15  O   UNL     1      -1.414  -1.962   0.005  0.00  0.00    -0.375 OA
BRANCH  15  16
ATOM     16  C   UNL     1      -1.433  -0.534   0.013  0.00  0.00    +0.160 C 
BRANCH  16  18
ATOM     17  C   UNL     1      -0.019   1.526   0.010  0.00  0.00    +0.006 C 
ATOM     18  C   UNL     1       0.002  -0.004   0.002  0.00  0.00    +0.025 C 
ENDBRANCH  16  18
ENDBRANCH  15  16
ENDBRANCH  14  15
ENDBRANCH   8  14
ENDBRANCH   7  13
ENDBRANCH   1   7
BRANCH   4  19
ATOM     19  C   UNL     1      -8.233  -2.168  -3.049  0.00  0.00    +0.135 C 
BRANCH  19  20
ATOM     20  C   UNL     1      -8.354  -1.822  -4.534  0.00  0.00    +0.115 C 
BRANCH  20  21
ATOM     21  O   UNL     1      -7.299  -0.932  -4.903  0.00  0.00    -0.392 OA
ATOM     22  H   UNL     1      -7.299  -0.098  -4.415  0.00  0.00    +0.210 HD
ENDBRANCH  20  21
BRANCH  20  23
ATOM     23  C   UNL     1      -9.703  -1.148  -4.793  0.00  0.00    -0.046 C 
BRANCH  23  24
ATOM     24  N   UNL     1      -9.870  -0.924  -6.235  0.00  0.00    +0.381 N 
ATOM     25  C   UNL     1      -9.934  -2.218  -6.925  0.00  0.00    -0.078 C 
ATOM     26  C   UNL     1     -10.027  -1.991  -8.436  0.00  0.00    -0.016 C 
ATOM     27  C   UNL     1     -11.288  -1.181  -8.748  0.00  0.00    -0.018 C 
ATOM     28  C   UNL     1     -11.245   0.134  -7.965  0.00  0.00    -0.016 C 
ATOM     29  C   UNL     1     -11.108  -0.172  -6.472  0.00  0.00    -0.078 C 
ATOM     30  C   UNL     1     -11.346  -0.882 -10.248  0.00  0.00    +0.007 C 
ATOM     31  H   UNL     1      -9.085  -0.397  -6.586  0.00  0.00    -0.082 HD
ENDBRANCH  23  24
ENDBRANCH  20  23
ENDBRANCH  19  20
ENDBRANCH   4  19
TORSDOF 11
