REMARK  Name = ZINC50832224
REMARK  6 active torsions:
REMARK  status: ('A' for Active; 'I' for Inactive)
REMARK    1  A    between atoms: C_1  and  C_2
REMARK    2  A    between atoms: C_5  and  O_12
REMARK    3  A    between atoms: C_8  and  C_10
REMARK    4  A    between atoms: C_8  and  C_11
REMARK    5  A    between atoms: O_12  and  C_13
REMARK    6  A    between atoms: C_13  and  C_14
REMARK                            x       y       z     vdW  Elec       q    Type
REMARK                         _______ _______ _______ _____ _____    ______ ____
ROOT
ATOM      1  C   UNL     1      -5.785  -0.657   0.609  0.00  0.00    +0.158 A 
ATOM      2  N   UNL     1      -6.150  -1.214  -0.532  0.00  0.00    -0.215 NA
ATOM      3  C   UNL     1      -7.320  -1.815  -0.681  0.00  0.00    +0.128 A 
ATOM      4  C   UNL     1      -8.218  -1.865   0.421  0.00  0.00    +0.047 A 
ATOM      5  C   UNL     1      -9.541  -2.458   0.514  0.00  0.00    +0.021 A 
ATOM      6  C   UNL     1     -10.212  -2.382   1.673  0.00  0.00    +0.048 A 
ATOM      7  S   UNL     1      -9.096  -1.495   2.743  0.00  0.00    -0.077 S 
ATOM      8  C   UNL     1      -7.759  -1.249   1.605  0.00  0.00    +0.114 A 
ATOM      9  N   UNL     1      -6.573  -0.676   1.667  0.00  0.00    -0.222 NA
ATOM     10  N   UNL     1      -7.664  -2.385  -1.893  0.00  0.00    -0.343 N 
ATOM     11  H   UNL     1      -7.047  -2.347  -2.640  0.00  0.00    +0.144 HD
ATOM     12  H   UNL     1      -8.523  -2.824  -1.995  0.00  0.00    +0.144 HD
ENDROOT
BRANCH   1  13
ATOM     13  C   UNL     1      -4.438   0.011   0.706  0.00  0.00    +0.236 C 
BRANCH  13  14
ATOM     14  O   UNL     1      -3.462  -0.946   1.124  0.00  0.00    -0.369 OA
BRANCH  14  18
ATOM     15  C   UNL     1      -0.019   1.524   0.010  0.00  0.00    +0.007 C 
ATOM     16  C   UNL     1       0.002  -0.004   0.002  0.00  0.00    -0.011 C 
ATOM     17  C   UNL     1      -1.413  -0.559  -0.088  0.00  0.00    +0.035 C 
ATOM     18  C   UNL     1      -2.138  -0.411   1.248  0.00  0.00    +0.120 C 
ATOM     19  C   UNL     1      -1.378  -1.199   2.313  0.00  0.00    +0.038 C 
ATOM     20  C   UNL     1       0.034  -0.651   2.488  0.00  0.00    -0.032 C 
ATOM     21  C   UNL     1       0.787  -0.561   1.172  0.00  0.00    +0.009 C 
ATOM     22  C   UNL     1      -0.015   0.710   3.188  0.00  0.00    +0.011 C 
ATOM     23  C   UNL     1       0.802  -1.619   3.413  0.00  0.00    +0.011 C 
ENDBRANCH  14  18
ENDBRANCH  13  14
ENDBRANCH   1  13
TORSDOF 3
