REMARK  Name = ZINC67449528
REMARK  11 active torsions:
REMARK  status: ('A' for Active; 'I' for Inactive)
REMARK    1  A    between atoms: C_1  and  C_2
REMARK    2  A    between atoms: C_2  and  C_4
REMARK    3  A    between atoms: C_2  and  N_16
REMARK    4  A    between atoms: C_7  and  O_12
REMARK    5  A    between atoms: C_8  and  O_10
REMARK    6  A    between atoms: O_10  and  C_11
REMARK    7  A    between atoms: O_12  and  C_13
REMARK    8  A    between atoms: C_13  and  C_14
REMARK    9  A    between atoms: C_14  and  O_15
REMARK   10  A    between atoms: N_16  and  C_17
REMARK   11  A    between atoms: C_17  and  C_18
REMARK                            x       y       z     vdW  Elec       q    Type
REMARK                         _______ _______ _______ _____ _____    ______ ____
ROOT
ATOM      1  C   UNL     1      -0.019   1.526   0.010  0.00  0.00    -0.009 C 
ATOM      2  C   UNL     1       0.002  -0.004   0.002  0.00  0.00    -0.043 C 
ENDROOT
BRANCH   2   3
ATOM      3  C   UNL     1       0.731  -0.503   1.223  0.00  0.00    -0.058 A 
ATOM      4  C   UNL     1       2.113  -0.513   1.245  0.00  0.00    +0.006 A 
ATOM      5  C   UNL     1       2.787  -0.970   2.363  0.00  0.00    +0.049 A 
ATOM      6  C   UNL     1       2.076  -1.419   3.464  0.00  0.00    +0.162 A 
ATOM      7  C   UNL     1       0.684  -1.409   3.442  0.00  0.00    +0.162 A 
ATOM      8  C   UNL     1       0.016  -0.945   2.320  0.00  0.00    +0.051 A 
BRANCH   7   9
ATOM      9  O   UNL     1      -0.017  -1.849   4.521  0.00  0.00    -0.491 OA
ATOM     10  C   UNL     1      -1.443  -1.809   4.427  0.00  0.00    +0.277 C 
ENDBRANCH   7   9
BRANCH   6  11
ATOM     11  O   UNL     1       2.737  -1.869   4.564  0.00  0.00    -0.486 OA
BRANCH  11  12
ATOM     12  C   UNL     1       4.165  -1.851   4.516  0.00  0.00    +0.257 C 
BRANCH  12  13
ATOM     13  C   UNL     1       4.726  -2.390   5.833  0.00  0.00    +0.196 C 
BRANCH  13  14
ATOM     14  O   UNL     1       4.370  -3.767   5.975  0.00  0.00    -0.392 OA
ATOM     15  H   UNL     1       4.694  -4.175   6.790  0.00  0.00    +0.210 HD
ENDBRANCH  13  14
ENDBRANCH  12  13
ENDBRANCH  11  12
ENDBRANCH   6  11
ENDBRANCH   2   3
BRANCH   2  16
ATOM     16  N   UNL     1       0.690  -0.478  -1.207  0.00  0.00    +0.386 N 
ATOM     17  H   UNL     1       1.608  -0.063  -1.256  0.00  0.00    -0.085 HD
ATOM     18  H   UNL     1       0.776  -1.482  -1.172  0.00  0.00    -0.085 HD
BRANCH  16  19
ATOM     19  C   UNL     1      -0.086  -0.093  -2.394  0.00  0.00    -0.046 C 
BRANCH  19  20
ATOM     20  C   UNL     1       0.620  -0.579  -3.634  0.00  0.00    -0.063 A 
ATOM     21  C   UNL     1       1.552   0.228  -4.259  0.00  0.00    +0.002 A 
ATOM     22  C   UNL     1       2.199  -0.218  -5.397  0.00  0.00    +0.001 A 
ATOM     23  C   UNL     1       1.915  -1.470  -5.909  0.00  0.00    +0.015 A 
ATOM     24  C   UNL     1       0.983  -2.277  -5.283  0.00  0.00    +0.018 A 
ATOM     25  C   UNL     1       0.339  -1.833  -4.141  0.00  0.00    +0.017 A 
ATOM     26 BR   UNL     1       0.592  -3.990  -5.983  0.00  0.00    -0.050 Br
ENDBRANCH  19  20
ENDBRANCH  16  19
ENDBRANCH   2  16
TORSDOF 9
