REMARK  Name = ZINC48603733
REMARK  7 active torsions:
REMARK  status: ('A' for Active; 'I' for Inactive)
REMARK    1  A    between atoms: C_1  and  C_2
REMARK    2  A    between atoms: C_2  and  C_3
REMARK    3  A    between atoms: C_2  and  C_4
REMARK    4  A    between atoms: C_4  and  C_5
REMARK    5  A    between atoms: C_5  and  N_6
REMARK    6  A    between atoms: C_7  and  C_9
REMARK    7  A    between atoms: N_11  and  C_12
REMARK                            x       y       z     vdW  Elec       q    Type
REMARK                         _______ _______ _______ _____ _____    ______ ____
ROOT
ATOM      1  C   UNL     1      -4.421  -4.405  -0.204  0.00  0.00    +0.303 C 
ATOM      2  O   UNL     1      -5.353  -3.633  -0.106  0.00  0.00    -0.265 OA
ATOM      3  N   UNL     1      -4.652  -5.729  -0.314  0.00  0.00    -0.276 N 
ATOM      4  H   UNL     1      -3.915  -6.338  -0.472  0.00  0.00    +0.155 HD
ENDROOT
BRANCH   3   5
ATOM      5  C   UNL     1      -5.956  -6.223  -0.199  0.00  0.00    +0.056 A 
ATOM      6  C   UNL     1      -6.910  -5.505   0.512  0.00  0.00    +0.072 A 
ATOM      7  C   UNL     1      -8.198  -5.995   0.624  0.00  0.00    +0.144 A 
ATOM      8  C   UNL     1      -8.535  -7.209   0.025  0.00  0.00    +0.077 A 
ATOM      9  C   UNL     1      -7.583  -7.923  -0.683  0.00  0.00    +0.048 A 
ATOM     10  C   UNL     1      -6.296  -7.429  -0.800  0.00  0.00    +0.064 A 
ATOM     11 CL   UNL     1      -5.104  -8.319  -1.693  0.00  0.00    -0.082 Cl
ATOM     12  N   UNL     1      -9.847  -7.693   0.149  0.00  0.00    -0.280 N 
ATOM     13  C   UNL     1     -10.819  -6.851   0.561  0.00  0.00    +0.255 C 
ATOM     14  O   UNL     1     -11.954  -7.256   0.705  0.00  0.00    -0.272 OA
ATOM     15  C   UNL     1     -10.489  -5.407   0.840  0.00  0.00    +0.325 C 
ATOM     16  O   UNL     1      -9.145  -5.304   1.315  0.00  0.00    -0.481 OA
ATOM     17  H   UNL     1     -10.051  -8.619  -0.057  0.00  0.00    +0.155 HD
ENDBRANCH   3   5
BRANCH   1  19
ATOM     18  N   UNL     1      -2.789  -2.567  -0.093  0.00  0.00    -0.308 N 
ATOM     19  C   UNL     1      -3.020  -3.890  -0.203  0.00  0.00    +0.299 C 
ATOM     20  O   UNL     1      -2.089  -4.662  -0.300  0.00  0.00    -0.265 OA
ATOM     21  H   UNL     1      -3.533  -1.949  -0.015  0.00  0.00    +0.149 HD
BRANCH  18  22
ATOM     22  C   UNL     1      -1.414  -2.061  -0.092  0.00  0.00    +0.105 C 
BRANCH  22  23
ATOM     23  C   UNL     1      -1.431  -0.537   0.043  0.00  0.00    +0.022 C 
BRANCH  23  25
ATOM     24  C   UNL     1      -0.015   1.521   0.054  0.00  0.00    +0.007 C 
ATOM     25  C   UNL     1       0.005  -0.009   0.044  0.00  0.00    -0.016 C 
ATOM     26  C   UNL     1       0.734  -0.517   1.289  0.00  0.00    +0.007 C 
ENDBRANCH  23  25
ENDBRANCH  22  23
ENDBRANCH  18  22
ENDBRANCH   1  19
TORSDOF 5
