REMARK  Name = ZINC45141208
REMARK  8 active torsions:
REMARK  status: ('A' for Active; 'I' for Inactive)
REMARK    1  A    between atoms: C_1  and  C_2
REMARK    2  A    between atoms: C_2  and  C_21
REMARK    3  A    between atoms: C_4  and  N_6
REMARK    4  A    between atoms: N_6  and  S_7
REMARK    5  A    between atoms: S_7  and  C_10
REMARK    6  A    between atoms: C_13  and  C_17
REMARK    7  A    between atoms: C_18  and  C_19
REMARK    8  A    between atoms: C_19  and  N_20
REMARK                            x       y       z     vdW  Elec       q    Type
REMARK                         _______ _______ _______ _____ _____    ______ ____
ROOT
ATOM      1  C   UNL     1       3.937  -0.294   1.546  0.00  0.00    +0.124 A 
ATOM      2  C   UNL     1       5.055   0.507   1.695  0.00  0.00    +0.031 A 
ATOM      3  C   UNL     1       5.995   0.578   0.688  0.00  0.00    +0.019 A 
ATOM      4  C   UNL     1       5.817  -0.159  -0.483  0.00  0.00    +0.026 A 
ATOM      5  C   UNL     1       4.687  -0.965  -0.628  0.00  0.00    +0.038 A 
ATOM      6  C   UNL     1       3.756  -1.033   0.390  0.00  0.00    +0.068 A 
ATOM      7 CL   UNL     1       2.353  -2.040   0.215  0.00  0.00    -0.081 Cl
ENDROOT
BRANCH   1   8
ATOM      8  S   UNL     1       2.741  -0.379   2.838  0.00  0.00    +0.060 S 
ATOM      9  O   UNL     1       3.181   0.507   3.858  0.00  0.00    -0.153 OA
ATOM     10  O   UNL     1       2.501  -1.759   3.078  0.00  0.00    -0.153 OA
BRANCH   8  11
ATOM     11  N   UNL     1       1.330   0.250   2.241  0.00  0.00    -0.186 NA
ATOM     12  H   UNL     1       0.546  -0.314   2.155  0.00  0.00    +0.148 HD
BRANCH  11  16
ATOM     13  C   UNL     1      -1.190   1.624   2.741  0.00  0.00    +0.012 C 
ATOM     14  C   UNL     1      -0.044   2.406   2.094  0.00  0.00    -0.016 C 
ATOM     15  C   UNL     1       0.356   2.021   0.668  0.00  0.00    +0.029 C 
ATOM     16  C   UNL     1       1.267   1.659   1.843  0.00  0.00    +0.083 C 
ATOM     17  C   UNL     1       0.047   3.883   2.479  0.00  0.00    +0.012 C 
ENDBRANCH  11  16
ENDBRANCH   8  11
ENDBRANCH   1   8
BRANCH   4  18
ATOM     18  C   UNL     1       6.789  -0.089  -1.533  0.00  0.00    -0.068 C 
ATOM     19  C   UNL     1       7.586  -0.032  -2.393  0.00  0.00    -0.117 C 
BRANCH  19  20
ATOM     20  C   UNL     1       8.585   0.041  -3.471  0.00  0.00    +0.005 C 
BRANCH  20  21
ATOM     21  N   UNL     1       8.167  -0.821  -4.585  0.00  0.00    +0.385 N 
ATOM     22  H   UNL     1       8.089  -1.774  -4.262  0.00  0.00    -0.089 HD
ATOM     23  H   UNL     1       7.273  -0.510  -4.934  0.00  0.00    -0.089 HD
ATOM     24  H   UNL     1       8.852  -0.772  -5.324  0.00  0.00    -0.089 HD
ENDBRANCH  20  21
ENDBRANCH  19  20
ENDBRANCH   4  18
TORSDOF 6
