REMARK  Name = ZINC36674840
REMARK  12 active torsions:
REMARK  status: ('A' for Active; 'I' for Inactive)
REMARK    1  A    between atoms: C_1  and  C_2
REMARK    2  A    between atoms: N_11  and  C_15
REMARK    3  A    between atoms: C_15  and  C_16
REMARK    4  A    between atoms: N_18  and  C_19
REMARK    5  A    between atoms: C_19  and  C_20
REMARK    6  A    between atoms: C_20  and  N_21
REMARK    7  A    between atoms: N_21  and  C_22
REMARK    8  A    between atoms: N_21  and  C_25
REMARK    9  A    between atoms: C_22  and  C_23
REMARK   10  A    between atoms: C_22  and  C_24
REMARK   11  A    between atoms: C_25  and  C_26
REMARK   12  A    between atoms: C_25  and  C_27
REMARK                            x       y       z     vdW  Elec       q    Type
REMARK                         _______ _______ _______ _____ _____    ______ ____
ROOT
ATOM      1  C   UNL     1       5.035   4.571   6.267  0.00  0.00    +0.213 C 
ENDROOT
BRANCH   1  11
ATOM      2  C   UNL     1       0.708   3.518   6.097  0.00  0.00    +0.010 C 
ATOM      3  C   UNL     1       0.998   2.296   6.971  0.00  0.00    +0.018 C 
ATOM      4  C   UNL     1      -0.133   2.116   7.988  0.00  0.00    +0.006 C 
ATOM      5  C   UNL     1       0.168   0.906   8.875  0.00  0.00    +0.000 C 
ATOM      6  C   UNL     1       1.483   1.134   9.623  0.00  0.00    +0.003 C 
ATOM      7  C   UNL     1       2.619   1.311   8.613  0.00  0.00    +0.035 C 
ATOM      8  C   UNL     1       2.317   2.500   7.708  0.00  0.00    +0.115 C 
ATOM      9  C   UNL     1       3.443   2.715   6.724  0.00  0.00    +0.247 C 
ATOM     10  O   UNL     1       3.833   1.943   5.875  0.00  0.00    -0.273 OA
ATOM     11  N   UNL     1       3.924   3.947   6.990  0.00  0.00    -0.215 N 
ATOM     12  C   UNL     1       3.259   4.529   7.995  0.00  0.00    +0.310 C 
ATOM     13  O   UNL     1       3.509   5.642   8.416  0.00  0.00    -0.252 OA
ATOM     14  N   UNL     1       2.283   3.744   8.489  0.00  0.00    -0.285 N 
ATOM     15  H   UNL     1       1.677   3.958   9.215  0.00  0.00    +0.151 HD
ENDBRANCH   1  11
BRANCH   1  16
ATOM     16  C   UNL     1       4.498   5.343   5.089  0.00  0.00    +0.231 C 
ATOM     17  O   UNL     1       3.304   5.369   4.875  0.00  0.00    -0.274 OA
ATOM     18  N   UNL     1       5.344   6.004   4.274  0.00  0.00    -0.316 N 
ATOM     19  H   UNL     1       6.298   5.983   4.446  0.00  0.00    +0.149 HD
BRANCH  18  20
ATOM     20  C   UNL     1       4.822   6.754   3.129  0.00  0.00    +0.086 C 
BRANCH  20  21
ATOM     21  C   UNL     1       5.982   7.406   2.375  0.00  0.00    -0.059 C 
BRANCH  21  22
ATOM     22  N   UNL     1       5.453   8.241   1.288  0.00  0.00    +0.384 N 
ATOM     23  H   UNL     1       4.654   8.759   1.621  0.00  0.00    -0.081 HD
BRANCH  22  24
ATOM     24  C   UNL     1       6.491   9.178   0.840  0.00  0.00    -0.074 C 
ATOM     25  C   UNL     1       5.998   9.932  -0.396  0.00  0.00    -0.014 C 
ATOM     26  C   UNL     1       6.796  10.176   1.959  0.00  0.00    -0.014 C 
ENDBRANCH  22  24
BRANCH  22  27
ATOM     27  C   UNL     1       5.048   7.385   0.166  0.00  0.00    -0.074 C 
ATOM     28  C   UNL     1       6.174   6.401  -0.158  0.00  0.00    -0.014 C 
ATOM     29  C   UNL     1       3.786   6.608   0.546  0.00  0.00    -0.014 C 
ENDBRANCH  22  27
ENDBRANCH  21  22
ENDBRANCH  20  21
ENDBRANCH  18  20
ENDBRANCH   1  16
TORSDOF 7
