REMARK  Name = ZINC05640248
REMARK  5 active torsions:
REMARK  status: ('A' for Active; 'I' for Inactive)
REMARK    1  A    between atoms: C_1  and  C_2
REMARK    2  A    between atoms: C_9  and  N_14
REMARK    3  A    between atoms: C_10  and  C_11
REMARK    4  A    between atoms: C_15  and  C_17
REMARK    5  A    between atoms: C_18  and  N_23
REMARK                            x       y       z     vdW  Elec       q    Type
REMARK                         _______ _______ _______ _____ _____    ______ ____
ROOT
ATOM      1  C   UNL     1      -0.019   1.526   0.010  0.00  0.00    +0.008 C 
ATOM      2  C   UNL     1       0.002  -0.004   0.002  0.00  0.00    -0.009 C 
ATOM      3  C   UNL     1       0.742  -0.514   1.242  0.00  0.00    +0.008 C 
ATOM      4  C   UNL     1       0.556  -2.027   1.373  0.00  0.00    +0.037 C 
ATOM      5  C   UNL     1       0.942  -2.684   0.053  0.00  0.00    -0.023 A 
ATOM      6  C   UNL     1       1.009  -1.965  -1.089  0.00  0.00    -0.004 A 
ATOM      7  S   UNL     1       1.485  -3.133  -2.331  0.00  0.00    -0.077 S 
ATOM      8  C   UNL     1       1.593  -4.557  -1.350  0.00  0.00    +0.085 A 
ATOM      9  C   UNL     1       1.259  -4.096  -0.085  0.00  0.00    +0.068 A 
ATOM     10  C   UNL     1       0.736  -0.502  -1.252  0.00  0.00    +0.046 C 
ENDROOT
BRANCH   9  11
ATOM     11  C   UNL     1       1.226  -4.998   1.070  0.00  0.00    +0.244 C 
ATOM     12  O   UNL     1       0.198  -5.582   1.357  0.00  0.00    -0.270 OA
ATOM     13  N   UNL     1       2.335  -5.182   1.814  0.00  0.00    -0.325 N 
ATOM     14  H   UNL     1       3.155  -4.716   1.585  0.00  0.00    +0.145 HD
ATOM     15  H   UNL     1       2.313  -5.779   2.578  0.00  0.00    +0.145 HD
ENDBRANCH   9  11
BRANCH   8  16
ATOM     16  N   UNL     1       1.933  -5.844  -1.736  0.00  0.00    -0.274 N 
ATOM     17  C   UNL     1       2.230  -6.106  -3.024  0.00  0.00    +0.271 C 
ATOM     18  O   UNL     1       2.201  -5.212  -3.848  0.00  0.00    -0.268 OA
ATOM     19  H   UNL     1       1.956  -6.557  -1.078  0.00  0.00    +0.156 HD
BRANCH  17  20
ATOM     20  C   UNL     1       2.591  -7.477  -3.434  0.00  0.00    +0.177 A 
ATOM     21  C   UNL     1       2.927  -7.904  -4.741  0.00  0.00    +0.176 A 
ATOM     22  C   UNL     1       3.181  -9.229  -4.634  0.00  0.00    +0.138 A 
ATOM     23  N   UNL     1       3.007  -9.567  -3.339  0.00  0.00    -0.282 N 
ATOM     24  H   UNL     1       3.124 -10.488  -2.967  0.00  0.00    +0.188 HD
ATOM     25  N   UNL     1       2.668  -8.536  -2.652  0.00  0.00    -0.167 NA
BRANCH  21  26
ATOM     26  N   UNL     1       2.986  -7.077  -5.967  0.00  0.00    +0.060 N 
ATOM     27  O   UNL     1       3.292  -7.585  -7.030  0.00  0.00    -0.126 OA
ATOM     28  O   UNL     1       2.728  -5.887  -5.911  0.00  0.00    -0.126 OA
ENDBRANCH  21  26
ENDBRANCH  17  20
ENDBRANCH   8  16
TORSDOF 4
