REMARK  Name = ZINC33650507
REMARK  9 active torsions:
REMARK  status: ('A' for Active; 'I' for Inactive)
REMARK    1  A    between atoms: C_1  and  C_2
REMARK    2  A    between atoms: C_5  and  C_41
REMARK    3  A    between atoms: C_6  and  C_8
REMARK    4  A    between atoms: N_16  and  C_19
REMARK    5  A    between atoms: C_19  and  C_20
REMARK    6  A    between atoms: C_26  and  C_28
REMARK    7  A    between atoms: C_26  and  C_38
REMARK    8  A    between atoms: C_28  and  C_29
REMARK    9  A    between atoms: C_32  and  N_35
REMARK                            x       y       z     vdW  Elec       q    Type
REMARK                         _______ _______ _______ _____ _____    ______ ____
ROOT
ATOM      1  C   UNL     1      -2.974   1.712  -3.370  0.00  0.00    -0.026 C 
ATOM      2  C   UNL     1      -1.685   1.415  -2.602  0.00  0.00    +0.077 C 
ATOM      3  C   UNL     1      -1.390   2.889  -2.112  0.00  0.00    +0.086 C 
ATOM      4  C   UNL     1      -0.443   2.662  -1.051  0.00  0.00    +0.225 C 
ATOM      5  O   UNL     1       0.500   3.357  -0.740  0.00  0.00    -0.275 OA
ATOM      6  N   UNL     1      -0.844   1.484  -0.470  0.00  0.00    -0.237 N 
ATOM      7  C   UNL     1      -1.756   0.805  -1.227  0.00  0.00    +0.225 C 
ATOM      8  O   UNL     1      -2.477  -0.100  -0.867  0.00  0.00    -0.275 OA
ATOM      9  C   UNL     1      -1.551   3.660  -3.356  0.00  0.00    +0.052 C 
ATOM     10  N   UNL     1      -2.788   3.076  -3.947  0.00  0.00    +0.396 N 
ATOM     11  H   UNL     1      -2.689   3.001  -5.040  0.00  0.00    -0.083 HD
ATOM     12  H   UNL     1      -3.659   3.700  -3.700  0.00  0.00    -0.083 HD
ENDROOT
BRANCH   1  18
ATOM     13  C   UNL     1      -6.059   4.118  -0.250  0.00  0.00    +0.044 C 
ATOM     14  C   UNL     1      -5.630   2.849  -0.940  0.00  0.00    -0.050 A 
ATOM     15  C   UNL     1      -6.320   1.672  -0.715  0.00  0.00    +0.003 A 
ATOM     16  C   UNL     1      -5.927   0.509  -1.349  0.00  0.00    +0.004 A 
ATOM     17  C   UNL     1      -4.844   0.521  -2.208  0.00  0.00    -0.049 A 
ATOM     18  C   UNL     1      -4.154   1.698  -2.434  0.00  0.00    -0.057 A 
ATOM     19  C   UNL     1      -4.544   2.861  -1.796  0.00  0.00    +0.005 A 
ATOM     20  C   UNL     1      -4.415  -0.748  -2.899  0.00  0.00    +0.044 C 
ENDBRANCH   1  18
BRANCH   9  21
ATOM     21  C   UNL     1      -0.384   3.436  -4.283  0.00  0.00    +0.347 C 
ATOM     22  O   UNL     1       0.687   3.101  -3.835  0.00  0.00    -0.248 OA
ATOM     23  O   UNL     1      -0.535   3.607  -5.605  0.00  0.00    -0.248 OA
ENDBRANCH   9  21
BRANCH   6  24
ATOM     24  C   UNL     1      -0.342   1.003   0.820  0.00  0.00    +0.151 C 
BRANCH  24  25
ATOM     25  C   UNL     1      -1.222   1.524   1.927  0.00  0.00    -0.030 A 
ATOM     26  C   UNL     1      -0.931   2.733   2.531  0.00  0.00    +0.005 A 
ATOM     27  C   UNL     1      -1.741   3.213   3.543  0.00  0.00    +0.000 A 
ATOM     28  C   UNL     1      -2.837   2.480   3.957  0.00  0.00    +0.000 A 
ATOM     29  C   UNL     1      -3.126   1.269   3.357  0.00  0.00    +0.000 A 
ATOM     30  C   UNL     1      -2.318   0.791   2.341  0.00  0.00    +0.005 A 
ENDBRANCH  24  25
ENDBRANCH   6  24
BRANCH   9  31
ATOM     31  C   UNL     1      -1.728   5.150  -3.055  0.00  0.00    +0.035 C 
BRANCH  31  32
ATOM     32  C   UNL     1      -2.012   5.891  -4.337  0.00  0.00    -0.048 A 
ATOM     33  C   UNL     1      -0.969   6.407  -5.082  0.00  0.00    +0.006 A 
ATOM     34  C   UNL     1      -1.229   7.083  -6.259  0.00  0.00    +0.033 A 
ATOM     35  C   UNL     1      -2.532   7.250  -6.687  0.00  0.00    +0.126 A 
ATOM     36  C   UNL     1      -3.576   6.738  -5.939  0.00  0.00    +0.033 A 
ATOM     37  C   UNL     1      -3.316   6.058  -4.764  0.00  0.00    +0.006 A 
BRANCH  35  38
ATOM     38  N   UNL     1      -2.811   7.977  -7.946  0.00  0.00    +0.056 N 
ATOM     39  O   UNL     1      -3.960   8.124  -8.323  0.00  0.00    -0.126 OA
ATOM     40  O   UNL     1      -1.891   8.428  -8.605  0.00  0.00    -0.126 OA
ENDBRANCH  35  38
ENDBRANCH  31  32
ENDBRANCH   9  31
TORSDOF 7
