REMARK  Name = ZINC38732935
REMARK  4 active torsions:
REMARK  status: ('A' for Active; 'I' for Inactive)
REMARK    1  A    between atoms: C_13  and  C_15
REMARK    2  A    between atoms: C_21  and  C_23
REMARK    3  A    between atoms: N_25  and  N_26
REMARK    4  A    between atoms: N_26  and  C_27
REMARK                            x       y       z     vdW  Elec       q    Type
REMARK                         _______ _______ _______ _____ _____    ______ ____
ROOT
ATOM      1  C   UNL     1      -0.419  -6.810   1.005  0.00  0.00    +0.091 C 
ATOM      2  C   UNL     1      -1.313  -6.952  -0.229  0.00  0.00    +0.040 C 
ATOM      3  C   UNL     1      -2.168  -8.180  -0.109  0.00  0.00    -0.030 C 
ATOM      4  C   UNL     1      -1.934  -9.149   0.717  0.00  0.00    -0.030 C 
ATOM      5  C   UNL     1      -0.780  -9.176   1.676  0.00  0.00    +0.040 C 
ATOM      6  C   UNL     1       0.278  -8.152   1.262  0.00  0.00    +0.092 C 
ENDROOT
BRANCH   1  19
ATOM      7  C   UNL     1      -1.795   0.904   3.091  0.00  0.00    +0.005 A 
ATOM      8  C   UNL     1      -0.801   1.852   2.881  0.00  0.00    +0.018 A 
ATOM      9  C   UNL     1       0.461   1.436   2.507  0.00  0.00    +0.084 A 
ATOM     10  N   UNL     1       0.733   0.154   2.349  0.00  0.00    -0.350 N 
ATOM     11  C   UNL     1      -0.187  -0.779   2.540  0.00  0.00    +0.099 A 
ATOM     12  C   UNL     1      -1.480  -0.431   2.918  0.00  0.00    +0.042 A 
ATOM     13  N   UNL     1       0.142  -2.117   2.362  0.00  0.00    -0.314 N 
ATOM     14  C   UNL     1      -0.822  -3.175   2.694  0.00  0.00    +0.125 C 
ATOM     15  C   UNL     1      -1.024  -4.060   1.458  0.00  0.00    +0.126 C 
ATOM     16  N   UNL     1       0.295  -4.442   0.933  0.00  0.00    -0.298 N 
ATOM     17  C   UNL     1       1.259  -3.384   0.602  0.00  0.00    +0.126 C 
ATOM     18  C   UNL     1       1.459  -2.499   1.833  0.00  0.00    +0.125 C 
ATOM     19  C   UNL     1       0.614  -5.740   0.761  0.00  0.00    +0.220 C 
ATOM     20  O   UNL     1       1.734  -6.048   0.409  0.00  0.00    -0.275 OA
ATOM     21  H   UNL     1       1.628  -0.111   2.086  0.00  0.00    +0.166 HD
ENDBRANCH   1  19
BRANCH   6  22
ATOM     22  C   UNL     1       0.962  -8.617   0.002  0.00  0.00    +0.233 C 
ATOM     23  O   UNL     1       0.311  -9.111  -0.894  0.00  0.00    -0.274 OA
ATOM     24  N   UNL     1       2.296  -8.483  -0.129  0.00  0.00    -0.236 N 
ATOM     25  H   UNL     1       2.817  -8.088   0.588  0.00  0.00    +0.173 HD
BRANCH  24  26
ATOM     26  N   UNL     1       2.932  -8.916  -1.300  0.00  0.00    -0.264 N 
ATOM     27  H   UNL     1       2.411  -9.312  -2.017  0.00  0.00    +0.170 HD
BRANCH  26  28
ATOM     28  C   UNL     1       4.315  -8.778  -1.436  0.00  0.00    +0.046 A 
ATOM     29  C   UNL     1       5.063  -8.217  -0.408  0.00  0.00    +0.024 A 
ATOM     30  C   UNL     1       6.430  -8.081  -0.545  0.00  0.00    +0.003 A 
ATOM     31  C   UNL     1       7.056  -8.503  -1.704  0.00  0.00    +0.020 A 
ATOM     32  C   UNL     1       6.315  -9.062  -2.730  0.00  0.00    +0.043 A 
ATOM     33  C   UNL     1       4.947  -9.206  -2.596  0.00  0.00    +0.044 A 
ATOM     34 CL   UNL     1       7.105  -9.590  -4.183  0.00  0.00    -0.083 Cl
ENDBRANCH  26  28
ENDBRANCH  24  26
ENDBRANCH   6  22
TORSDOF 4
