REMARK  Name = ZINC58157216
REMARK  12 active torsions:
REMARK  status: ('A' for Active; 'I' for Inactive)
REMARK    1  A    between atoms: C_1  and  C_2
REMARK    2  A    between atoms: C_2  and  C_3
REMARK    3  A    between atoms: C_3  and  N_4
REMARK    4  A    between atoms: C_5  and  N_33
REMARK    5  A    between atoms: C_6  and  C_13
REMARK    6  A    between atoms: C_13  and  C_15
REMARK    7  A    between atoms: C_15  and  N_16
REMARK    8  A    between atoms: N_16  and  C_17
REMARK    9  A    between atoms: C_17  and  C_19
REMARK   10  A    between atoms: C_17  and  C_25
REMARK   11  A    between atoms: C_28  and  O_31
REMARK   12  A    between atoms: O_31  and  C_32
REMARK                            x       y       z     vdW  Elec       q    Type
REMARK                         _______ _______ _______ _____ _____    ______ ____
ROOT
ATOM      1  C   UNL     1      -1.506  -6.094  -2.602  0.00  0.00    +0.162 C 
ENDROOT
BRANCH   1   2
ATOM      2  C   UNL     1      -1.407  -4.594  -2.506  0.00  0.00    +0.185 C 
ATOM      3  O   UNL     1      -1.333  -3.924  -3.517  0.00  0.00    -0.290 OA
BRANCH   2   6
ATOM      4  N   UNL     1      -1.425  -2.005   0.118  0.00  0.00    -0.281 N 
ATOM      5  C   UNL     1      -1.432  -2.566  -1.127  0.00  0.00    +0.116 A 
ATOM      6  C   UNL     1      -1.401  -3.966  -1.242  0.00  0.00    +0.121 A 
ATOM      7  C   UNL     1      -1.361  -4.756  -0.004  0.00  0.00    +0.266 A 
ATOM      8  O   UNL     1      -1.332  -5.972  -0.044  0.00  0.00    -0.267 OA
ATOM      9  N   UNL     1      -1.357  -4.105   1.177  0.00  0.00    -0.274 N 
ATOM     10  H   UNL     1      -1.331  -4.612   2.003  0.00  0.00    +0.173 HD
ATOM     11  C   UNL     1      -1.383  -2.763   1.224  0.00  0.00    +0.331 A 
ATOM     12  O   UNL     1      -1.374  -2.215   2.309  0.00  0.00    -0.246 OA
BRANCH   5  13
ATOM     13  N   UNL     1      -1.470  -1.782  -2.239  0.00  0.00    -0.344 N 
ATOM     14  H   UNL     1      -1.571  -0.821  -2.151  0.00  0.00    +0.144 HD
ATOM     15  H   UNL     1      -1.395  -2.183  -3.118  0.00  0.00    +0.144 HD
ENDBRANCH   5  13
BRANCH   4  16
ATOM     16  C   UNL     1      -1.457  -0.546   0.248  0.00  0.00    +0.128 C 
BRANCH  16  18
ATOM     17  C   UNL     1      -0.060   1.520   0.399  0.00  0.00    +0.005 C 
ATOM     18  C   UNL     1      -0.026  -0.003   0.263  0.00  0.00    +0.018 C 
ENDBRANCH  16  18
ENDBRANCH   4  16
ENDBRANCH   2   6
ENDBRANCH   1   2
BRANCH   1  19
ATOM     19  N   UNL     1      -1.493  -6.497  -4.015  0.00  0.00    -0.299 NA
ATOM     20  H   UNL     1      -2.231  -6.038  -4.528  0.00  0.00    +0.123 HD
BRANCH  19  21
ATOM     21  C   UNL     1      -1.587  -7.957  -4.147  0.00  0.00    +0.115 C 
BRANCH  21  22
ATOM     22  C   UNL     1      -3.036  -8.371  -4.109  0.00  0.00    -0.026 A 
ATOM     23  C   UNL     1      -3.989  -7.615  -4.766  0.00  0.00    +0.005 A 
ATOM     24  C   UNL     1      -5.317  -7.996  -4.731  0.00  0.00    +0.000 A 
ATOM     25  C   UNL     1      -5.693  -9.133  -4.040  0.00  0.00    +0.000 A 
ATOM     26  C   UNL     1      -4.740  -9.889  -3.385  0.00  0.00    +0.000 A 
ATOM     27  C   UNL     1      -3.410  -9.511  -3.423  0.00  0.00    +0.005 A 
ENDBRANCH  21  22
BRANCH  21  28
ATOM     28  C   UNL     1      -0.977  -8.383  -5.458  0.00  0.00    -0.026 A 
ATOM     29  C   UNL     1      -1.183  -7.623  -6.595  0.00  0.00    +0.009 A 
ATOM     30  C   UNL     1      -0.625  -8.012  -7.797  0.00  0.00    +0.046 A 
ATOM     31  C   UNL     1       0.143  -9.165  -7.863  0.00  0.00    +0.120 A 
ATOM     32  C   UNL     1       0.349  -9.925  -6.721  0.00  0.00    +0.046 A 
ATOM     33  C   UNL     1      -0.207  -9.529  -5.519  0.00  0.00    +0.009 A 
BRANCH  31  34
ATOM     34  O   UNL     1       0.693  -9.550  -9.045  0.00  0.00    -0.495 OA
ATOM     35  C   UNL     1       1.473 -10.748  -9.038  0.00  0.00    +0.277 C 
ENDBRANCH  31  34
ENDBRANCH  21  28
ENDBRANCH  19  21
ENDBRANCH   1  19
TORSDOF 10
