REMARK  Name = ZINC26843960
REMARK  7 active torsions:
REMARK  status: ('A' for Active; 'I' for Inactive)
REMARK    1  A    between atoms: C_1  and  C_2
REMARK    2  A    between atoms: C_5  and  S_10
REMARK    3  A    between atoms: C_6  and  C_9
REMARK    4  A    between atoms: C_7  and  C_8
REMARK    5  A    between atoms: S_10  and  N_13
REMARK    6  A    between atoms: N_13  and  C_14
REMARK    7  A    between atoms: C_19  and  C_20
REMARK                            x       y       z     vdW  Elec       q    Type
REMARK                         _______ _______ _______ _____ _____    ______ ____
ROOT
ATOM      1  S   UNL     1      -2.841   0.704   0.051  0.00  0.00    +0.073 S 
ATOM      2  O   UNL     1      -3.664   1.056  -1.053  0.00  0.00    -0.150 OA
ATOM      3  O   UNL     1      -2.455  -0.637   0.316  0.00  0.00    -0.150 OA
ENDROOT
BRANCH   1   8
ATOM      4  C   UNL     1       2.256   3.881  -0.531  0.00  0.00    +0.044 C 
ATOM      5  C   UNL     1       0.983   3.088  -0.383  0.00  0.00    -0.047 A 
ATOM      6  C   UNL     1       1.040   1.724  -0.165  0.00  0.00    +0.005 A 
ATOM      7  C   UNL     1      -0.128   0.997  -0.029  0.00  0.00    +0.029 A 
ATOM      8  C   UNL     1      -1.353   1.632  -0.116  0.00  0.00    +0.112 A 
ATOM      9  C   UNL     1      -1.409   2.997  -0.328  0.00  0.00    -0.021 A 
ATOM     10  C   UNL     1      -0.241   3.724  -0.464  0.00  0.00    -0.043 A 
ATOM     11  C   UNL     1      -0.303   5.211  -0.700  0.00  0.00    +0.044 C 
ATOM     12  C   UNL     1      -2.744   3.691  -0.416  0.00  0.00    +0.046 C 
ENDBRANCH   1   8
BRANCH   1  13
ATOM     13  N   UNL     1      -3.611   1.253   1.410  0.00  0.00    -0.216 N 
ATOM     14  H   UNL     1      -4.558   1.806   1.320  0.00  0.00    +0.174 HD
BRANCH  13  15
ATOM     15  C   UNL     1      -3.059   1.014   2.670  0.00  0.00    +0.052 A 
ATOM     16  C   UNL     1      -1.680   1.024   2.839  0.00  0.00    +0.025 A 
ATOM     17  C   UNL     1      -1.136   0.788   4.086  0.00  0.00    +0.003 A 
ATOM     18  C   UNL     1      -1.963   0.541   5.167  0.00  0.00    +0.020 A 
ATOM     19  C   UNL     1      -3.337   0.530   5.003  0.00  0.00    +0.046 A 
ATOM     20  C   UNL     1      -3.887   0.772   3.758  0.00  0.00    -0.010 A 
ATOM     21  C   UNL     1      -5.383   0.766   3.581  0.00  0.00    +0.047 C 
ATOM     22 CL   UNL     1      -4.370   0.221   6.363  0.00  0.00    -0.083 Cl
ENDBRANCH  13  15
ENDBRANCH   1  13
TORSDOF 3
