REMARK  Name = ZINC12526489
REMARK  9 active torsions:
REMARK  status: ('A' for Active; 'I' for Inactive)
REMARK    1  A    between atoms: C_1  and  C_2
REMARK    2  A    between atoms: C_5  and  C_8
REMARK    3  A    between atoms: C_9  and  C_37
REMARK    4  A    between atoms: C_17  and  C_19
REMARK    5  A    between atoms: C_19  and  N_20
REMARK    6  A    between atoms: N_20  and  C_21
REMARK    7  A    between atoms: C_26  and  C_27
REMARK    8  A    between atoms: N_29  and  C_30
REMARK    9  A    between atoms: C_30  and  C_31
REMARK                            x       y       z     vdW  Elec       q    Type
REMARK                         _______ _______ _______ _____ _____    ______ ____
ROOT
ATOM      1  C   UNL     1      -7.597  -4.098  -7.386  0.00  0.00    +0.007 A 
ATOM      2  C   UNL     1      -6.250  -4.244  -7.424  0.00  0.00    -0.003 A 
ATOM      3  S   UNL     1      -5.685  -3.209  -6.087  0.00  0.00    -0.073 S 
ATOM      4  C   UNL     1      -7.254  -2.610  -5.514  0.00  0.00    +0.116 A 
ATOM      5  C   UNL     1      -8.179  -3.226  -6.372  0.00  0.00    +0.080 A 
ATOM      6  C   UNL     1      -9.555  -2.912  -6.130  0.00  0.00    +0.260 A 
ATOM      7  O   UNL     1     -10.432  -3.398  -6.822  0.00  0.00    -0.267 OA
ATOM      8  N   UNL     1      -9.864  -2.075  -5.122  0.00  0.00    -0.309 N 
ATOM      9  H   UNL     1     -10.795  -1.862  -4.950  0.00  0.00    +0.170 HD
ATOM     10  C   UNL     1      -8.900  -1.521  -4.344  0.00  0.00    +0.128 A 
ATOM     11  N   UNL     1      -7.637  -1.788  -4.540  0.00  0.00    -0.225 NA
ATOM     12  C   UNL     1      -5.428  -5.081  -8.369  0.00  0.00    +0.052 C 
ENDROOT
BRANCH   1  17
ATOM     13  C   UNL     1     -10.957  -6.863 -11.156  0.00  0.00    +0.044 C 
ATOM     14  C   UNL     1     -10.078  -6.139 -10.169  0.00  0.00    -0.050 A 
ATOM     15  C   UNL     1      -9.337  -6.859  -9.249  0.00  0.00    +0.004 A 
ATOM     16  C   UNL     1      -8.530  -6.202  -8.343  0.00  0.00    +0.009 A 
ATOM     17  C   UNL     1      -8.462  -4.810  -8.357  0.00  0.00    -0.016 A 
ATOM     18  C   UNL     1      -9.215  -4.089  -9.283  0.00  0.00    +0.009 A 
ATOM     19  C   UNL     1     -10.015  -4.758 -10.187  0.00  0.00    +0.004 A 
ENDBRANCH   1  17
BRANCH  10  20
ATOM     20  C   UNL     1      -9.294  -0.585  -3.230  0.00  0.00    +0.176 C 
BRANCH  20  21
ATOM     21  N   UNL     1      -8.091  -0.123  -2.532  0.00  0.00    -0.336 N 
ATOM     22  H   UNL     1      -7.217  -0.429  -2.818  0.00  0.00    +0.147 HD
BRANCH  21  23
ATOM     23  C   UNL     1      -8.204   0.754  -1.461  0.00  0.00    +0.040 A 
ATOM     24  C   UNL     1      -9.457   1.104  -0.974  0.00  0.00    +0.024 A 
ATOM     25  C   UNL     1      -9.566   1.975   0.091  0.00  0.00    +0.002 A 
ATOM     26  C   UNL     1      -8.431   2.507   0.682  0.00  0.00    +0.001 A 
ATOM     27  C   UNL     1      -7.180   2.167   0.216  0.00  0.00    +0.015 A 
ATOM     28  C   UNL     1      -7.053   1.291  -0.865  0.00  0.00    +0.057 A 
BRANCH  28  29
ATOM     29  C   UNL     1      -5.717   0.927  -1.371  0.00  0.00    +0.246 C 
ATOM     30  O   UNL     1      -5.605   0.084  -2.240  0.00  0.00    -0.270 OA
ATOM     31  N   UNL     1      -4.619   1.530  -0.872  0.00  0.00    -0.309 N 
ATOM     32  H   UNL     1      -4.709   2.203  -0.179  0.00  0.00    +0.149 HD
BRANCH  31  33
ATOM     33  C   UNL     1      -3.292   1.169  -1.375  0.00  0.00    +0.136 C 
BRANCH  33  34
ATOM     34  C   UNL     1      -2.228   1.993  -0.647  0.00  0.00    +0.135 C 
ATOM     35  C   UNL     1      -0.841   1.712  -1.255  0.00  0.00    +0.035 C 
ATOM     36  C   UNL     1      -0.004   1.186  -0.064  0.00  0.00    +0.031 C 
ATOM     37  C   UNL     1      -0.796   1.725   1.154  0.00  0.00    +0.160 C 
ATOM     38  O   UNL     1      -2.174   1.607   0.737  0.00  0.00    -0.375 OA
ENDBRANCH  33  34
ENDBRANCH  31  33
ENDBRANCH  28  29
ENDBRANCH  21  23
ENDBRANCH  20  21
ENDBRANCH  10  20
TORSDOF 7
