REMARK  Name = ZINC53898998
REMARK  3 active torsions:
REMARK  status: ('A' for Active; 'I' for Inactive)
REMARK    1  A    between atoms: C_3  and  C_8
REMARK    2  A    between atoms: C_14  and  S_21
REMARK    3  A    between atoms: S_21  and  N_24
REMARK                            x       y       z     vdW  Elec       q    Type
REMARK                         _______ _______ _______ _____ _____    ______ ____
ROOT
ATOM      1  C   UNL     1       3.672   2.184  -0.021  0.00  0.00    +0.191 C 
ATOM      2  N   UNL     1       3.491   3.451   0.682  0.00  0.00    -0.322 N 
ATOM      3  C   UNL     1       3.303   3.543   2.058  0.00  0.00    +0.057 A 
ATOM      4  C   UNL     1       2.696   4.684   2.579  0.00  0.00    +0.047 A 
ATOM      5  C   UNL     1       2.511   4.813   3.941  0.00  0.00    +0.069 A 
ATOM      6  C   UNL     1       2.926   3.809   4.799  0.00  0.00    +0.125 A 
ATOM      7  C   UNL     1       3.523   2.671   4.288  0.00  0.00    +0.060 A 
ATOM      8  C   UNL     1       3.702   2.536   2.927  0.00  0.00    +0.128 A 
ATOM      9  S   UNL     1       4.429   1.062   2.277  0.00  0.00    +0.062 S 
ATOM     10  O   UNL     1       5.696   0.912   2.904  0.00  0.00    -0.153 OA
ATOM     11  O   UNL     1       3.429   0.054   2.315  0.00  0.00    -0.153 OA
ATOM     12  N   UNL     1       4.719   1.403   0.667  0.00  0.00    -0.166 NA
ATOM     13 CL   UNL     1       1.753   6.238   4.580  0.00  0.00    -0.081 Cl
ATOM     14  H   UNL     1       3.502   4.271   0.164  0.00  0.00    +0.148 HD
ATOM     15  H   UNL     1       5.524   1.109   0.213  0.00  0.00    +0.150 HD
ENDROOT
BRANCH   1  18
ATOM     16  C   UNL     1      -0.017   1.378   0.010  0.00  0.00    +0.002 A 
ATOM     17  C   UNL     1       1.171   2.086   0.002  0.00  0.00    +0.007 A 
ATOM     18  C   UNL     1       2.378   1.412  -0.013  0.00  0.00    -0.010 A 
ATOM     19  C   UNL     1       2.398   0.029  -0.021  0.00  0.00    +0.026 A 
ATOM     20  C   UNL     1       1.210  -0.679  -0.013  0.00  0.00    +0.041 A 
ATOM     21  C   UNL     1       0.002  -0.004   0.002  0.00  0.00    +0.020 A 
ATOM     22 CL   UNL     1       1.234  -2.415  -0.024  0.00  0.00    -0.084 Cl
ENDBRANCH   1  18
BRANCH   6  23
ATOM     23  S   UNL     1       2.696   3.982   6.537  0.00  0.00    +0.057 S 
ATOM     24  O   UNL     1       1.345   4.376   6.731  0.00  0.00    -0.153 OA
ATOM     25  O   UNL     1       3.243   2.815   7.137  0.00  0.00    -0.153 OA
BRANCH  23  26
ATOM     26  N   UNL     1       3.636   5.253   7.032  0.00  0.00    -0.203 NA
ATOM     27  H   UNL     1       4.173   5.738   6.386  0.00  0.00    +0.144 HD
ATOM     28  H   UNL     1       3.649   5.512   7.966  0.00  0.00    +0.144 HD
ENDBRANCH  23  26
ENDBRANCH   6  23
TORSDOF 3
