REMARK  Name = ZINC15203535
REMARK  9 active torsions:
REMARK  status: ('A' for Active; 'I' for Inactive)
REMARK    1  A    between atoms: C_1  and  C_2
REMARK    2  A    between atoms: C_2  and  C_33
REMARK    3  A    between atoms: C_3  and  C_4
REMARK    4  A    between atoms: C_4  and  C_5
REMARK    5  A    between atoms: C_8  and  O_26
REMARK    6  A    between atoms: C_14  and  O_25
REMARK    7  A    between atoms: C_20  and  O_24
REMARK    8  A    between atoms: C_29  and  C_31
REMARK    9  A    between atoms: C_29  and  C_32
REMARK                            x       y       z     vdW  Elec       q    Type
REMARK                         _______ _______ _______ _____ _____    ______ ____
ROOT
ATOM      1  C   UNL     1       3.622   3.567  -3.943  0.00  0.00    +0.041 A 
ATOM      2  C   UNL     1       4.718   3.108  -4.652  0.00  0.00    +0.139 A 
ATOM      3  C   UNL     1       5.651   2.252  -4.042  0.00  0.00    +0.059 A 
ATOM      4  C   UNL     1       5.496   1.886  -2.707  0.00  0.00    +0.142 A 
ATOM      5  C   UNL     1       4.405   2.391  -1.986  0.00  0.00    +0.105 A 
ATOM      6  C   UNL     1       3.442   3.201  -2.617  0.00  0.00    +0.146 A 
ATOM      7  O   UNL     1       2.353   3.618  -1.947  0.00  0.00    -0.449 OA
ATOM      8  C   UNL     1       2.313   3.708  -0.526  0.00  0.00    +0.408 C 
ATOM      9  C   UNL     1       2.980   2.484   0.144  0.00  0.00    +0.231 C 
ATOM     10  C   UNL     1       4.255   2.114  -0.557  0.00  0.00    +0.214 C 
ATOM     11  O   UNL     1       5.160   1.597   0.065  0.00  0.00    -0.288 OA
ATOM     12  C   UNL     1       1.912   1.444   0.032  0.00  0.00    +0.041 A 
ATOM     13  C   UNL     1       1.963   0.068   0.082  0.00  0.00    +0.014 A 
ATOM     14  C   UNL     1       0.762  -0.616  -0.060  0.00  0.00    +0.046 A 
ATOM     15  C   UNL     1      -0.433   0.059  -0.243  0.00  0.00    +0.120 A 
ATOM     16  C   UNL     1      -0.490   1.448  -0.294  0.00  0.00    +0.091 A 
ATOM     17  C   UNL     1       0.708   2.144  -0.153  0.00  0.00    +0.135 A 
ATOM     18  O   UNL     1       0.919   3.479  -0.164  0.00  0.00    -0.450 OA
ATOM     19  C   UNL     1       6.789   1.761  -4.847  0.00  0.00    +0.015 C 
ATOM     20  C   UNL     1       7.080   2.406  -5.976  0.00  0.00    +0.020 C 
ATOM     21  C   UNL     1       6.264   3.603  -6.388  0.00  0.00    +0.124 C 
ATOM     22  O   UNL     1       4.913   3.465  -5.946  0.00  0.00    -0.481 OA
ATOM     23  C   UNL     1       6.286   3.728  -7.912  0.00  0.00    +0.060 C 
ATOM     24  C   UNL     1       6.871   4.863  -5.769  0.00  0.00    +0.060 C 
ENDROOT
BRANCH  15  25
ATOM     25  O   UNL     1      -1.582  -0.654  -0.376  0.00  0.00    -0.507 OA
ATOM     26  H   UNL     1      -1.796  -0.888  -1.290  0.00  0.00    +0.292 HD
ENDBRANCH  15  25
BRANCH   9  27
ATOM     27  O   UNL     1       3.233   2.768   1.522  0.00  0.00    -0.370 OA
ATOM     28  H   UNL     1       3.549   2.008   2.029  0.00  0.00    +0.211 HD
ENDBRANCH   9  27
BRANCH   4  29
ATOM     29  O   UNL     1       6.387   1.054  -2.115  0.00  0.00    -0.505 OA
ATOM     30  H   UNL     1       7.131   1.508  -1.696  0.00  0.00    +0.292 HD
ENDBRANCH   4  29
BRANCH   1  31
ATOM     31  C   UNL     1       2.619   4.470  -4.615  0.00  0.00    +0.069 C 
BRANCH  31  34
ATOM     32  C   UNL     1       2.687   6.231  -6.819  0.00  0.00    +0.038 C 
ATOM     33  C   UNL     1       3.136   6.701  -5.460  0.00  0.00    -0.079 C 
ATOM     34  C   UNL     1       3.029   5.907  -4.423  0.00  0.00    -0.023 C 
ATOM     35  C   UNL     1       3.709   8.085  -5.293  0.00  0.00    +0.038 C 
ENDBRANCH  31  34
ENDBRANCH   1  31
TORSDOF 5
