REMARK  Name = ZINC07077896
REMARK  6 active torsions:
REMARK  status: ('A' for Active; 'I' for Inactive)
REMARK    1  A    between atoms: C_1  and  C_2
REMARK    2  A    between atoms: C_4  and  C_8
REMARK    3  A    between atoms: N_6  and  C_7
REMARK    4  A    between atoms: C_11  and  C_16
REMARK    5  A    between atoms: C_11  and  O_20
REMARK    6  A    between atoms: C_13  and  C_15
REMARK                            x       y       z     vdW  Elec       q    Type
REMARK                         _______ _______ _______ _____ _____    ______ ____
ROOT
ATOM      1  C   UNL     1      -1.093   2.672   4.699  0.00  0.00    +0.290 C 
ATOM      2  O   UNL     1      -0.009   2.664   5.251  0.00  0.00    -0.266 OA
ATOM      3  N   UNL     1      -2.193   3.052   5.379  0.00  0.00    -0.147 N 
ATOM      4  C   UNL     1      -2.225   3.482   6.787  0.00  0.00    +0.257 C 
ATOM      5  C   UNL     1      -3.717   3.792   7.028  0.00  0.00    +0.118 C 
ATOM      6  C   UNL     1      -4.367   3.495   5.695  0.00  0.00    +0.039 C 
ATOM      7  N   UNL     1      -3.486   3.111   4.864  0.00  0.00    -0.183 NA
ATOM      8  C   UNL     1      -5.836   3.641   5.396  0.00  0.00    +0.062 C 
ENDROOT
BRANCH   1  12
ATOM      9  C   UNL     1      -0.013   1.086   0.008  0.00  0.00    +0.066 C 
ATOM     10  C   UNL     1      -0.718   1.572   1.248  0.00  0.00    +0.051 A 
ATOM     11  C   UNL     1      -0.146   1.842   2.445  0.00  0.00    +0.071 A 
ATOM     12  C   UNL     1      -1.204   2.264   3.285  0.00  0.00    +0.163 A 
ATOM     13  N   UNL     1      -2.308   2.223   2.566  0.00  0.00    -0.165 NA
ATOM     14  N   UNL     1      -2.044   1.827   1.372  0.00  0.00    -0.270 N 
ATOM     15  C   UNL     1      -3.033   1.669   0.303  0.00  0.00    +0.172 C 
ATOM     16 BR   UNL     1       1.683   1.687   2.900  0.00  0.00    -0.046 Br
ENDBRANCH   1  12
BRANCH   4  17
ATOM     17  C   UNL     1      -1.750   2.354   7.706  0.00  0.00    +0.438 C 
ATOM     18  F   UNL     1      -0.428   2.023   7.393  0.00  0.00    -0.166 F 
ATOM     19  F   UNL     1      -1.823   2.777   9.038  0.00  0.00    -0.166 F 
ATOM     20  F   UNL     1      -2.567   1.232   7.528  0.00  0.00    -0.166 F 
ENDBRANCH   4  17
BRANCH   4  21
ATOM     21  O   UNL     1      -1.429   4.653   6.976  0.00  0.00    -0.363 OA
ATOM     22  H   UNL     1      -0.493   4.530   6.767  0.00  0.00    +0.212 HD
ENDBRANCH   4  21
TORSDOF 3
