REMARK  Name = ZINC39980726
REMARK  7 active torsions:
REMARK  status: ('A' for Active; 'I' for Inactive)
REMARK    1  A    between atoms: C_1  and  C_2
REMARK    2  A    between atoms: C_8  and  C_20
REMARK    3  A    between atoms: C_10  and  N_13
REMARK    4  A    between atoms: N_13  and  C_14
REMARK    5  A    between atoms: C_14  and  C_15
REMARK    6  A    between atoms: C_26  and  O_32
REMARK    7  A    between atoms: O_32  and  C_33
REMARK                            x       y       z     vdW  Elec       q    Type
REMARK                         _______ _______ _______ _____ _____    ______ ____
ROOT
ATOM      1  C   UNL     1      -0.284   1.269  -0.122  0.00  0.00    +0.061 C 
ATOM      2  C   UNL     1      -0.213  -0.232  -0.004  0.00  0.00    +0.011 C 
ATOM      3  C   UNL     1      -0.382  -0.994  -1.104  0.00  0.00    +0.019 C 
ATOM      4  C   UNL     1      -0.319  -2.394  -1.006  0.00  0.00    +0.005 C 
ATOM      5  C   UNL     1      -0.086  -2.976   0.196  0.00  0.00    +0.043 C 
ATOM      6  C   UNL     1       0.091  -2.163   1.352  0.00  0.00    +0.122 C 
ATOM      7  N   UNL     1       0.324  -2.545   2.590  0.00  0.00    -0.261 NA
ATOM      8  C   UNL     1       0.441  -1.379   3.471  0.00  0.00    +0.158 C 
ATOM      9  C   UNL     1       0.235  -0.177   2.531  0.00  0.00    +0.174 C 
ATOM     10  N   UNL     1       0.026  -0.801   1.213  0.00  0.00    -0.271 N 
ENDROOT
BRANCH   8  11
ATOM     11  C   UNL     1       1.830  -1.329   4.112  0.00  0.00    +0.126 C 
ATOM     12  C   UNL     1       2.040  -2.627   4.867  0.00  0.00    -0.003 C 
ATOM     13  C   UNL     1       2.305  -2.539   6.199  0.00  0.00    -0.007 A 
ATOM     14  C   UNL     1       2.520  -3.747   6.999  0.00  0.00    +0.013 A 
ATOM     15  C   UNL     1       2.783  -3.621   8.322  0.00  0.00    +0.046 A 
ATOM     16  C   UNL     1       2.851  -2.361   8.935  0.00  0.00    +0.122 A 
ATOM     17  C   UNL     1       2.658  -1.191   8.234  0.00  0.00    +0.069 A 
ATOM     18  C   UNL     1       2.381  -1.224   6.861  0.00  0.00    +0.044 A 
ATOM     19  N   UNL     1       2.195  -0.084   6.192  0.00  0.00    -0.284 N 
ATOM     20  C   UNL     1       1.932  -0.042   4.898  0.00  0.00    +0.226 C 
ATOM     21  O   UNL     1       1.772   1.028   4.342  0.00  0.00    -0.275 OA
ATOM     22  H   UNL     1       2.256   0.753   6.679  0.00  0.00    +0.155 HD
BRANCH  16  23
ATOM     23  O   UNL     1       3.116  -2.292  10.261  0.00  0.00    -0.495 OA
ATOM     24  C   UNL     1       3.310  -3.530  10.949  0.00  0.00    +0.277 C 
ENDBRANCH  16  23
ENDBRANCH   8  11
BRANCH   9  25
ATOM     25  N   UNL     1      -0.945   0.599   2.936  0.00  0.00    -0.289 NA
ATOM     26  H   UNL     1      -0.743   1.168   3.745  0.00  0.00    +0.124 HD
BRANCH  25  27
ATOM     27  C   UNL     1      -2.094  -0.281   3.185  0.00  0.00    +0.157 C 
BRANCH  27  28
ATOM     28  C   UNL     1      -3.320   0.555   3.447  0.00  0.00    +0.119 A 
ATOM     29  C   UNL     1      -4.192   0.985   2.518  0.00  0.00    +0.046 A 
ATOM     30  C   UNL     1      -5.183   1.730   3.199  0.00  0.00    +0.041 A 
ATOM     31  C   UNL     1      -4.856   1.710   4.504  0.00  0.00    +0.195 A 
ATOM     32  O   UNL     1      -3.730   0.992   4.649  0.00  0.00    -0.467 OA
ENDBRANCH  27  28
ENDBRANCH  25  27
ENDBRANCH   9  25
TORSDOF 5
