REMARK  Name = ZINC63280540
REMARK  13 active torsions:
REMARK  status: ('A' for Active; 'I' for Inactive)
REMARK    1  A    between atoms: C_1  and  O_2
REMARK    2  A    between atoms: O_2  and  C_3
REMARK    3  A    between atoms: C_5  and  C_13
REMARK    4  A    between atoms: C_7  and  O_11
REMARK    5  A    between atoms: C_8  and  O_9
REMARK    6  A    between atoms: O_9  and  C_10
REMARK    7  A    between atoms: O_11  and  C_12
REMARK    8  A    between atoms: C_14  and  C_15
REMARK    9  A    between atoms: C_14  and  N_29
REMARK   10  A    between atoms: N_17  and  C_18
REMARK   11  A    between atoms: C_18  and  C_19
REMARK   12  A    between atoms: C_19  and  C_20
REMARK   13  A    between atoms: C_30  and  C_32
REMARK                            x       y       z     vdW  Elec       q    Type
REMARK                         _______ _______ _______ _____ _____    ______ ____
ROOT
ATOM      1  C   UNL     1      -4.970   0.328   0.319  0.00  0.00    +0.036 C 
ATOM      2  C   UNL     1      -6.170  -0.278   0.150  0.00  0.00    +0.097 C 
ENDROOT
BRANCH   1   5
ATOM      3  C   UNL     1      -2.514  -2.206  -0.957  0.00  0.00    +0.166 A 
ATOM      4  C   UNL     1      -3.683  -1.489  -0.786  0.00  0.00    +0.057 A 
ATOM      5  C   UNL     1      -3.729  -0.438   0.136  0.00  0.00    -0.016 A 
ATOM      6  C   UNL     1      -2.590  -0.116   0.882  0.00  0.00    +0.057 A 
ATOM      7  C   UNL     1      -1.424  -0.838   0.706  0.00  0.00    +0.166 A 
ATOM      8  C   UNL     1      -1.384  -1.887  -0.209  0.00  0.00    +0.204 A 
BRANCH   3  10
ATOM      9  C   UNL     1      -3.664  -3.502  -2.586  0.00  0.00    +0.277 C 
ATOM     10  O   UNL     1      -2.468  -3.229  -1.852  0.00  0.00    -0.491 OA
ENDBRANCH   3  10
BRANCH   8  11
ATOM     11  O   UNL     1      -0.237  -2.598  -0.375  0.00  0.00    -0.488 OA
ATOM     12  C   UNL     1       0.682  -2.125  -1.363  0.00  0.00    +0.277 C 
ENDBRANCH   8  11
BRANCH   7  13
ATOM     13  O   UNL     1      -0.316  -0.526   1.431  0.00  0.00    -0.491 OA
ATOM     14  C   UNL     1      -0.459   0.484   2.432  0.00  0.00    +0.277 C 
ENDBRANCH   7  13
ENDBRANCH   1   5
BRANCH   2  15
ATOM     15  C   UNL     1      -7.405   0.517   0.189  0.00  0.00    +0.258 C 
ATOM     16  O   UNL     1      -7.346   1.729   0.270  0.00  0.00    -0.269 OA
ATOM     17  N   UNL     1      -8.603  -0.098   0.134  0.00  0.00    -0.310 N 
ATOM     18  H   UNL     1      -8.652  -1.067   0.145  0.00  0.00    +0.149 HD
BRANCH  17  19
ATOM     19  C   UNL     1      -9.831   0.697   0.058  0.00  0.00    +0.109 C 
BRANCH  19  20
ATOM     20  C   UNL     1     -11.041  -0.237   0.008  0.00  0.00    +0.052 C 
BRANCH  20  21
ATOM     21  C   UNL     1     -12.305   0.581  -0.070  0.00  0.00    -0.040 C 
ATOM     22  C   UNL     1     -12.984   0.923  -1.189  0.00  0.00    -0.001 A 
ATOM     23  C   UNL     1     -12.758   0.648  -2.613  0.00  0.00    +0.010 A 
ATOM     24  C   UNL     1     -13.631   1.137  -3.522  0.00  0.00    +0.001 A 
ATOM     25  C   UNL     1     -14.744   1.899  -3.139  0.00  0.00    +0.002 A 
ATOM     26  C   UNL     1     -15.019   2.193  -1.851  0.00  0.00    +0.026 A 
ATOM     27  C   UNL     1     -14.167   1.729  -0.811  0.00  0.00    +0.043 A 
ATOM     28  N   UNL     1     -14.217   1.879   0.491  0.00  0.00    -0.380 N 
ATOM     29  C   UNL     1     -13.073   1.179   1.087  0.00  0.00    +0.144 C 
ATOM     30  H   UNL     1     -14.898   2.367   0.978  0.00  0.00    +0.160 HD
ENDBRANCH  20  21
ENDBRANCH  19  20
ENDBRANCH  17  19
ENDBRANCH   2  15
BRANCH   2  31
ATOM     31  N   UNL     1      -6.233  -1.659  -0.061  0.00  0.00    -0.277 N 
ATOM     32  C   UNL     1      -6.851  -2.146  -1.155  0.00  0.00    +0.248 C 
ATOM     33  O   UNL     1      -7.280  -1.385  -2.000  0.00  0.00    -0.270 OA
ATOM     34  H   UNL     1      -5.831  -2.267   0.580  0.00  0.00    +0.155 HD
BRANCH  32  35
ATOM     35  C   UNL     1      -7.009  -3.606  -1.327  0.00  0.00    +0.037 A 
ATOM     36  C   UNL     1      -6.603  -4.478  -0.316  0.00  0.00    +0.013 A 
ATOM     37  C   UNL     1      -6.753  -5.840  -0.482  0.00  0.00    +0.001 A 
ATOM     38  C   UNL     1      -7.304  -6.340  -1.649  0.00  0.00    +0.000 A 
ATOM     39  C   UNL     1      -7.708  -5.481  -2.655  0.00  0.00    +0.001 A 
ATOM     40  C   UNL     1      -7.569  -4.117  -2.498  0.00  0.00    +0.013 A 
ENDBRANCH  32  35
ENDBRANCH   2  31
TORSDOF 10
