REMARK  Name = ZINC47487835
REMARK  8 active torsions:
REMARK  status: ('A' for Active; 'I' for Inactive)
REMARK    1  A    between atoms: C_1  and  C_2
REMARK    2  A    between atoms: C_2  and  C_3
REMARK    3  A    between atoms: N_5  and  C_6
REMARK    4  A    between atoms: C_10  and  N_12
REMARK    5  A    between atoms: N_15  and  C_16
REMARK    6  A    between atoms: C_16  and  C_18
REMARK    7  A    between atoms: C_16  and  C_19
REMARK    8  A    between atoms: C_20  and  C_28
REMARK                            x       y       z     vdW  Elec       q    Type
REMARK                         _______ _______ _______ _____ _____    ______ ____
ROOT
ATOM      1  N   UNL     1      -4.938  -5.421  -0.033  0.00  0.00    -0.269 N 
ATOM      2  C   UNL     1      -6.206  -5.848  -0.197  0.00  0.00    +0.304 C 
ATOM      3  O   UNL     1      -7.112  -5.042  -0.286  0.00  0.00    -0.252 OA
ATOM      4  N   UNL     1      -6.470  -7.168  -0.264  0.00  0.00    -0.290 N 
ATOM      5  H   UNL     1      -4.224  -6.064   0.105  0.00  0.00    +0.156 HD
ATOM      6  H   UNL     1      -5.747  -7.811  -0.194  0.00  0.00    +0.151 HD
ENDROOT
BRANCH   1  11
ATOM      7  C   UNL     1      -3.177  -2.244  -0.630  0.00  0.00    +0.035 A 
ATOM      8  C   UNL     1      -4.092  -1.338  -0.109  0.00  0.00    +0.023 A 
ATOM      9  C   UNL     1      -5.280  -1.788   0.434  0.00  0.00    +0.004 A 
ATOM     10  C   UNL     1      -5.562  -3.140   0.460  0.00  0.00    +0.023 A 
ATOM     11  C   UNL     1      -4.652  -4.052  -0.060  0.00  0.00    +0.037 A 
ATOM     12  C   UNL     1      -3.460  -3.602  -0.611  0.00  0.00    +0.046 A 
BRANCH   7  15
ATOM     13  C   UNL     1      -1.439  -2.414  -2.247  0.00  0.00    +0.217 C 
ATOM     14  O   UNL     1      -1.955  -3.424  -2.679  0.00  0.00    -0.275 OA
ATOM     15  N   UNL     1      -1.974  -1.788  -1.180  0.00  0.00    -0.285 N 
ATOM     16  H   UNL     1      -1.525  -1.020  -0.793  0.00  0.00    +0.155 HD
BRANCH  13  18
ATOM     17  C   UNL     1       0.195  -2.755  -4.081  0.00  0.00    +0.013 C 
ATOM     18  C   UNL     1      -0.200  -1.862  -2.903  0.00  0.00    +0.093 C 
ENDBRANCH  13  18
ENDBRANCH   7  15
ENDBRANCH   1  11
BRANCH   4  19
ATOM     19  C   UNL     1      -7.848  -7.632  -0.443  0.00  0.00    +0.138 C 
ATOM     20  C   UNL     1      -8.195  -7.636  -1.933  0.00  0.00    +0.036 C 
BRANCH  19  21
ATOM     21  C   UNL     1      -7.984  -9.027   0.108  0.00  0.00    +0.129 A 
ATOM     22  C   UNL     1      -8.995  -9.453   0.878  0.00  0.00    +0.000 A 
ATOM     23  C   UNL     1      -8.716 -10.863   1.177  0.00  0.00    +0.023 A 
ATOM     24  C   UNL     1      -9.369 -11.851   1.912  0.00  0.00    +0.012 A 
ATOM     25  C   UNL     1      -8.827 -13.104   1.995  0.00  0.00    +0.001 A 
ATOM     26  C   UNL     1      -7.633 -13.396   1.353  0.00  0.00    +0.004 A 
ATOM     27  C   UNL     1      -6.973 -12.432   0.621  0.00  0.00    +0.047 A 
ATOM     28  C   UNL     1      -7.507 -11.153   0.523  0.00  0.00    +0.136 A 
ATOM     29  O   UNL     1      -7.111 -10.028  -0.105  0.00  0.00    -0.458 OA
ATOM     30  C   UNL     1     -10.179  -8.646   1.343  0.00  0.00    +0.048 C 
ENDBRANCH  19  21
ENDBRANCH   4  19
TORSDOF 5
