REMARK  Name = ZINC36596277
REMARK  17 active torsions:
REMARK  status: ('A' for Active; 'I' for Inactive)
REMARK    1  A    between atoms: C_1  and  C_2
REMARK    2  A    between atoms: C_5  and  C_7
REMARK    3  A    between atoms: C_7  and  N_8
REMARK    4  A    between atoms: N_8  and  C_11
REMARK    5  A    between atoms: C_11  and  C_13
REMARK    6  A    between atoms: C_11  and  C_22
REMARK    7  A    between atoms: C_14  and  O_21
REMARK    8  A    between atoms: C_16  and  O_20
REMARK    9  A    between atoms: C_18  and  O_19
REMARK   10  A    between atoms: N_24  and  C_25
REMARK   11  A    between atoms: C_25  and  C_26
REMARK   12  A    between atoms: C_25  and  C_27
REMARK   13  A    between atoms: C_25  and  C_28
REMARK   14  A    between atoms: C_28  and  C_29
REMARK   15  A    between atoms: C_29  and  C_30
REMARK   16  A    between atoms: C_29  and  C_31
REMARK   17  A    between atoms: C_29  and  C_32
REMARK                            x       y       z     vdW  Elec       q    Type
REMARK                         _______ _______ _______ _____ _____    ______ ____
ROOT
ATOM      1  C   UNL     1       1.274  -4.986  -1.943  0.00  0.00    +0.199 C 
ENDROOT
BRANCH   1   2
ATOM      2  C   UNL     1       2.642  -5.591  -2.127  0.00  0.00    +0.065 A 
ATOM      3  C   UNL     1       3.322  -5.417  -3.323  0.00  0.00    +0.129 A 
ATOM      4  C   UNL     1       4.581  -5.974  -3.492  0.00  0.00    +0.091 A 
ATOM      5  C   UNL     1       5.160  -6.704  -2.465  0.00  0.00    +0.124 A 
ATOM      6  C   UNL     1       4.480  -6.877  -1.268  0.00  0.00    +0.091 A 
ATOM      7  C   UNL     1       3.223  -6.316  -1.098  0.00  0.00    +0.129 A 
BRANCH   7   8
ATOM      8  O   UNL     1       2.559  -6.482   0.076  0.00  0.00    -0.506 OA
ATOM      9  H   UNL     1       1.998  -7.269   0.103  0.00  0.00    +0.292 HD
ENDBRANCH   7   8
BRANCH   5  10
ATOM     10  O   UNL     1       6.393  -7.250  -2.631  0.00  0.00    -0.507 OA
ATOM     11  H   UNL     1       7.119  -6.670  -2.363  0.00  0.00    +0.292 HD
ENDBRANCH   5  10
BRANCH   3  12
ATOM     12  O   UNL     1       2.754  -4.702  -4.330  0.00  0.00    -0.506 OA
ATOM     13  H   UNL     1       3.029  -3.776  -4.357  0.00  0.00    +0.292 HD
ENDBRANCH   3  12
ENDBRANCH   1   2
BRANCH   1  14
ATOM     14  C   UNL     1       0.857  -4.292  -3.214  0.00  0.00    +0.239 C 
ATOM     15  O   UNL     1       0.963  -3.088  -3.310  0.00  0.00    -0.273 OA
ATOM     16  N   UNL     1       0.366  -5.010  -4.244  0.00  0.00    -0.308 N 
ATOM     17  H   UNL     1       0.246  -5.968  -4.154  0.00  0.00    +0.149 HD
BRANCH  16  18
ATOM     18  C   UNL     1       0.014  -4.342  -5.500  0.00  0.00    +0.030 C 
ATOM     19  C   UNL     1      -0.968  -3.204  -5.214  0.00  0.00    +0.031 C 
ATOM     20  C   UNL     1       1.278  -3.775  -6.148  0.00  0.00    +0.031 C 
BRANCH  18  21
ATOM     21  C   UNL     1      -0.637  -5.351  -6.448  0.00  0.00    +0.031 C 
BRANCH  21  22
ATOM     22  C   UNL     1      -1.991  -5.783  -5.882  0.00  0.00    -0.036 C 
ATOM     23  C   UNL     1      -3.014  -4.666  -6.097  0.00  0.00    +0.010 C 
ATOM     24  C   UNL     1      -2.462  -7.051  -6.598  0.00  0.00    +0.010 C 
ATOM     25  C   UNL     1      -1.851  -6.065  -4.385  0.00  0.00    +0.010 C 
ENDBRANCH  21  22
ENDBRANCH  18  21
ENDBRANCH  16  18
ENDBRANCH   1  14
BRANCH   1  26
ATOM     26  N   UNL     1       1.312  -4.016  -0.847  0.00  0.00    -0.281 N 
ATOM     27  C   UNL     1       2.219  -3.019  -0.860  0.00  0.00    +0.329 C 
ATOM     28  O   UNL     1       3.051  -2.968  -1.741  0.00  0.00    -0.279 OA
BRANCH  26  29
ATOM     29  C   UNL     1       0.364  -4.128   0.265  0.00  0.00    +0.182 C 
BRANCH  29  34
ATOM     30  C   UNL     1      -2.913  -0.306  -0.045  0.00  0.00    +0.086 C 
ATOM     31  C   UNL     1      -2.305  -1.678  -0.189  0.00  0.00    +0.102 A 
ATOM     32  C   UNL     1      -2.889  -2.740  -0.773  0.00  0.00    +0.045 A 
ATOM     33  C   UNL     1      -1.970  -3.811  -0.686  0.00  0.00    +0.046 A 
ATOM     34  C   UNL     1      -0.880  -3.340  -0.054  0.00  0.00    +0.122 A 
ATOM     35  O   UNL     1      -1.086  -2.046   0.239  0.00  0.00    -0.463 OA
ENDBRANCH  29  34
ENDBRANCH  26  29
ENDBRANCH   1  26
TORSDOF 11
