REMARK  Name = ZINC66679394
REMARK  7 active torsions:
REMARK  status: ('A' for Active; 'I' for Inactive)
REMARK    1  A    between atoms: C_1  and  C_2
REMARK    2  A    between atoms: C_2  and  C_4
REMARK    3  A    between atoms: C_2  and  N_13
REMARK    4  A    between atoms: C_4  and  O_5
REMARK    5  A    between atoms: O_5  and  C_6
REMARK    6  A    between atoms: N_16  and  C_17
REMARK    7  A    between atoms: C_21  and  C_23
REMARK                            x       y       z     vdW  Elec       q    Type
REMARK                         _______ _______ _______ _____ _____    ______ ____
ROOT
ATOM      1  N   UNL     1      -1.370  -0.517   0.012  0.00  0.00    -0.293 N 
ATOM      2  C   UNL     1      -2.051  -0.641  -1.144  0.00  0.00    +0.304 C 
ATOM      3  O   UNL     1      -1.526  -0.331  -2.196  0.00  0.00    -0.252 OA
ATOM      4  N   UNL     1      -3.315  -1.109  -1.135  0.00  0.00    -0.269 N 
ATOM      5  H   UNL     1      -1.790  -0.764   0.851  0.00  0.00    +0.151 HD
ATOM      6  H   UNL     1      -3.712  -1.419  -0.306  0.00  0.00    +0.156 HD
ENDROOT
BRANCH   4   7
ATOM      7  C   UNL     1      -4.056  -1.148  -2.322  0.00  0.00    +0.035 A 
ATOM      8  C   UNL     1      -3.424  -1.431  -3.527  0.00  0.00    +0.023 A 
ATOM      9  C   UNL     1      -4.152  -1.469  -4.701  0.00  0.00    +0.002 A 
ATOM     10  C   UNL     1      -5.511  -1.226  -4.683  0.00  0.00    +0.010 A 
ATOM     11  C   UNL     1      -6.153  -0.942  -3.480  0.00  0.00    +0.004 A 
ATOM     12  C   UNL     1      -5.421  -0.908  -2.295  0.00  0.00    +0.033 A 
BRANCH  11  13
ATOM     13  C   UNL     1      -7.613  -0.680  -3.459  0.00  0.00    +0.091 A 
ATOM     14  C   UNL     1      -8.354  -0.725  -4.663  0.00  0.00    +0.035 A 
ATOM     15  C   UNL     1      -9.694  -0.480  -4.606  0.00  0.00    +0.073 A 
ATOM     16  C   UNL     1     -10.261  -0.195  -3.344  0.00  0.00    +0.265 A 
ATOM     17  O   UNL     1     -11.456   0.031  -3.244  0.00  0.00    -0.266 OA
ATOM     18  N   UNL     1      -9.473  -0.174  -2.253  0.00  0.00    -0.243 N 
ATOM     19  H   UNL     1      -9.869   0.022  -1.389  0.00  0.00    +0.192 HD
ATOM     20  N   UNL     1      -8.214  -0.412  -2.324  0.00  0.00    -0.171 NA
ENDBRANCH  11  13
ENDBRANCH   4   7
BRANCH   1  22
ATOM     21  C   UNL     1      -0.019   1.522   0.021  0.00  0.00    +0.031 C 
ATOM     22  C   UNL     1       0.003  -0.008   0.002  0.00  0.00    +0.109 C 
BRANCH  22  23
ATOM     23  C   UNL     1       0.747  -0.522   1.236  0.00  0.00    +0.251 C 
BRANCH  23  24
ATOM     24  O   UNL     1       0.150   0.024   2.414  0.00  0.00    -0.487 OA
BRANCH  24  25
ATOM     25  C   UNL     1       0.695  -0.336   3.606  0.00  0.00    +0.156 A 
ATOM     26  C   UNL     1       1.785  -1.192   3.641  0.00  0.00    +0.048 A 
ATOM     27  C   UNL     1       2.338  -1.556   4.854  0.00  0.00    +0.004 A 
ATOM     28  C   UNL     1       1.806  -1.069   6.033  0.00  0.00    +0.003 A 
ATOM     29  C   UNL     1       0.719  -0.215   6.003  0.00  0.00    +0.042 A 
ATOM     30  C   UNL     1       0.165   0.158   4.791  0.00  0.00    +0.165 A 
ATOM     31  F   UNL     1      -0.893   0.997   4.761  0.00  0.00    -0.202 F 
ENDBRANCH  24  25
ENDBRANCH  23  24
ENDBRANCH  22  23
ENDBRANCH   1  22
TORSDOF 6
