REMARK  Name = ZINC05577851
REMARK  7 active torsions:
REMARK  status: ('A' for Active; 'I' for Inactive)
REMARK    1  A    between atoms: C_1  and  C_2
REMARK    2  A    between atoms: C_8  and  C_25
REMARK    3  A    between atoms: C_8  and  O_26
REMARK    4  A    between atoms: C_9  and  C_22
REMARK    5  A    between atoms: C_11  and  C_13
REMARK    6  A    between atoms: C_16  and  N_19
REMARK    7  A    between atoms: C_22  and  C_24
REMARK                            x       y       z     vdW  Elec       q    Type
REMARK                         _______ _______ _______ _____ _____    ______ ____
ROOT
ATOM      1  C   UNL     1      -1.027   2.304  -0.428  0.00  0.00    +0.089 C 
ATOM      2  C   UNL     1      -0.595   0.861  -0.372  0.00  0.00    +0.138 A 
ATOM      3  C   UNL     1      -1.402  -0.198  -0.228  0.00  0.00    +0.026 A 
ATOM      4  C   UNL     1      -0.604  -1.363  -0.222  0.00  0.00    +0.090 A 
ATOM      5  N   UNL     1       0.633  -1.006  -0.362  0.00  0.00    -0.083 NA
ATOM      6  O   UNL     1       0.667   0.409  -0.464  0.00  0.00    -0.359 OA
ATOM      7  C   UNL     1      -1.165  -2.756  -0.069  0.00  0.00    +0.094 C 
ATOM      8  C   UNL     1      -2.594  -2.638   0.477  0.00  0.00    +0.079 C 
ATOM      9  C   UNL     1      -3.392  -1.645  -0.370  0.00  0.00    +0.098 C 
ATOM     10  C   UNL     1      -2.905  -0.218  -0.092  0.00  0.00    +0.067 C 
ATOM     11  C   UNL     1      -2.546  -2.147   1.926  0.00  0.00    +0.042 C 
ENDROOT
BRANCH  10  12
ATOM     12  C   UNL     1      -3.518   0.732  -1.089  0.00  0.00    -0.039 A 
ATOM     13  C   UNL     1      -2.926   0.915  -2.324  0.00  0.00    +0.006 A 
ATOM     14  C   UNL     1      -3.488   1.786  -3.239  0.00  0.00    +0.033 A 
ATOM     15  C   UNL     1      -4.644   2.473  -2.918  0.00  0.00    +0.126 A 
ATOM     16  C   UNL     1      -5.237   2.290  -1.683  0.00  0.00    +0.033 A 
ATOM     17  C   UNL     1      -4.677   1.416  -0.770  0.00  0.00    +0.006 A 
BRANCH  15  18
ATOM     18  N   UNL     1      -5.245   3.407  -3.897  0.00  0.00    +0.056 N 
ATOM     19  O   UNL     1      -4.726   3.567  -4.976  0.00  0.00    -0.126 OA
ATOM     20  O   UNL     1      -6.256   4.008  -3.616  0.00  0.00    -0.126 OA
ENDBRANCH  15  18
ENDBRANCH  10  12
BRANCH   9  21
ATOM     21  C   UNL     1      -3.198  -1.964  -1.831  0.00  0.00    +0.137 C 
ATOM     22  O   UNL     1      -2.183  -1.628  -2.392  0.00  0.00    -0.297 OA
ATOM     23  C   UNL     1      -4.271  -2.702  -2.589  0.00  0.00    +0.086 C 
ENDBRANCH   9  21
BRANCH   8  24
ATOM     24  O   UNL     1      -3.227  -3.918   0.431  0.00  0.00    -0.388 OA
ATOM     25  H   UNL     1      -2.777  -4.599   0.952  0.00  0.00    +0.210 HD
ENDBRANCH   8  24
TORSDOF 4
