REMARK  Name = ZINC22815662
REMARK  6 active torsions:
REMARK  status: ('A' for Active; 'I' for Inactive)
REMARK    1  A    between atoms: C_1  and  C_2
REMARK    2  A    between atoms: C_4  and  C_7
REMARK    3  A    between atoms: C_7  and  N_8
REMARK    4  A    between atoms: N_11  and  C_14
REMARK    5  A    between atoms: C_14  and  C_15
REMARK    6  A    between atoms: C_19  and  C_28
REMARK                            x       y       z     vdW  Elec       q    Type
REMARK                         _______ _______ _______ _____ _____    ______ ____
ROOT
ATOM      1  C   UNL     1      -6.182  -4.422   4.725  0.00  0.00    +0.234 C 
ATOM      2  O   UNL     1      -6.639  -4.775   3.659  0.00  0.00    -0.274 OA
ATOM      3  N   UNL     1      -6.755  -4.833   5.873  0.00  0.00    -0.263 N 
ATOM      4  C   UNL     1      -6.282  -4.344   7.180  0.00  0.00    +0.168 C 
ATOM      5  C   UNL     1      -6.252  -5.541   8.140  0.00  0.00    +0.276 C 
ATOM      6  O   UNL     1      -7.564  -6.103   8.217  0.00  0.00    -0.476 OA
ATOM      7  C   UNL     1      -8.209  -6.368   7.051  0.00  0.00    +0.143 A 
ATOM      8  C   UNL     1      -7.829  -5.740   5.866  0.00  0.00    +0.078 A 
ATOM      9  C   UNL     1      -8.502  -6.010   4.686  0.00  0.00    +0.027 A 
ATOM     10  C   UNL     1      -9.556  -6.905   4.683  0.00  0.00    +0.002 A 
ATOM     11  C   UNL     1      -9.938  -7.529   5.856  0.00  0.00    +0.004 A 
ATOM     12  C   UNL     1      -9.262  -7.269   7.039  0.00  0.00    +0.047 A 
ENDROOT
BRANCH   5  13
ATOM     13  C   UNL     1      -5.815  -5.081   9.507  0.00  0.00    +0.253 C 
ATOM     14  O   UNL     1      -6.584  -5.146  10.443  0.00  0.00    -0.272 OA
ATOM     15  N   UNL     1      -4.571  -4.597   9.690  0.00  0.00    -0.326 N 
ATOM     16  H   UNL     1      -3.956  -4.545   8.941  0.00  0.00    +0.145 HD
ATOM     17  H   UNL     1      -4.290  -4.301  10.570  0.00  0.00    +0.145 HD
ENDBRANCH   5  13
BRANCH   1  18
ATOM     18  C   UNL     1      -4.973  -3.523   4.766  0.00  0.00    +0.181 C 
BRANCH  18  22
ATOM     19  N   UNL     1      -2.435  -3.307   1.393  0.00  0.00    +0.385 N 
ATOM     20  C   UNL     1      -2.980  -2.052   1.928  0.00  0.00    -0.063 C 
ATOM     21  C   UNL     1      -3.439  -2.270   3.372  0.00  0.00    +0.066 C 
ATOM     22  N   UNL     1      -4.465  -3.323   3.403  0.00  0.00    -0.298 NA
ATOM     23  C   UNL     1      -3.941  -4.578   2.846  0.00  0.00    +0.066 C 
ATOM     24  C   UNL     1      -3.478  -4.341   1.407  0.00  0.00    -0.063 C 
ATOM     25  H   UNL     1      -1.657  -3.605   1.962  0.00  0.00    -0.081 HD
BRANCH  19  26
ATOM     26  C   UNL     1      -1.978  -3.092   0.013  0.00  0.00    -0.022 C 
BRANCH  26  30
ATOM     27  C   UNL     1      -0.056   1.528  -0.006  0.00  0.00    +0.073 C 
ATOM     28  C   UNL     1      -0.016   0.022   0.003  0.00  0.00    +0.075 A 
ATOM     29  N   UNL     1      -1.021  -0.819   0.004  0.00  0.00    -0.251 NA
ATOM     30  C   UNL     1      -0.825  -2.122   0.012  0.00  0.00    +0.032 A 
ATOM     31  C   UNL     1       0.464  -2.550   0.019  0.00  0.00    +0.068 A 
ATOM     32  S   UNL     1       1.330  -0.989   0.006  0.00  0.00    -0.081 S 
ENDBRANCH  26  30
ENDBRANCH  19  26
ENDBRANCH  18  22
ENDBRANCH   1  18
TORSDOF 5
