REMARK  Name = ZINC20755670
REMARK  5 active torsions:
REMARK  status: ('A' for Active; 'I' for Inactive)
REMARK    1  A    between atoms: C_3  and  C_16
REMARK    2  A    between atoms: C_5  and  S_7
REMARK    3  A    between atoms: S_7  and  N_10
REMARK    4  A    between atoms: N_18  and  N_19
REMARK    5  A    between atoms: C_28  and  O_29
REMARK                            x       y       z     vdW  Elec       q    Type
REMARK                         _______ _______ _______ _____ _____    ______ ____
ROOT
ATOM      1  C   UNL     1       3.656   2.159  -0.022  0.00  0.00    +0.263 C 
ATOM      2  O   UNL     1       4.715   1.563  -0.035  0.00  0.00    -0.268 OA
ATOM      3  N   UNL     1       3.642   3.507  -0.015  0.00  0.00    -0.202 N 
ATOM      4  H   UNL     1       2.796   3.983  -0.004  0.00  0.00    +0.178 HD
ENDROOT
BRANCH   3   5
ATOM      5  N   UNL     1       4.752   4.164  -0.022  0.00  0.00    -0.174 NA
ATOM      6  C   UNL     1       4.737   5.477  -0.015  0.00  0.00    +0.152 C 
ATOM      7  C   UNL     1       5.896   6.400  -0.028  0.00  0.00    +0.035 A 
ATOM      8  C   UNL     1       7.271   6.219  -0.049  0.00  0.00    +0.032 A 
ATOM      9  C   UNL     1       8.108   7.319  -0.055  0.00  0.00    +0.043 A 
ATOM     10  C   UNL     1       7.575   8.600  -0.041  0.00  0.00    +0.042 A 
ATOM     11  C   UNL     1       6.210   8.796  -0.021  0.00  0.00    +0.068 A 
ATOM     12  C   UNL     1       5.345   7.697  -0.014  0.00  0.00    +0.095 A 
ATOM     13  N   UNL     1       3.989   7.607   0.005  0.00  0.00    -0.210 NA
ATOM     14  C   UNL     1       3.563   6.371  -0.000  0.00  0.00    +0.241 C 
ATOM     15 CL   UNL     1       5.566  10.408  -0.003  0.00  0.00    -0.081 Cl
ATOM     16 CL   UNL     1       9.829   7.098  -0.081  0.00  0.00    -0.083 Cl
BRANCH  14  17
ATOM     17  O   UNL     1       2.267   5.978   0.011  0.00  0.00    -0.491 OA
ATOM     18  H   UNL     1       1.634   6.709   0.020  0.00  0.00    +0.294 HD
ENDBRANCH  14  17
ENDBRANCH   3   5
BRANCH   1  21
ATOM     19  C   UNL     1      -0.017   1.379   0.010  0.00  0.00    +0.003 A 
ATOM     20  C   UNL     1       1.167   2.088   0.002  0.00  0.00    +0.013 A 
ATOM     21  C   UNL     1       2.385   1.407  -0.013  0.00  0.00    +0.040 A 
ATOM     22  C   UNL     1       2.397   0.010  -0.021  0.00  0.00    +0.041 A 
ATOM     23  C   UNL     1       1.206  -0.686  -0.013  0.00  0.00    +0.106 A 
ATOM     24  C   UNL     1       0.002  -0.004   0.002  0.00  0.00    +0.028 A 
BRANCH  23  25
ATOM     25  S   UNL     1       1.218  -2.448  -0.023  0.00  0.00    +0.061 S 
ATOM     26  O   UNL     1      -0.029  -2.860  -0.564  0.00  0.00    -0.153 OA
ATOM     27  O   UNL     1       2.461  -2.842  -0.589  0.00  0.00    -0.153 OA
BRANCH  25  28
ATOM     28  N   UNL     1       1.237  -2.947   1.556  0.00  0.00    -0.177 NA
ATOM     29  C   UNL     1       2.510  -3.158   2.259  0.00  0.00    +0.109 C 
ATOM     30  C   UNL     1       2.497  -2.343   3.556  0.00  0.00    +0.017 C 
ATOM     31  C   UNL     1       1.258  -2.714   4.374  0.00  0.00    +0.003 C 
ATOM     32  C   UNL     1      -0.003  -2.372   3.577  0.00  0.00    +0.017 C 
ATOM     33  C   UNL     1      -0.018  -3.181   2.282  0.00  0.00    +0.109 C 
ENDBRANCH  25  28
ENDBRANCH  23  25
ENDBRANCH   1  21
TORSDOF 5
