REMARK  Name = ZINC65124624
REMARK  15 active torsions:
REMARK  status: ('A' for Active; 'I' for Inactive)
REMARK    1  A    between atoms: C_1  and  C_2
REMARK    2  A    between atoms: C_2  and  C_3
REMARK    3  A    between atoms: C_3  and  N_4
REMARK    4  A    between atoms: N_7  and  C_8
REMARK    5  A    between atoms: C_8  and  C_9
REMARK    6  A    between atoms: C_8  and  C_10
REMARK    7  A    between atoms: C_8  and  C_11
REMARK    8  A    between atoms: N_13  and  N_14
REMARK    9  A    between atoms: C_15  and  C_17
REMARK   10  A    between atoms: C_20  and  C_22
REMARK   11  A    between atoms: C_22  and  N_23
REMARK   12  A    between atoms: N_23  and  C_24
REMARK   13  A    between atoms: N_23  and  C_26
REMARK   14  A    between atoms: C_24  and  C_25
REMARK   15  A    between atoms: C_26  and  C_27
REMARK                            x       y       z     vdW  Elec       q    Type
REMARK                         _______ _______ _______ _____ _____    ______ ____
ROOT
ATOM      1  C   UNL     1       0.972  -6.065  -4.051  0.00  0.00    +0.252 C 
ATOM      2  O   UNL     1       1.082  -6.967  -4.855  0.00  0.00    -0.272 OA
ATOM      3  N   UNL     1       0.914  -6.341  -2.733  0.00  0.00    -0.232 N 
ATOM      4  H   UNL     1       0.826  -5.620  -2.090  0.00  0.00    +0.173 HD
ENDROOT
BRANCH   3   5
ATOM      5  N   UNL     1       0.981  -7.669  -2.291  0.00  0.00    -0.228 N 
ATOM      6  C   UNL     1       0.922  -7.944  -0.973  0.00  0.00    +0.295 C 
ATOM      7  O   UNL     1       0.812  -7.040  -0.167  0.00  0.00    -0.265 OA
ATOM      8  H   UNL     1       1.069  -8.390  -2.934  0.00  0.00    +0.173 HD
BRANCH   6   9
ATOM      9  C   UNL     1       0.992  -9.335  -0.511  0.00  0.00    +0.191 A 
ATOM     10  C   UNL     1       0.939  -9.752   0.788  0.00  0.00    +0.055 A 
ATOM     11  C   UNL     1       1.040 -11.152   0.767  0.00  0.00    +0.043 A 
ATOM     12  C   UNL     1       1.149 -11.523  -0.528  0.00  0.00    +0.090 A 
ATOM     13  O   UNL     1       1.113 -10.426  -1.295  0.00  0.00    -0.457 OA
BRANCH  12  14
ATOM     14  C   UNL     1       1.282 -12.938  -1.027  0.00  0.00    -0.003 C 
BRANCH  14  15
ATOM     15  N   UNL     1      -0.053 -13.498  -1.276  0.00  0.00    +0.384 N 
ATOM     16  H   UNL     1      -0.613 -13.416  -0.441  0.00  0.00    -0.081 HD
BRANCH  15  17
ATOM     17  C   UNL     1      -0.697 -12.759  -2.371  0.00  0.00    -0.082 C 
ATOM     18  C   UNL     1      -2.139 -13.242  -2.533  0.00  0.00    -0.017 C 
ENDBRANCH  15  17
BRANCH  15  19
ATOM     19  C   UNL     1       0.070 -14.914  -1.647  0.00  0.00    -0.082 C 
ATOM     20  C   UNL     1       0.609 -15.708  -0.456  0.00  0.00    -0.017 C 
ENDBRANCH  15  19
ENDBRANCH  14  15
ENDBRANCH  12  14
ENDBRANCH   6   9
ENDBRANCH   3   5
BRANCH   1  21
ATOM     21  C   UNL     1       0.901  -4.637  -4.526  0.00  0.00    +0.108 C 
ATOM     22  C   UNL     1       0.371  -4.603  -5.961  0.00  0.00    +0.041 C 
ATOM     23  C   UNL     1       2.298  -4.015  -4.483  0.00  0.00    +0.041 C 
BRANCH  21  27
ATOM     24  N   UNL     1      -1.046  -1.869  -3.088  0.00  0.00    -0.299 N 
ATOM     25  C   UNL     1      -0.218  -2.568  -3.889  0.00  0.00    +0.300 C 
ATOM     26  O   UNL     1       0.331  -2.018  -4.824  0.00  0.00    -0.253 OA
ATOM     27  N   UNL     1       0.001  -3.877  -3.655  0.00  0.00    -0.286 N 
ATOM     28  H   UNL     1      -1.484  -2.308  -2.342  0.00  0.00    +0.150 HD
ATOM     29  H   UNL     1      -0.437  -4.316  -2.909  0.00  0.00    +0.151 HD
BRANCH  24  30
ATOM     30  C   UNL     1      -1.284  -0.446  -3.343  0.00  0.00    +0.105 C 
BRANCH  30  32
ATOM     31  C   UNL     1      -2.504   1.590  -2.563  0.00  0.00    +0.005 C 
ATOM     32  C   UNL     1      -2.255   0.104  -2.296  0.00  0.00    +0.015 C 
ENDBRANCH  30  32
ENDBRANCH  24  30
ENDBRANCH  21  27
ENDBRANCH   1  21
TORSDOF 10
