REMARK  Name = ZINC64020809
REMARK  6 active torsions:
REMARK  status: ('A' for Active; 'I' for Inactive)
REMARK    1  A    between atoms: C_1  and  C_2
REMARK    2  A    between atoms: C_5  and  C_8
REMARK    3  A    between atoms: C_14  and  C_15
REMARK    4  A    between atoms: N_17  and  N_18
REMARK    5  A    between atoms: C_19  and  C_21
REMARK    6  A    between atoms: C_21  and  C_22
REMARK                            x       y       z     vdW  Elec       q    Type
REMARK                         _______ _______ _______ _____ _____    ______ ____
ROOT
ATOM      1  C   UNL     1      -0.245   5.382  -1.595  0.00  0.00    +0.254 C 
ATOM      2  O   UNL     1      -1.256   5.772  -1.039  0.00  0.00    -0.269 OA
ATOM      3  N   UNL     1       0.631   6.273  -2.102  0.00  0.00    -0.231 N 
ATOM      4  H   UNL     1       1.436   5.963  -2.544  0.00  0.00    +0.173 HD
ENDROOT
BRANCH   1  11
ATOM      5  C   UNL     1      -0.013   1.086   0.008  0.00  0.00    +0.044 C 
ATOM      6  C   UNL     1      -0.753   1.593  -1.232  0.00  0.00    +0.162 C 
ATOM      7  C   UNL     1      -0.866   3.105  -1.200  0.00  0.00    +0.040 C 
ATOM      8  N   UNL     1      -2.042   3.380  -0.550  0.00  0.00    -0.317 N 
ATOM      9  C   UNL     1      -2.862   2.162  -0.555  0.00  0.00    +0.236 C 
ATOM     10  O   UNL     1      -2.118   1.134  -1.226  0.00  0.00    -0.346 OA
ATOM     11  C   UNL     1       0.011   3.996  -1.708  0.00  0.00    +0.089 C 
ATOM     12  H   UNL     1      -2.290   4.231  -0.157  0.00  0.00    +0.149 HD
BRANCH   9  13
ATOM     13  C   UNL     1      -4.154   2.418  -1.286  0.00  0.00    -0.001 A 
ATOM     14  C   UNL     1      -4.193   3.339  -2.317  0.00  0.00    +0.008 A 
ATOM     15  C   UNL     1      -5.378   3.574  -2.989  0.00  0.00    +0.000 A 
ATOM     16  C   UNL     1      -6.524   2.889  -2.630  0.00  0.00    +0.000 A 
ATOM     17  C   UNL     1      -6.484   1.968  -1.600  0.00  0.00    +0.000 A 
ATOM     18  C   UNL     1      -5.298   1.729  -0.931  0.00  0.00    +0.008 A 
ENDBRANCH   9  13
ENDBRANCH   1  11
BRANCH   3  19
ATOM     19  N   UNL     1       0.377   7.646  -1.989  0.00  0.00    -0.234 N 
ATOM     20  C   UNL     1       1.253   8.537  -2.497  0.00  0.00    +0.233 C 
ATOM     21  O   UNL     1       2.260   8.149  -3.050  0.00  0.00    -0.274 OA
ATOM     22  H   UNL     1      -0.428   7.956  -1.547  0.00  0.00    +0.173 HD
BRANCH  20  23
ATOM     23  C   UNL     1       0.980  10.014  -2.376  0.00  0.00    +0.130 C 
BRANCH  23  24
ATOM     24  C   UNL     1       2.104  10.786  -3.018  0.00  0.00    -0.033 C 
ATOM     25  C   UNL     1       2.140  11.268  -4.282  0.00  0.00    -0.001 A 
ATOM     26  C   UNL     1       1.183  11.219  -5.393  0.00  0.00    +0.010 A 
ATOM     27  C   UNL     1       1.509  11.807  -6.566  0.00  0.00    +0.001 A 
ATOM     28  C   UNL     1       2.736  12.459  -6.748  0.00  0.00    +0.002 A 
ATOM     29  C   UNL     1       3.667  12.545  -5.774  0.00  0.00    +0.026 A 
ATOM     30  C   UNL     1       3.429  11.963  -4.499  0.00  0.00    +0.043 A 
ATOM     31  N   UNL     1       4.161  11.913  -3.412  0.00  0.00    -0.380 N 
ATOM     32  C   UNL     1       3.415  11.184  -2.380  0.00  0.00    +0.145 C 
ATOM     33  H   UNL     1       5.046  12.296  -3.307  0.00  0.00    +0.160 HD
ENDBRANCH  23  24
ENDBRANCH  20  23
ENDBRANCH   3  19
TORSDOF 5
