REMARK  Name = ZINC38776674
REMARK  5 active torsions:
REMARK  status: ('A' for Active; 'I' for Inactive)
REMARK    1  A    between atoms: C_4  and  C_7
REMARK    2  A    between atoms: C_13  and  C_21
REMARK    3  A    between atoms: C_24  and  O_27
REMARK    4  A    between atoms: O_27  and  C_28
REMARK    5  A    between atoms: C_28  and  C_29
REMARK                            x       y       z     vdW  Elec       q    Type
REMARK                         _______ _______ _______ _____ _____    ______ ____
ROOT
ATOM      1  C   UNL     1       3.696  -0.684  -0.038  0.00  0.00    +0.154 C 
ATOM      2  N   UNL     1       4.795   0.045  -0.041  0.00  0.00    -0.160 NA
ATOM      3  C   UNL     1       6.012  -0.503  -0.121  0.00  0.00    +0.249 C 
ATOM      4  O   UNL     1       7.021   0.174  -0.095  0.00  0.00    -0.273 OA
ATOM      5  C   UNL     1       6.071  -2.012  -0.246  0.00  0.00    +0.148 C 
ATOM      6  C   UNL     1       6.956  -2.552   0.879  0.00  0.00    +0.047 C 
ATOM      7  C   UNL     1       7.161  -4.053   0.662  0.00  0.00    +0.105 C 
ATOM      8  C   UNL     1       5.852  -4.744   0.408  0.00  0.00    +0.219 C 
ATOM      9  O   UNL     1       5.792  -5.945   0.562  0.00  0.00    -0.275 OA
ATOM     10  N   UNL     1       4.745  -4.090   0.017  0.00  0.00    -0.273 N 
ATOM     11  C   UNL     1       4.743  -2.737  -0.126  0.00  0.00    +0.116 C 
ATOM     12  N   UNL     1       3.656  -2.021  -0.045  0.00  0.00    -0.218 NA
ATOM     13  H   UNL     1       3.938  -4.590  -0.181  0.00  0.00    +0.156 HD
ENDROOT
BRANCH   1  17
ATOM     14  C   UNL     1      -0.017   1.380   0.010  0.00  0.00    +0.000 A 
ATOM     15  C   UNL     1       1.168   2.094   0.002  0.00  0.00    +0.001 A 
ATOM     16  C   UNL     1       2.377   1.431  -0.013  0.00  0.00    +0.011 A 
ATOM     17  C   UNL     1       2.404   0.034  -0.021  0.00  0.00    +0.017 A 
ATOM     18  C   UNL     1       1.204  -0.681  -0.013  0.00  0.00    +0.011 A 
ATOM     19  C   UNL     1       0.002  -0.004   0.002  0.00  0.00    +0.001 A 
ENDBRANCH   1  17
BRANCH   6  20
ATOM     20  C   UNL     1       8.288  -1.848   0.856  0.00  0.00    -0.042 A 
ATOM     21  C   UNL     1       9.089  -1.922  -0.268  0.00  0.00    +0.007 A 
ATOM     22  C   UNL     1      10.311  -1.277  -0.291  0.00  0.00    +0.046 A 
ATOM     23  C   UNL     1      10.734  -0.555   0.815  0.00  0.00    +0.121 A 
ATOM     24  C   UNL     1       9.928  -0.482   1.942  0.00  0.00    +0.046 A 
ATOM     25  C   UNL     1       8.705  -1.124   1.958  0.00  0.00    +0.007 A 
BRANCH  23  26
ATOM     26  O   UNL     1      11.935   0.079   0.795  0.00  0.00    -0.483 OA
BRANCH  26  27
ATOM     27  C   UNL     1      12.306   0.804   1.970  0.00  0.00    +0.324 C 
BRANCH  27  28
ATOM     28  C   UNL     1      13.659   1.436   1.764  0.00  0.00    +0.248 C 
ATOM     29  O   UNL     1      14.247   1.281   0.716  0.00  0.00    -0.272 OA
ATOM     30  N   UNL     1      14.214   2.173   2.747  0.00  0.00    -0.327 N 
ATOM     31  H   UNL     1      13.743   2.297   3.586  0.00  0.00    +0.145 HD
ATOM     32  H   UNL     1      15.085   2.580   2.614  0.00  0.00    +0.145 HD
ENDBRANCH  27  28
ENDBRANCH  26  27
ENDBRANCH  23  26
ENDBRANCH   6  20
TORSDOF 5
