REMARK  Name = ZINC06064873
REMARK  8 active torsions:
REMARK  status: ('A' for Active; 'I' for Inactive)
REMARK    1  A    between atoms: C_1  and  C_2
REMARK    2  A    between atoms: C_2  and  C_4
REMARK    3  A    between atoms: C_2  and  O_15
REMARK    4  A    between atoms: N_6  and  C_7
REMARK    5  A    between atoms: C_11  and  C_13
REMARK    6  A    between atoms: O_15  and  C_16
REMARK    7  A    between atoms: C_16  and  C_18
REMARK    8  A    between atoms: C_19  and  C_20
REMARK                            x       y       z     vdW  Elec       q    Type
REMARK                         _______ _______ _______ _____ _____    ______ ____
ROOT
ATOM      1  C   UNL     1       0.519   8.043  -1.037  0.00  0.00    +0.062 C 
ATOM      2  C   UNL     1       1.090   7.434   0.245  0.00  0.00    +0.259 C 
ENDROOT
BRANCH   2   3
ATOM      3  C   UNL     1       1.104   5.932   0.124  0.00  0.00    +0.258 C 
ATOM      4  O   UNL     1       2.160   5.335   0.111  0.00  0.00    -0.271 OA
ATOM      5  N   UNL     1      -0.056   5.252   0.030  0.00  0.00    -0.282 N 
ATOM      6  H   UNL     1      -0.895   5.733  -0.036  0.00  0.00    +0.155 HD
BRANCH   5   7
ATOM      7  C   UNL     1      -0.048   3.853   0.029  0.00  0.00    +0.035 A 
ATOM      8  C   UNL     1      -0.994   3.153  -0.712  0.00  0.00    +0.023 A 
ATOM      9  C   UNL     1      -0.992   1.771  -0.717  0.00  0.00    +0.003 A 
ATOM     10  C   UNL     1      -0.050   1.076   0.014  0.00  0.00    +0.019 A 
ATOM     11  C   UNL     1       0.901   1.768   0.766  0.00  0.00    +0.054 A 
ATOM     12  C   UNL     1       0.902   3.164   0.766  0.00  0.00    +0.042 A 
BRANCH  11  13
ATOM     13  C   UNL     1       1.876   1.049   1.530  0.00  0.00    +0.099 C 
ATOM     14  N   UNL     1       2.649   0.479   2.136  0.00  0.00    -0.191 NA
ENDBRANCH  11  13
ENDBRANCH   5   7
ENDBRANCH   2   3
BRANCH   2  15
ATOM     15  O   UNL     1       2.423   7.908   0.446  0.00  0.00    -0.449 OA
BRANCH  15  16
ATOM     16  C   UNL     1       2.568   9.041   1.164  0.00  0.00    +0.333 C 
ATOM     17  O   UNL     1       1.588   9.610   1.607  0.00  0.00    -0.246 OA
BRANCH  16  18
ATOM     18  C   UNL     1       3.902   9.585   1.409  0.00  0.00    +0.092 C 
ATOM     19  C   UNL     1       4.047  10.719   2.128  0.00  0.00    +0.016 C 
BRANCH  19  20
ATOM     20  C   UNL     1       5.389  11.266   2.375  0.00  0.00    -0.006 A 
ATOM     21  C   UNL     1       6.519  10.612   1.871  0.00  0.00    +0.011 A 
ATOM     22  C   UNL     1       7.773  11.133   2.102  0.00  0.00    +0.020 A 
ATOM     23  C   UNL     1       7.919  12.297   2.840  0.00  0.00    +0.042 A 
ATOM     24  C   UNL     1       6.807  12.949   3.346  0.00  0.00    +0.040 A 
ATOM     25  C   UNL     1       5.544  12.442   3.119  0.00  0.00    +0.049 A 
ATOM     26 CL   UNL     1       4.151  13.259   3.755  0.00  0.00    -0.083 Cl
ATOM     27 CL   UNL     1       9.505  12.943   3.131  0.00  0.00    -0.083 Cl
ENDBRANCH  19  20
ENDBRANCH  16  18
ENDBRANCH  15  16
ENDBRANCH   2  15
TORSDOF 7
