REMARK  Name = ZINC35655676
REMARK  5 active torsions:
REMARK  status: ('A' for Active; 'I' for Inactive)
REMARK    1  A    between atoms: C_1  and  C_2
REMARK    2  A    between atoms: C_2  and  C_3
REMARK    3  A    between atoms: C_3  and  C_5
REMARK    4  A    between atoms: C_3  and  N_15
REMARK    5  A    between atoms: C_17  and  N_20
REMARK                            x       y       z     vdW  Elec       q    Type
REMARK                         _______ _______ _______ _____ _____    ______ ____
ROOT
ATOM      1  C   UNL     1       0.742  -0.511   1.242  0.00  0.00    +0.174 C 
ENDROOT
BRANCH   1   2
ATOM      2  C   UNL     1       0.870  -2.011   1.172  0.00  0.00    +0.158 A 
ATOM      3  N   UNL     1      -0.112  -2.871   1.108  0.00  0.00    -0.132 NA
ATOM      4  N   UNL     1       0.363  -4.067   1.052  0.00  0.00    -0.134 NA
ATOM      5  C   UNL     1       1.664  -4.021   1.075  0.00  0.00    +0.134 A 
ATOM      6  N   UNL     1       2.021  -2.718   1.158  0.00  0.00    -0.313 N 
ATOM      7  C   UNL     1       3.384  -2.192   1.236  0.00  0.00    +0.125 C 
ATOM      8  C   UNL     1       4.342  -3.157   0.532  0.00  0.00    +0.022 C 
ATOM      9  C   UNL     1       4.851  -4.197   1.529  0.00  0.00    +0.002 C 
ATOM     10  C   UNL     1       3.691  -5.018   2.084  0.00  0.00    +0.008 C 
ATOM     11  C   UNL     1       2.618  -5.186   1.011  0.00  0.00    +0.076 C 
ENDBRANCH   1   2
BRANCH   1  12
ATOM     12  N   UNL     1      -0.008  -0.140   2.444  0.00  0.00    -0.259 N 
ATOM     13  C   UNL     1      -1.362  -0.089   2.558  0.00  0.00    +0.131 A 
ATOM     14  C   UNL     1      -1.651   0.296   3.827  0.00  0.00    +0.063 A 
ATOM     15  C   UNL     1      -0.439   0.485   4.506  0.00  0.00    +0.157 A 
ATOM     16  N   UNL     1       0.541   0.219   3.681  0.00  0.00    -0.177 NA
BRANCH  14  17
ATOM     17  N   UNL     1      -2.939   0.475   4.366  0.00  0.00    -0.356 N 
ATOM     18  H   UNL     1      -3.722   0.319   3.815  0.00  0.00    +0.142 HD
ATOM     19  H   UNL     1      -3.045   0.753   5.290  0.00  0.00    +0.142 HD
ENDBRANCH  14  17
ENDBRANCH   1  12
BRANCH   1  21
ATOM     20  C   UNL     1      -0.019   1.526   0.010  0.00  0.00    +0.006 C 
ATOM     21  C   UNL     1       0.002  -0.004   0.002  0.00  0.00    +0.031 C 
ENDBRANCH   1  21
TORSDOF 4
