REMARK  Name = ZINC48007819
REMARK  6 active torsions:
REMARK  status: ('A' for Active; 'I' for Inactive)
REMARK    1  A    between atoms: C_1  and  C_2
REMARK    2  A    between atoms: C_8  and  C_10
REMARK    3  A    between atoms: N_18  and  C_19
REMARK    4  A    between atoms: C_22  and  C_25
REMARK    5  A    between atoms: C_25  and  O_27
REMARK    6  A    between atoms: O_27  and  C_28
REMARK                            x       y       z     vdW  Elec       q    Type
REMARK                         _______ _______ _______ _____ _____    ______ ____
ROOT
ATOM      1  C   UNL     1       0.239  -4.011   2.829  0.00  0.00    +0.078 C 
ATOM      2  C   UNL     1      -0.887  -3.975   1.794  0.00  0.00    +0.032 C 
ATOM      3  C   UNL     1      -0.941  -5.317   1.057  0.00  0.00    +0.110 C 
ATOM      4  N   UNL     1      -1.066  -6.396   2.048  0.00  0.00    -0.285 N 
ATOM      5  C   UNL     1      -0.087  -6.468   3.140  0.00  0.00    +0.110 C 
ATOM      6  C   UNL     1      -0.042  -5.113   3.853  0.00  0.00    +0.032 C 
ATOM      7  C   UNL     1      -2.061  -7.300   1.956  0.00  0.00    +0.306 C 
ATOM      8  O   UNL     1      -2.815  -7.279   1.003  0.00  0.00    -0.252 OA
ATOM      9  N   UNL     1      -2.219  -8.228   2.920  0.00  0.00    -0.269 N 
ATOM     10  H   UNL     1      -1.572  -8.294   3.640  0.00  0.00    +0.156 HD
ENDROOT
BRANCH   1  18
ATOM     11  C   UNL     1       3.893  -1.524   0.515  0.00  0.00    +0.009 C 
ATOM     12  C   UNL     1       3.193  -1.478   1.875  0.00  0.00    +0.003 C 
ATOM     13  C   UNL     1       3.295  -0.065   2.453  0.00  0.00    +0.006 C 
ATOM     14  C   UNL     1       2.624  -0.025   3.828  0.00  0.00    +0.019 C 
ATOM     15  C   UNL     1       1.142  -0.380   3.679  0.00  0.00    +0.108 C 
ATOM     16  N   UNL     1       1.032  -1.674   2.991  0.00  0.00    -0.301 N 
ATOM     17  C   UNL     1       1.717  -1.849   1.703  0.00  0.00    +0.111 C 
ATOM     18  C   UNL     1       0.318  -2.680   3.532  0.00  0.00    +0.219 C 
ATOM     19  O   UNL     1      -0.262  -2.515   4.585  0.00  0.00    -0.275 OA
ENDBRANCH   1  18
BRANCH   9  20
ATOM     20  C   UNL     1      -3.311  -9.094   2.882  0.00  0.00    +0.035 A 
ATOM     21  C   UNL     1      -3.810  -9.528   1.658  0.00  0.00    +0.024 A 
ATOM     22  C   UNL     1      -4.889 -10.382   1.617  0.00  0.00    +0.017 A 
ATOM     23  C   UNL     1      -5.483 -10.813   2.807  0.00  0.00    +0.059 A 
ATOM     24  C   UNL     1      -4.978 -10.375   4.035  0.00  0.00    +0.017 A 
ATOM     25  C   UNL     1      -3.896  -9.525   4.069  0.00  0.00    +0.024 A 
BRANCH  23  26
ATOM     26  C   UNL     1      -6.639 -11.728   2.768  0.00  0.00    +0.339 C 
ATOM     27  O   UNL     1      -7.076 -12.108   1.700  0.00  0.00    -0.245 OA
BRANCH  26  28
ATOM     28  O   UNL     1      -7.210 -12.143   3.915  0.00  0.00    -0.464 OA
ATOM     29  C   UNL     1      -8.326 -13.028   3.802  0.00  0.00    +0.280 C 
ENDBRANCH  26  28
ENDBRANCH  23  26
ENDBRANCH   9  20
TORSDOF 4
