REMARK  Name = ZINC49092451
REMARK  8 active torsions:
REMARK  status: ('A' for Active; 'I' for Inactive)
REMARK    1  A    between atoms: C_1  and  C_2
REMARK    2  A    between atoms: C_2  and  C_3
REMARK    3  A    between atoms: C_3  and  C_5
REMARK    4  A    between atoms: C_3  and  C_6
REMARK    5  A    between atoms: C_6  and  C_8
REMARK    6  A    between atoms: C_6  and  N_9
REMARK    7  A    between atoms: N_9  and  C_10
REMARK    8  A    between atoms: C_15  and  N_16
REMARK                            x       y       z     vdW  Elec       q    Type
REMARK                         _______ _______ _______ _____ _____    ______ ____
ROOT
ATOM      1  C   UNL     1      -3.055  -3.877  -0.279  0.00  0.00    +0.050 A 
ATOM      2  C   UNL     1      -2.017  -4.696  -0.699  0.00  0.00    +0.051 A 
ATOM      3  C   UNL     1      -2.284  -5.991  -1.113  0.00  0.00    +0.078 A 
ATOM      4  C   UNL     1      -3.592  -6.471  -1.109  0.00  0.00    +0.144 A 
ATOM      5  C   UNL     1      -4.628  -5.655  -0.690  0.00  0.00    +0.072 A 
ATOM      6  C   UNL     1      -4.362  -4.360  -0.270  0.00  0.00    +0.049 A 
ATOM      7  O   UNL     1      -3.838  -7.745  -1.520  0.00  0.00    -0.481 OA
ATOM      8  C   UNL     1      -2.992  -8.263  -2.551  0.00  0.00    +0.325 C 
ATOM      9  C   UNL     1      -1.552  -7.957  -2.226  0.00  0.00    +0.255 C 
ATOM     10  O   UNL     1      -0.674  -8.715  -2.579  0.00  0.00    -0.272 OA
ATOM     11  N   UNL     1      -1.245  -6.834  -1.540  0.00  0.00    -0.280 N 
ATOM     12  H   UNL     1      -0.320  -6.614  -1.345  0.00  0.00    +0.155 HD
ENDROOT
BRANCH   6  13
ATOM     13  N   UNL     1      -5.410  -3.534   0.160  0.00  0.00    -0.356 N 
ATOM     14  H   UNL     1      -5.225  -2.627   0.451  0.00  0.00    +0.142 HD
ATOM     15  H   UNL     1      -6.321  -3.869   0.167  0.00  0.00    +0.142 HD
ENDBRANCH   6  13
BRANCH   1  16
ATOM     16  N   UNL     1      -2.788  -2.566   0.141  0.00  0.00    -0.340 N 
ATOM     17  H   UNL     1      -3.513  -1.995   0.438  0.00  0.00    +0.146 HD
BRANCH  16  18
ATOM     18  C   UNL     1      -1.413  -2.059   0.130  0.00  0.00    +0.070 C 
ATOM     19  C   UNL     1      -0.711  -2.461   1.429  0.00  0.00    +0.028 C 
BRANCH  18  20
ATOM     20  C   UNL     1      -1.433  -0.534   0.013  0.00  0.00    +0.006 C 
ATOM     21  C   UNL     1      -2.135  -0.131  -1.286  0.00  0.00    +0.009 C 
BRANCH  20  23
ATOM     22  C   UNL     1      -0.019   1.526   0.010  0.00  0.00    +0.004 C 
ATOM     23  C   UNL     1       0.002  -0.004   0.002  0.00  0.00    +0.002 C 
ENDBRANCH  20  23
ENDBRANCH  18  20
ENDBRANCH  16  18
ENDBRANCH   1  16
TORSDOF 5
