REMARK  Name = ZINC09135739
REMARK  10 active torsions:
REMARK  status: ('A' for Active; 'I' for Inactive)
REMARK    1  A    between atoms: C_1  and  C_2
REMARK    2  A    between atoms: C_2  and  O_3
REMARK    3  A    between atoms: O_3  and  C_4
REMARK    4  A    between atoms: C_9  and  N_10
REMARK    5  A    between atoms: C_11  and  C_13
REMARK    6  A    between atoms: N_15  and  C_16
REMARK    7  A    between atoms: C_16  and  C_17
REMARK    8  A    between atoms: C_17  and  C_19
REMARK    9  A    between atoms: C_17  and  N_67
REMARK   10  A    between atoms: N_28  and  C_29
REMARK                            x       y       z     vdW  Elec       q    Type
REMARK                         _______ _______ _______ _____ _____    ______ ____
ROOT
ATOM      1  C   UNL     1       4.176  -2.962   4.158  0.00  0.00    +0.094 C 
ENDROOT
BRANCH   1   4
ATOM      2  C   UNL     1       5.955  -3.908   5.527  0.00  0.00    +0.299 C 
ATOM      3  O   UNL     1       6.650  -3.965   4.534  0.00  0.00    -0.265 OA
ATOM      4  N   UNL     1       4.701  -3.421   5.446  0.00  0.00    -0.309 N 
ATOM      5  H   UNL     1       4.146  -3.375   6.240  0.00  0.00    +0.149 HD
BRANCH   2   7
ATOM      6  N   UNL     1       7.745  -4.863   6.922  0.00  0.00    -0.275 N 
ATOM      7  C   UNL     1       6.491  -4.376   6.841  0.00  0.00    +0.303 C 
ATOM      8  O   UNL     1       5.796  -4.318   7.835  0.00  0.00    -0.265 OA
ATOM      9  H   UNL     1       8.325  -4.841   6.145  0.00  0.00    +0.155 HD
BRANCH   6  15
ATOM     10  C   UNL     1       9.577  -5.431   8.396  0.00  0.00    +0.142 A 
ATOM     11  C   UNL     1      10.032  -5.963   9.592  0.00  0.00    +0.047 A 
ATOM     12  C   UNL     1       9.130  -6.459  10.515  0.00  0.00    +0.004 A 
ATOM     13  C   UNL     1       7.774  -6.428  10.249  0.00  0.00    +0.002 A 
ATOM     14  C   UNL     1       7.311  -5.894   9.062  0.00  0.00    +0.027 A 
ATOM     15  C   UNL     1       8.210  -5.399   8.127  0.00  0.00    +0.076 A 
BRANCH  10  16
ATOM     16  O   UNL     1      10.462  -4.942   7.488  0.00  0.00    -0.490 OA
BRANCH  16  18
ATOM     17  C   UNL     1      12.684  -4.415   6.695  0.00  0.00    +0.048 C 
ATOM     18  C   UNL     1      11.848  -5.008   7.831  0.00  0.00    +0.226 C 
ENDBRANCH  16  18
ENDBRANCH  10  16
ENDBRANCH   6  15
ENDBRANCH   2   7
ENDBRANCH   1   4
BRANCH   1  19
ATOM     19  C   UNL     1       2.685  -2.648   4.297  0.00  0.00    -0.020 C 
BRANCH  19  20
ATOM     20  C   UNL     1       2.201  -1.946   3.055  0.00  0.00    -0.059 A 
ATOM     21  C   UNL     1       2.052  -2.651   1.874  0.00  0.00    +0.004 A 
ATOM     22  C   UNL     1       1.612  -2.005   0.739  0.00  0.00    +0.023 A 
ATOM     23  C   UNL     1       1.313  -0.642   0.771  0.00  0.00    +0.033 A 
ATOM     24  C   UNL     1       1.460   0.057   1.956  0.00  0.00    -0.026 A 
ATOM     25  C   UNL     1       1.906  -0.598   3.094  0.00  0.00    +0.007 A 
ATOM     26  C   UNL     1       1.145   1.528   2.061  0.00  0.00    +0.038 C 
ATOM     27  C   UNL     1       1.048   2.135   0.659  0.00  0.00    +0.024 C 
ATOM     28  C   UNL     1       0.166   1.214  -0.194  0.00  0.00    +0.105 C 
ATOM     29  N   UNL     1       0.878  -0.047  -0.412  0.00  0.00    -0.333 N 
ATOM     30  C   UNL     1       0.066  -0.980  -1.203  0.00  0.00    +0.129 C 
ENDBRANCH  19  20
BRANCH  19  35
ATOM     31  C   UNL     1       2.084  -4.416   5.860  0.00  0.00    -0.078 C 
ATOM     32  C   UNL     1       0.872  -5.368   6.015  0.00  0.00    -0.020 C 
ATOM     33  C   UNL     1      -0.247  -4.631   5.245  0.00  0.00    -0.020 C 
ATOM     34  C   UNL     1       0.486  -3.682   4.279  0.00  0.00    -0.078 C 
ATOM     35  N   UNL     1       1.916  -3.915   4.487  0.00  0.00    +0.385 N 
ATOM     36  H   UNL     1       2.254  -4.617   3.818  0.00  0.00    -0.081 HD
ENDBRANCH  19  35
ENDBRANCH   1  19
TORSDOF 8
