REMARK  Name = ZINC35188450
REMARK  5 active torsions:
REMARK  status: ('A' for Active; 'I' for Inactive)
REMARK    1  A    between atoms: C_6  and  N_7
REMARK    2  A    between atoms: N_10  and  CA_11
REMARK    3  A    between atoms: CA_11  and  CB_13
REMARK    4  A    between atoms: CA_11  and  C_20
REMARK    5  A    between atoms: CB_13  and  CG_14
REMARK                            x       y       z     vdW  Elec       q    Type
REMARK                         _______ _______ _______ _____ _____    ______ ____
ROOT
ATOM      1  N   UNK A   0      -1.200  -0.722   0.010  0.00  0.00    -0.269 N 
ATOM      2  C   UNK A   0      -1.184  -2.065  -0.099  0.00  0.00    +0.305 C 
ATOM      3  O   UNK A   0      -0.124  -2.661  -0.113  0.00  0.00    -0.252 OA
ATOM      4  N   HIS A   1      -2.342  -2.747  -0.193  0.00  0.00    -0.285 N 
ATOM      5  H   UNK A   0      -2.044  -0.252   0.099  0.00  0.00    +0.156 HD
ATOM      6  H   HIS A   1      -3.188  -2.272  -0.182  0.00  0.00    +0.151 HD
ENDROOT
BRANCH   1  12
ATOM      7  C   UNK A   0       1.071  -0.453  -0.767  0.00  0.00    +0.025 A 
ATOM      8  C   UNK A   0       2.256   0.257  -0.781  0.00  0.00    +0.023 A 
ATOM      9  C   UNK A   0       2.378   1.416  -0.035  0.00  0.00    +0.059 A 
ATOM     10  C   UNK A   0       1.313   1.867   0.727  0.00  0.00    +0.061 A 
ATOM     11  C   UNK A   0       0.126   1.159   0.744  0.00  0.00    +0.044 A 
ATOM     12  C   UNK A   0       0.002  -0.004  -0.005  0.00  0.00    +0.036 A 
ATOM     13 CL   UNK A   0       1.470   3.321   1.662  0.00  0.00    -0.082 Cl
ATOM     14 CL   UNK A   0       3.869   2.305  -0.055  0.00  0.00    -0.082 Cl
ENDBRANCH   1  12
BRANCH   4  15
ATOM     15  CA  HIS A   1      -2.325  -4.207  -0.311  0.00  0.00    +0.193 C 
BRANCH  15  16
ATOM     16  C   HIS A   1      -2.241  -4.822   1.062  0.00  0.00    +0.376 C 
ATOM     17  O   HIS A   1      -2.383  -4.124   2.052  0.00  0.00    -0.244 OA
ATOM     18  OXT HIS A   1      -2.031  -6.017   1.184  0.00  0.00    -0.244 OA
ENDBRANCH  15  16
BRANCH  15  19
ATOM     19  CB  HIS A   1      -3.605  -4.678  -1.004  0.00  0.00    +0.088 C 
BRANCH  19  20
ATOM     20  CG  HIS A   1      -3.629  -4.163  -2.420  0.00  0.00    +0.035 A 
ATOM     21  CD2 HIS A   1      -4.060  -2.955  -2.827  0.00  0.00    +0.105 A 
ATOM     22  NE2 HIS A   1      -3.915  -2.889  -4.159  0.00  0.00    -0.352 N 
ATOM     23  HD1 HIS A   1      -2.843  -5.730  -3.569  0.00  0.00    +0.166 HD
ATOM     24  CE1 HIS A   1      -3.410  -4.012  -4.592  0.00  0.00    +0.171 A 
ATOM     25  ND1 HIS A   1      -3.211  -4.833  -3.538  0.00  0.00    -0.350 N 
ATOM     26  HE2 HIS A   1      -4.148  -2.128  -4.713  0.00  0.00    +0.166 HD
ENDBRANCH  19  20
ENDBRANCH  15  19
ENDBRANCH   4  15
TORSDOF 5
