REMARK  Name = ZINC02216701
REMARK  8 active torsions:
REMARK  status: ('A' for Active; 'I' for Inactive)
REMARK    1  A    between atoms: C_1  and  C_2
REMARK    2  A    between atoms: C_2  and  O_3
REMARK    3  A    between atoms: O_3  and  C_4
REMARK    4  A    between atoms: C_4  and  C_6
REMARK    5  A    between atoms: C_7  and  N_33
REMARK    6  A    between atoms: C_12  and  C_13
REMARK    7  A    between atoms: C_21  and  C_30
REMARK    8  A    between atoms: C_22  and  C_24
REMARK                            x       y       z     vdW  Elec       q    Type
REMARK                         _______ _______ _______ _____ _____    ______ ____
ROOT
ATOM      1  C   UNL     1       3.205   0.099   1.437  0.00  0.00    +0.087 C 
ATOM      2  C   UNL     1       4.450   0.631   1.422  0.00  0.00    +0.115 C 
ATOM      3  N   UNL     1       5.145   0.944   0.250  0.00  0.00    -0.257 N 
ATOM      4  C   UNL     1       6.385   1.473   0.247  0.00  0.00    +0.271 A 
ATOM      5  O   UNL     1       6.966   1.706   1.290  0.00  0.00    -0.266 OA
ATOM      6  C   UNL     1       7.018   1.762  -1.047  0.00  0.00    +0.079 A 
ATOM      7  C   UNL     1       8.240   2.288  -1.309  0.00  0.00    +0.028 C 
ATOM      8  S   UNL     1       5.743   1.235  -2.180  0.00  0.00    -0.065 S 
ATOM      9  C   UNL     1       4.546   0.707  -0.971  0.00  0.00    +0.099 A 
ATOM     10  C   UNL     1       3.304   0.179  -1.126  0.00  0.00    +0.057 C 
ATOM     11  C   UNL     1       2.513  -0.177   0.117  0.00  0.00    +0.097 C 
ENDROOT
BRANCH   7  12
ATOM     12  C   UNL     1       8.745   2.322  -2.689  0.00  0.00    -0.024 A 
ATOM     13  C   UNL     1       8.185   1.488  -3.664  0.00  0.00    +0.008 A 
ATOM     14  C   UNL     1       8.660   1.530  -4.957  0.00  0.00    +0.001 A 
ATOM     15  C   UNL     1       9.695   2.387  -5.291  0.00  0.00    +0.000 A 
ATOM     16  C   UNL     1      10.258   3.211  -4.332  0.00  0.00    +0.001 A 
ATOM     17  C   UNL     1       9.791   3.185  -3.035  0.00  0.00    +0.008 A 
ENDBRANCH   7  12
BRANCH  11  18
ATOM     18  C   UNL     1       1.220   0.597   0.092  0.00  0.00    -0.035 A 
ATOM     19  C   UNL     1       0.012  -0.074   0.088  0.00  0.00    +0.004 A 
ATOM     20  C   UNL     1      -1.173   0.635   0.058  0.00  0.00    +0.000 A 
ATOM     21  C   UNL     1      -1.151   2.018   0.043  0.00  0.00    +0.000 A 
ATOM     22  C   UNL     1       0.057   2.689   0.047  0.00  0.00    +0.000 A 
ATOM     23  C   UNL     1       1.243   1.979   0.071  0.00  0.00    +0.004 A 
ENDBRANCH  11  18
BRANCH  10  24
ATOM     24  C   UNL     1       2.766  -0.032  -2.406  0.00  0.00    +0.241 C 
ATOM     25  O   UNL     1       3.416   0.259  -3.396  0.00  0.00    -0.271 OA
ATOM     26  N   UNL     1       1.532  -0.557  -2.540  0.00  0.00    -0.326 N 
ATOM     27  H   UNL     1       1.016  -0.789  -1.753  0.00  0.00    +0.145 HD
ATOM     28  H   UNL     1       1.161  -0.703  -3.424  0.00  0.00    +0.145 HD
ENDBRANCH  10  24
BRANCH   2  29
ATOM     29  N   UNL     1       5.064   0.875   2.622  0.00  0.00    -0.344 N 
ATOM     30  H   UNL     1       5.566   1.695   2.752  0.00  0.00    +0.144 HD
ATOM     31  H   UNL     1       4.995   0.229   3.342  0.00  0.00    +0.144 HD
ENDBRANCH   2  29
BRANCH   1  32
ATOM     32  C   UNL     1       2.567  -0.191   2.653  0.00  0.00    +0.339 C 
ATOM     33  O   UNL     1       3.098   0.111   3.707  0.00  0.00    -0.245 OA
BRANCH  32  34
ATOM     34  O   UNL     1       1.363  -0.805   2.654  0.00  0.00    -0.462 OA
BRANCH  34  36
ATOM     35  C   UNL     1      -0.577  -1.764   3.729  0.00  0.00    +0.048 C 
ATOM     36  C   UNL     1       0.772  -1.069   3.928  0.00  0.00    +0.229 C 
ENDBRANCH  34  36
ENDBRANCH  32  34
ENDBRANCH   1  32
TORSDOF 7
