REMARK  Name = ZINC48587688
REMARK  8 active torsions:
REMARK  status: ('A' for Active; 'I' for Inactive)
REMARK    1  A    between atoms: C_1  and  N_2
REMARK    2  A    between atoms: N_2  and  C_3
REMARK    3  A    between atoms: N_2  and  C_23
REMARK    4  A    between atoms: C_3  and  C_4
REMARK    5  A    between atoms: C_9  and  N_10
REMARK    6  A    between atoms: C_11  and  C_13
REMARK    7  A    between atoms: N_15  and  C_16
REMARK    8  A    between atoms: C_16  and  C_17
REMARK                            x       y       z     vdW  Elec       q    Type
REMARK                         _______ _______ _______ _____ _____    ______ ____
ROOT
ATOM      1  C   UNL     1      -0.056  -0.115   2.442  0.00  0.00    -0.043 A 
ATOM      2  C   UNL     1       0.329   0.980   3.192  0.00  0.00    +0.003 A 
ATOM      3  C   UNL     1      -0.377   1.322   4.331  0.00  0.00    +0.000 A 
ATOM      4  C   UNL     1      -1.470   0.571   4.723  0.00  0.00    +0.002 A 
ATOM      5  C   UNL     1      -1.860  -0.524   3.978  0.00  0.00    +0.023 A 
ATOM      6  C   UNL     1      -1.157  -0.868   2.830  0.00  0.00    +0.035 A 
ENDROOT
BRANCH   6   7
ATOM      7  N   UNL     1      -1.552  -1.972   2.071  0.00  0.00    -0.278 N 
ATOM      8  C   UNL     1      -2.830  -2.398   2.116  0.00  0.00    +0.303 C 
ATOM      9  O   UNL     1      -3.659  -1.765   2.736  0.00  0.00    -0.265 OA
ATOM     10  H   UNL     1      -0.907  -2.432   1.511  0.00  0.00    +0.155 HD
BRANCH   8  11
ATOM     11  C   UNL     1      -3.226  -3.650   1.403  0.00  0.00    +0.299 C 
ATOM     12  O   UNL     1      -2.397  -4.282   0.783  0.00  0.00    -0.265 OA
ATOM     13  N   UNL     1      -4.503  -4.076   1.448  0.00  0.00    -0.305 N 
ATOM     14  H   UNL     1      -5.166  -3.570   1.944  0.00  0.00    +0.149 HD
BRANCH  13  15
ATOM     15  C   UNL     1      -4.891  -5.303   0.749  0.00  0.00    +0.136 C 
BRANCH  15  16
ATOM     16  C   UNL     1      -6.385  -5.559   0.959  0.00  0.00    +0.135 C 
ATOM     17  C   UNL     1      -6.809  -6.873   0.256  0.00  0.00    +0.035 C 
ATOM     18  C   UNL     1      -8.062  -7.262   1.088  0.00  0.00    +0.031 C 
ATOM     19  C   UNL     1      -7.683  -6.768   2.500  0.00  0.00    +0.160 C 
ATOM     20  O   UNL     1      -6.664  -5.771   2.352  0.00  0.00    -0.375 OA
ENDBRANCH  15  16
ENDBRANCH  13  15
ENDBRANCH   8  11
ENDBRANCH   6   7
BRANCH   1  21
ATOM     21  C   UNL     1       0.715  -0.488   1.202  0.00  0.00    -0.041 C 
BRANCH  21  23
ATOM     22  C   UNL     1      -0.013   1.478   0.036  0.00  0.00    -0.095 C 
ATOM     23  N   UNL     1       0.004   0.009   0.016  0.00  0.00    +0.382 N 
ATOM     24  H   UNL     1      -0.943  -0.338   0.021  0.00  0.00    -0.081 HD
BRANCH  23  25
ATOM     25  C   UNL     1       0.690  -0.456  -1.196  0.00  0.00    -0.069 C 
ATOM     26  C   UNL     1       0.708  -1.986  -1.217  0.00  0.00    -0.015 C 
ATOM     27  C   UNL     1       1.422  -2.470  -2.480  0.00  0.00    -0.002 C 
ATOM     28  C   UNL     1       0.682  -1.952  -3.715  0.00  0.00    -0.000 C 
ATOM     29  C   UNL     1       0.664  -0.423  -3.695  0.00  0.00    -0.002 C 
ATOM     30  C   UNL     1      -0.050   0.062  -2.431  0.00  0.00    -0.015 C 
ENDBRANCH  23  25
ENDBRANCH  21  23
ENDBRANCH   1  21
TORSDOF 7
