REMARK  Name = ZINC06802034
REMARK  7 active torsions:
REMARK  status: ('A' for Active; 'I' for Inactive)
REMARK    1  A    between atoms: C_1  and  C_2
REMARK    2  A    between atoms: C_2  and  N_3
REMARK    3  A    between atoms: C_4  and  C_26
REMARK    4  A    between atoms: C_5  and  C_20
REMARK    5  A    between atoms: C_6  and  C_11
REMARK    6  A    between atoms: C_15  and  N_17
REMARK    7  A    between atoms: N_22  and  C_23
REMARK                            x       y       z     vdW  Elec       q    Type
REMARK                         _______ _______ _______ _____ _____    ______ ____
ROOT
ATOM      1  N   UNL     1       0.621  -0.449  -1.247  0.00  0.00    -0.286 N 
ATOM      2  C   UNL     1      -0.069  -0.773  -2.380  0.00  0.00    +0.020 C 
ATOM      3  C   UNL     1       0.568  -1.241  -3.474  0.00  0.00    +0.056 C 
ATOM      4  C   UNL     1       2.074  -1.393  -3.403  0.00  0.00    +0.139 C 
ATOM      5  N   UNL     1       2.723  -1.015  -2.137  0.00  0.00    -0.315 N 
ATOM      6  C   UNL     1       1.951  -0.558  -1.131  0.00  0.00    +0.138 C 
ATOM      7  S   UNL     1       2.693  -0.110   0.345  0.00  0.00    -0.018 S 
ATOM      8  C   UNL     1      -1.567  -0.607  -2.408  0.00  0.00    +0.061 C 
ATOM      9  H   UNL     1       3.684  -1.091  -2.030  0.00  0.00    +0.149 HD
ENDROOT
BRANCH   4  10
ATOM     10  C   UNL     1       2.677  -0.556  -4.502  0.00  0.00    -0.020 A 
ATOM     11  C   UNL     1       2.731   0.819  -4.373  0.00  0.00    +0.006 A 
ATOM     12  C   UNL     1       3.285   1.586  -5.380  0.00  0.00    +0.003 A 
ATOM     13  C   UNL     1       3.785   0.978  -6.517  0.00  0.00    +0.033 A 
ATOM     14  C   UNL     1       3.732  -0.397  -6.645  0.00  0.00    +0.127 A 
ATOM     15  C   UNL     1       3.182  -1.165  -5.635  0.00  0.00    +0.038 A 
BRANCH  14  16
ATOM     16  N   UNL     1       4.267  -1.048  -7.862  0.00  0.00    +0.056 N 
ATOM     17  O   UNL     1       4.751  -0.377  -8.744  0.00  0.00    -0.126 OA
ATOM     18  O   UNL     1       4.221  -2.251  -7.974  0.00  0.00    -0.126 OA
ENDBRANCH  14  16
ENDBRANCH   4  10
BRANCH   3  19
ATOM     19  C   UNL     1      -0.148  -1.579  -4.649  0.00  0.00    +0.244 C 
ATOM     20  O   UNL     1      -0.468  -2.735  -4.856  0.00  0.00    -0.270 OA
ATOM     21  N   UNL     1      -0.474  -0.620  -5.539  0.00  0.00    -0.309 N 
ATOM     22  H   UNL     1      -0.157   0.288  -5.412  0.00  0.00    +0.149 HD
BRANCH  21  23
ATOM     23  C   UNL     1      -1.308  -0.948  -6.697  0.00  0.00    +0.073 C 
ATOM     24  C   UNL     1      -0.894  -0.372  -8.053  0.00  0.00    +0.024 C 
ATOM     25  C   UNL     1      -2.121   0.185  -7.327  0.00  0.00    +0.024 C 
ENDBRANCH  21  23
ENDBRANCH   3  19
BRANCH   1  27
ATOM     26  C   UNL     1      -0.685  -1.128   0.705  0.00  0.00    +0.025 C 
ATOM     27  C   UNL     1      -0.134   0.053  -0.097  0.00  0.00    +0.109 C 
ENDBRANCH   1  27
TORSDOF 5
