REMARK  Name = ZINC64858083
REMARK  9 active torsions:
REMARK  status: ('A' for Active; 'I' for Inactive)
REMARK    1  A    between atoms: C_1  and  C_2
REMARK    2  A    between atoms: C_2  and  C_3
REMARK    3  A    between atoms: C_2  and  N_15
REMARK    4  A    between atoms: C_16  and  C_18
REMARK    5  A    between atoms: C_18  and  C_19
REMARK    6  A    between atoms: C_18  and  N_26
REMARK    7  A    between atoms: C_19  and  C_20
REMARK    8  A    between atoms: C_27  and  O_29
REMARK    9  A    between atoms: O_29  and  C_30
REMARK                            x       y       z     vdW  Elec       q    Type
REMARK                         _______ _______ _______ _____ _____    ______ ____
ROOT
ATOM      1  N   UNL     1       0.688  -0.476  -1.203  0.00  0.00    -0.307 N 
ATOM      2  C   UNL     1       2.031  -0.587  -1.215  0.00  0.00    +0.234 C 
ATOM      3  O   UNL     1       2.672  -0.295  -0.228  0.00  0.00    -0.274 OA
ATOM      4  H   UNL     1       0.175  -0.710  -1.993  0.00  0.00    +0.149 HD
ENDROOT
BRANCH   1   6
ATOM      5  C   UNL     1      -0.019   1.526   0.010  0.00  0.00    +0.033 C 
ATOM      6  C   UNL     1       0.002  -0.004   0.002  0.00  0.00    +0.100 C 
BRANCH   6   7
ATOM      7  C   UNL     1      -1.412  -0.526   0.013  0.00  0.00    -0.025 A 
ATOM      8  C   UNL     1      -2.140  -0.568  -1.164  0.00  0.00    +0.007 A 
ATOM      9  C   UNL     1      -3.436  -1.044  -1.164  0.00  0.00    +0.028 A 
ATOM     10  C   UNL     1      -4.011  -1.482   0.019  0.00  0.00    +0.067 A 
ATOM     11  C   UNL     1      -3.276  -1.440   1.206  0.00  0.00    +0.067 A 
ATOM     12  C   UNL     1      -1.974  -0.965   1.195  0.00  0.00    +0.033 A 
ATOM     13  N   UNL     1      -4.104  -1.937   2.210  0.00  0.00    -0.306 N 
ATOM     14  H   UNL     1      -3.868  -2.030   3.146  0.00  0.00    +0.170 HD
ATOM     15  C   UNL     1      -5.288  -2.267   1.659  0.00  0.00    +0.325 A 
ATOM     16  O   UNL     1      -6.237  -2.732   2.262  0.00  0.00    -0.247 OA
ATOM     17  N   UNL     1      -5.262  -2.004   0.338  0.00  0.00    -0.306 N 
ATOM     18  H   UNL     1      -5.991  -2.152  -0.284  0.00  0.00    +0.170 HD
ENDBRANCH   6   7
ENDBRANCH   1   6
BRANCH   2  19
ATOM     19  C   UNL     1       2.736  -1.073  -2.455  0.00  0.00    +0.166 C 
BRANCH  19  20
ATOM     20  N   UNL     1       4.072  -1.557  -2.099  0.00  0.00    -0.270 N 
ATOM     21  C   UNL     1       4.961  -0.721  -1.525  0.00  0.00    +0.401 C 
ATOM     22  O   UNL     1       4.654   0.433  -1.303  0.00  0.00    -0.226 OA
ATOM     23  H   UNL     1       4.318  -2.478  -2.276  0.00  0.00    +0.153 HD
BRANCH  21  24
ATOM     24  O   UNL     1       6.189  -1.166  -1.198  0.00  0.00    -0.454 OA
ATOM     25  C   UNL     1       7.079  -0.226  -0.593  0.00  0.00    +0.282 C 
ENDBRANCH  21  24
ENDBRANCH  19  20
BRANCH  19  26
ATOM     26  C   UNL     1       2.861   0.078  -3.455  0.00  0.00    +0.067 C 
BRANCH  26  27
ATOM     27  C   UNL     1       3.454  -0.436  -4.741  0.00  0.00    -0.045 A 
ATOM     28  C   UNL     1       4.825  -0.438  -4.917  0.00  0.00    +0.004 A 
ATOM     29  C   UNL     1       5.370  -0.910  -6.097  0.00  0.00    +0.000 A 
ATOM     30  C   UNL     1       4.544  -1.380  -7.101  0.00  0.00    +0.000 A 
ATOM     31  C   UNL     1       3.173  -1.379  -6.924  0.00  0.00    +0.000 A 
ATOM     32  C   UNL     1       2.628  -0.911  -5.743  0.00  0.00    +0.004 A 
ENDBRANCH  26  27
ENDBRANCH  19  26
ENDBRANCH   2  19
TORSDOF 7
