REMARK  Name = ZINC62833995
REMARK  4 active torsions:
REMARK  status: ('A' for Active; 'I' for Inactive)
REMARK    1  A    between atoms: C_1  and  C_2
REMARK    2  A    between atoms: C_8  and  C_10
REMARK    3  A    between atoms: C_11  and  C_13
REMARK    4  A    between atoms: C_19  and  N_23
REMARK                            x       y       z     vdW  Elec       q    Type
REMARK                         _______ _______ _______ _____ _____    ______ ____
ROOT
ATOM      1  C   UNL     1       1.837  -4.218   1.110  0.00  0.00    +0.103 A 
ATOM      2  C   UNL     1       2.917  -5.039   1.189  0.00  0.00    +0.041 A 
ATOM      3  C   UNL     1       2.447  -6.375   1.155  0.00  0.00    +0.002 A 
ATOM      4  C   UNL     1       3.088  -7.622   1.202  0.00  0.00    +0.010 A 
ATOM      5  C   UNL     1       2.351  -8.768   1.149  0.00  0.00    +0.002 A 
ATOM      6  C   UNL     1       0.967  -8.717   1.048  0.00  0.00    +0.025 A 
ATOM      7  C   UNL     1       0.310  -7.502   1.000  0.00  0.00    +0.049 A 
ATOM      8  C   UNL     1       1.046  -6.314   1.054  0.00  0.00    +0.068 A 
ATOM      9  N   UNL     1       0.691  -4.985   1.032  0.00  0.00    -0.349 N 
ATOM     10  H   UNL     1      -0.214  -4.642   0.971  0.00  0.00    +0.166 HD
ENDROOT
BRANCH   1  19
ATOM     11  C   UNL     1       0.488   1.548  -0.567  0.00  0.00    +0.009 C 
ATOM     12  C   UNL     1       0.672   0.034  -0.692  0.00  0.00    +0.006 C 
ATOM     13  C   UNL     1      -0.550  -0.574  -1.383  0.00  0.00    +0.006 C 
ATOM     14  C   UNL     1      -0.352  -2.083  -1.538  0.00  0.00    +0.019 C 
ATOM     15  C   UNL     1      -0.214  -2.721  -0.152  0.00  0.00    +0.108 C 
ATOM     16  N   UNL     1       0.867  -2.042   0.575  0.00  0.00    -0.293 N 
ATOM     17  C   UNL     1       0.823  -0.579   0.704  0.00  0.00    +0.076 C 
ATOM     18  C   UNL     1       2.119  -0.081   1.346  0.00  0.00    +0.028 C 
ATOM     19  C   UNL     1       1.881  -2.748   1.113  0.00  0.00    +0.263 C 
ATOM     20  O   UNL     1       2.833  -2.170   1.602  0.00  0.00    -0.268 OA
ENDBRANCH   1  19
BRANCH   7  21
ATOM     21  N   UNL     1      -1.085  -7.460   0.897  0.00  0.00    -0.356 N 
ATOM     22  H   UNL     1      -1.593  -8.286   0.859  0.00  0.00    +0.142 HD
ATOM     23  H   UNL     1      -1.543  -6.606   0.863  0.00  0.00    +0.142 HD
ENDBRANCH   7  21
TORSDOF 2
