REMARK  Name = ZINC45549514
REMARK  8 active torsions:
REMARK  status: ('A' for Active; 'I' for Inactive)
REMARK    1  A    between atoms: C_1  and  C_2
REMARK    2  A    between atoms: C_2  and  C_3
REMARK    3  A    between atoms: C_3  and  C_4
REMARK    4  A    between atoms: C_4  and  N_5
REMARK    5  A    between atoms: N_5  and  C_6
REMARK    6  A    between atoms: C_7  and  C_9
REMARK    7  A    between atoms: C_9  and  N_10
REMARK    8  A    between atoms: C_18  and  C_20
REMARK                            x       y       z     vdW  Elec       q    Type
REMARK                         _______ _______ _______ _____ _____    ______ ____
ROOT
ATOM      1  N   UNL     1       0.455  -3.384  -5.920  0.00  0.00    -0.215 N 
ATOM      2  C   UNL     1      -0.222  -4.526  -6.158  0.00  0.00    +0.247 C 
ATOM      3  O   UNL     1      -0.143  -5.568  -5.542  0.00  0.00    -0.273 OA
ATOM      4  C   UNL     1      -1.099  -4.234  -7.354  0.00  0.00    +0.115 C 
ATOM      5  C   UNL     1      -0.737  -5.153  -8.516  0.00  0.00    +0.035 C 
ATOM      6  C   UNL     1      -1.615  -4.820  -9.725  0.00  0.00    +0.003 C 
ATOM      7  C   UNL     1      -3.087  -5.001  -9.349  0.00  0.00    +0.000 C 
ATOM      8  C   UNL     1      -3.441  -4.057  -8.198  0.00  0.00    +0.006 C 
ATOM      9  C   UNL     1      -2.570  -4.386  -6.983  0.00  0.00    +0.018 C 
ATOM     10  C   UNL     1      -2.909  -3.429  -5.838  0.00  0.00    +0.010 C 
ATOM     11  N   UNL     1      -0.794  -2.837  -7.687  0.00  0.00    -0.285 N 
ATOM     12  C   UNL     1       0.122  -2.423  -6.790  0.00  0.00    +0.310 C 
ATOM     13  O   UNL     1       0.595  -1.304  -6.775  0.00  0.00    -0.252 OA
ATOM     14  H   UNL     1      -1.178  -2.315  -8.409  0.00  0.00    +0.151 HD
ENDROOT
BRANCH   1  15
ATOM     15  C   UNL     1       1.429  -3.214  -4.839  0.00  0.00    +0.213 C 
BRANCH  15  18
ATOM     16  N   UNL     1       1.425  -2.500  -2.470  0.00  0.00    -0.303 N 
ATOM     17  C   UNL     1       2.872  -2.724  -2.449  0.00  0.00    +0.132 C 
ATOM     18  C   UNL     1       0.724  -2.728  -3.599  0.00  0.00    +0.233 C 
ATOM     19  O   UNL     1      -0.474  -2.542  -3.616  0.00  0.00    -0.274 OA
BRANCH  16  20
ATOM     20  C   UNL     1       0.739  -2.027  -1.265  0.00  0.00    +0.107 C 
BRANCH  20  21
ATOM     21  C   UNL     1       0.718  -0.497  -1.257  0.00  0.00    +0.019 C 
BRANCH  21  23
ATOM     22  C   UNL     1      -0.019   1.526   0.010  0.00  0.00    +0.004 C 
ATOM     23  C   UNL     1       0.002  -0.004   0.002  0.00  0.00    -0.002 C 
ENDBRANCH  21  23
ENDBRANCH  20  21
ENDBRANCH  16  20
ENDBRANCH  15  18
ENDBRANCH   1  15
TORSDOF 5
