REMARK  Name = ZINC66129185
REMARK  4 active torsions:
REMARK  status: ('A' for Active; 'I' for Inactive)
REMARK    1  A    between atoms: C_1  and  C_2
REMARK    2  A    between atoms: N_18  and  C_19
REMARK    3  A    between atoms: C_19  and  C_20
REMARK    4  A    between atoms: C_20  and  C_21
REMARK                            x       y       z     vdW  Elec       q    Type
REMARK                         _______ _______ _______ _____ _____    ______ ____
ROOT
ATOM      1  C   UNL     1      -0.019   1.526   0.010  0.00  0.00    +0.007 C 
ATOM      2  C   UNL     1       0.002  -0.004   0.002  0.00  0.00    -0.010 C 
ATOM      3  C   UNL     1       0.718  -0.497  -1.257  0.00  0.00    +0.003 C 
ATOM      4  C   UNL     1       0.740  -2.027  -1.265  0.00  0.00    +0.004 C 
ATOM      5  C   UNL     1       1.478  -2.534  -0.025  0.00  0.00    +0.046 C 
ATOM      6  C   UNL     1       0.759  -2.042   1.233  0.00  0.00    +0.102 C 
ATOM      7  C   UNL     1       0.742  -0.511   1.242  0.00  0.00    +0.049 C 
ATOM      8  N   UNL     1      -0.622  -2.539   1.226  0.00  0.00    -0.323 N 
ATOM      9  C   UNL     1      -1.352  -2.501   2.409  0.00  0.00    +0.041 A 
ATOM     10  C   UNL     1      -2.730  -2.368   2.412  0.00  0.00    +0.024 A 
ATOM     11  C   UNL     1      -3.412  -2.345   3.613  0.00  0.00    +0.002 A 
ATOM     12  C   UNL     1      -2.728  -2.455   4.814  0.00  0.00    +0.001 A 
ATOM     13  C   UNL     1      -1.355  -2.583   4.828  0.00  0.00    +0.015 A 
ATOM     14  C   UNL     1      -0.654  -2.603   3.624  0.00  0.00    +0.058 A 
ATOM     15  C   UNL     1       0.815  -2.714   3.588  0.00  0.00    +0.250 C 
ATOM     16  O   UNL     1       1.436  -2.973   4.601  0.00  0.00    -0.270 OA
ATOM     17  N   UNL     1       1.464  -2.527   2.421  0.00  0.00    -0.276 N 
ATOM     18  H   UNL     1      -1.018  -2.886   0.411  0.00  0.00    +0.148 HD
ENDROOT
BRANCH  17  19
ATOM     19  C   UNL     1       2.898  -2.814   2.340  0.00  0.00    +0.115 C 
BRANCH  19  20
ATOM     20  C   UNL     1       3.691  -1.555   2.693  0.00  0.00    +0.054 C 
BRANCH  20  21
ATOM     21  C   UNL     1       5.167  -1.851   2.610  0.00  0.00    -0.046 A 
ATOM     22  C   UNL     1       5.842  -2.315   3.723  0.00  0.00    +0.004 A 
ATOM     23  C   UNL     1       7.196  -2.586   3.647  0.00  0.00    +0.000 A 
ATOM     24  C   UNL     1       7.873  -2.393   2.458  0.00  0.00    +0.000 A 
ATOM     25  C   UNL     1       7.197  -1.930   1.344  0.00  0.00    +0.000 A 
ATOM     26  C   UNL     1       5.843  -1.663   1.419  0.00  0.00    +0.004 A 
ENDBRANCH  20  21
ENDBRANCH  19  20
ENDBRANCH  17  19
TORSDOF 3
