REMARK  Name = ZINC08695545
REMARK  13 active torsions:
REMARK  status: ('A' for Active; 'I' for Inactive)
REMARK    1  A    between atoms: C_1  and  C_2
REMARK    2  A    between atoms: C_7  and  N_8
REMARK    3  A    between atoms: C_9  and  C_11
REMARK    4  A    between atoms: C_12  and  C_46
REMARK    5  A    between atoms: C_19  and  C_20
REMARK    6  A    between atoms: C_22  and  C_32
REMARK    7  A    between atoms: N_23  and  C_26
REMARK    8  A    between atoms: C_24  and  C_25
REMARK    9  A    between atoms: C_34  and  C_36
REMARK   10  A    between atoms: C_39  and  O_44
REMARK   11  A    between atoms: C_40  and  O_42
REMARK   12  A    between atoms: O_42  and  C_43
REMARK   13  A    between atoms: O_44  and  C_45
REMARK                            x       y       z     vdW  Elec       q    Type
REMARK                         _______ _______ _______ _____ _____    ______ ____
ROOT
ATOM      1  C   UNL     1      -0.452   3.780   0.027  0.00  0.00    +0.063 C 
ATOM      2  C   UNL     1       0.801   4.160   0.415  0.00  0.00    +0.051 C 
ATOM      3  N   UNL     1       1.819   3.312   0.334  0.00  0.00    -0.228 NA
ATOM      4  C   UNL     1       1.733   2.081  -0.105  0.00  0.00    +0.178 A 
ATOM      5  N   UNL     1       0.565   1.500  -0.544  0.00  0.00    -0.275 N 
ATOM      6  C   UNL     1       0.601   0.231  -0.970  0.00  0.00    +0.268 A 
ATOM      7  O   UNL     1      -0.407  -0.325  -1.368  0.00  0.00    -0.266 OA
ATOM      8  C   UNL     1       1.889  -0.470  -0.945  0.00  0.00    +0.081 A 
ATOM      9  C   UNL     1       2.187  -1.743  -1.319  0.00  0.00    +0.030 C 
ATOM     10  S   UNL     1       2.959   0.801  -0.290  0.00  0.00    -0.046 S 
ATOM     11  C   UNL     1      -0.639   2.376  -0.499  0.00  0.00    +0.160 C 
ATOM     12  C   UNL     1       1.030   5.554   0.940  0.00  0.00    +0.066 C 
ENDROOT
BRANCH   9  13
ATOM     13  C   UNL     1       3.563  -2.237  -1.204  0.00  0.00    -0.003 A 
ATOM     14  C   UNL     1       4.731  -1.493  -0.716  0.00  0.00    +0.031 A 
ATOM     15  C   UNL     1       5.777  -2.334  -0.783  0.00  0.00    +0.022 A 
ATOM     16  N   UNL     1       5.356  -3.536  -1.280  0.00  0.00    -0.317 N 
ATOM     17  C   UNL     1       4.025  -3.495  -1.539  0.00  0.00    +0.028 A 
ATOM     18  C   UNL     1       3.196  -4.624  -2.095  0.00  0.00    +0.064 C 
ATOM     19  C   UNL     1       7.191  -2.004  -0.379  0.00  0.00    +0.064 C 
BRANCH  16  20
ATOM     20  C   UNL     1       6.180  -4.649  -1.491  0.00  0.00    +0.047 A 
ATOM     21  C   UNL     1       5.986  -5.809  -0.752  0.00  0.00    +0.026 A 
ATOM     22  C   UNL     1       6.797  -6.907  -0.967  0.00  0.00    +0.002 A 
ATOM     23  C   UNL     1       7.808  -6.848  -1.909  0.00  0.00    +0.000 A 
ATOM     24  C   UNL     1       8.007  -5.693  -2.642  0.00  0.00    +0.002 A 
ATOM     25  C   UNL     1       7.196  -4.594  -2.436  0.00  0.00    +0.026 A 
ENDBRANCH  16  20
ENDBRANCH   9  13
BRANCH  11  26
ATOM     26  C   UNL     1      -1.674   1.697   0.361  0.00  0.00    -0.016 A 
ATOM     27  C   UNL     1      -1.311   1.165   1.585  0.00  0.00    +0.010 A 
ATOM     28  C   UNL     1      -2.258   0.546   2.381  0.00  0.00    +0.050 A 
ATOM     29  C   UNL     1      -3.570   0.449   1.947  0.00  0.00    +0.162 A 
ATOM     30  C   UNL     1      -3.934   0.980   0.713  0.00  0.00    +0.162 A 
ATOM     31  C   UNL     1      -2.982   1.603  -0.077  0.00  0.00    +0.055 A 
BRANCH  30  32
ATOM     32  O   UNL     1      -5.221   0.887   0.284  0.00  0.00    -0.491 OA
ATOM     33  C   UNL     1      -5.500   1.360  -1.035  0.00  0.00    +0.277 C 
ENDBRANCH  30  32
BRANCH  29  34
ATOM     34  O   UNL     1      -4.501  -0.164   2.727  0.00  0.00    -0.491 OA
ATOM     35  C   UNL     1      -4.056  -0.685   3.981  0.00  0.00    +0.277 C 
ENDBRANCH  29  34
ENDBRANCH  11  26
BRANCH   1  37
ATOM     36  N   UNL     1      -2.139   4.893   1.294  0.00  0.00    -0.281 N 
ATOM     37  C   UNL     1      -1.537   4.672   0.109  0.00  0.00    +0.248 C 
ATOM     38  O   UNL     1      -1.931   5.245  -0.891  0.00  0.00    -0.270 OA
ATOM     39  H   UNL     1      -1.779   4.497   2.103  0.00  0.00    +0.155 HD
BRANCH  36  46
ATOM     40  C   UNL     1      -2.862   6.004   3.812  0.00  0.00    +0.045 C 
ATOM     41  C   UNL     1      -3.673   6.256   2.567  0.00  0.00    -0.029 A 
ATOM     42  C   UNL     1      -4.801   7.051   2.626  0.00  0.00    +0.005 A 
ATOM     43  C   UNL     1      -5.549   7.278   1.485  0.00  0.00    +0.000 A 
ATOM     44  C   UNL     1      -5.167   6.715   0.281  0.00  0.00    +0.002 A 
ATOM     45  C   UNL     1      -4.037   5.924   0.214  0.00  0.00    +0.023 A 
ATOM     46  C   UNL     1      -3.284   5.694   1.358  0.00  0.00    +0.037 A 
ENDBRANCH  36  46
ENDBRANCH   1  37
TORSDOF 7
