REMARK  Name = ZINC42015398
REMARK  4 active torsions:
REMARK  status: ('A' for Active; 'I' for Inactive)
REMARK    1  A    between atoms: C_4  and  C_7
REMARK    2  A    between atoms: C_7  and  N_8
REMARK    3  A    between atoms: C_9  and  C_13
REMARK    4  A    between atoms: C_17  and  N_19
REMARK                            x       y       z     vdW  Elec       q    Type
REMARK                         _______ _______ _______ _____ _____    ______ ____
ROOT
ATOM      1  N   UNL     1       3.839  -0.702   1.587  0.00  0.00    -0.221 N 
ATOM      2  C   UNL     1       4.996  -0.194   2.080  0.00  0.00    +0.182 A 
ATOM      3  N   UNL     1       5.417  -1.025   3.010  0.00  0.00    -0.108 NA
ATOM      4  N   UNL     1       4.605  -2.012   3.131  0.00  0.00    -0.023 NA
ATOM      5  N   UNL     1       3.620  -1.888   2.308  0.00  0.00    -0.043 NA
ENDROOT
BRANCH   2   6
ATOM      6  C   UNL     1       5.660   1.058   1.652  0.00  0.00    +0.022 A 
ATOM      7  C   UNL     1       6.343   1.841   2.584  0.00  0.00    +0.013 A 
ATOM      8  C   UNL     1       6.962   3.008   2.184  0.00  0.00    +0.018 A 
ATOM      9  C   UNL     1       6.909   3.405   0.860  0.00  0.00    +0.039 A 
ATOM     10  C   UNL     1       6.232   2.630  -0.076  0.00  0.00    +0.039 A 
ATOM     11  C   UNL     1       5.611   1.454   0.317  0.00  0.00    +0.035 A 
ATOM     12 BR   UNL     1       7.761   5.005   0.321  0.00  0.00    -0.048 Br
BRANCH  10  13
ATOM     13  N   UNL     1       6.181   3.035  -1.412  0.00  0.00    -0.357 N 
ATOM     14  H   UNL     1       6.618   3.856  -1.688  0.00  0.00    +0.142 HD
ATOM     15  H   UNL     1       5.708   2.495  -2.065  0.00  0.00    +0.142 HD
ENDBRANCH  10  13
ENDBRANCH   2   6
BRANCH   1  16
ATOM     16  C   UNL     1       2.996  -0.133   0.533  0.00  0.00    +0.182 C 
BRANCH  16  20
ATOM     17  C   UNL     1      -0.144   2.160   2.302  0.00  0.00    +0.000 A 
ATOM     18  C   UNL     1       1.059   2.764   1.987  0.00  0.00    +0.000 A 
ATOM     19  C   UNL     1       2.075   2.022   1.415  0.00  0.00    +0.005 A 
ATOM     20  C   UNL     1       1.888   0.676   1.158  0.00  0.00    -0.026 A 
ATOM     21  C   UNL     1       0.685   0.073   1.474  0.00  0.00    +0.005 A 
ATOM     22  C   UNL     1      -0.331   0.815   2.045  0.00  0.00    +0.000 A 
ENDBRANCH  16  20
ENDBRANCH   1  16
TORSDOF 4
