REMARK  Name = ZINC13150140
REMARK  8 active torsions:
REMARK  status: ('A' for Active; 'I' for Inactive)
REMARK    1  A    between atoms: C_4  and  C_7
REMARK    2  A    between atoms: C_10  and  C_12
REMARK    3  A    between atoms: C_14  and  C_29
REMARK    4  A    between atoms: C_15  and  S_19
REMARK    5  A    between atoms: C_17  and  N_18
REMARK    6  A    between atoms: S_19  and  C_20
REMARK    7  A    between atoms: C_20  and  C_21
REMARK    8  A    between atoms: C_21  and  C_23
REMARK                            x       y       z     vdW  Elec       q    Type
REMARK                         _______ _______ _______ _____ _____    ______ ____
ROOT
ATOM      1  C   UNL     1      -1.201   1.744  -0.029  0.00  0.00    +0.048 A 
ATOM      2  C   UNL     1       0.024   1.078  -0.064  0.00  0.00    +0.035 A 
ATOM      3  C   UNL     1       1.195   1.841  -0.023  0.00  0.00    +0.084 A 
ATOM      4  C   UNL     1       1.097   3.243   0.057  0.00  0.00    +0.117 A 
ATOM      5  N   UNL     1      -0.086   3.837   0.093  0.00  0.00    -0.224 NA
ATOM      6  C   UNL     1      -1.215   3.148   0.056  0.00  0.00    +0.127 A 
ENDROOT
BRANCH   1  10
ATOM      7  C   UNL     1      -3.875  -0.840  -0.094  0.00  0.00    +0.079 A 
ATOM      8  C   UNL     1      -4.956  -0.004  -0.187  0.00  0.00    +0.075 A 
ATOM      9  S   UNL     1      -4.145   1.589  -0.188  0.00  0.00    -0.075 S 
ATOM     10  C   UNL     1      -2.466   0.985  -0.076  0.00  0.00    +0.112 A 
ATOM     11  N   UNL     1      -2.660  -0.325  -0.041  0.00  0.00    -0.239 NA
BRANCH   7  15
ATOM     12  C   UNL     1      -4.426  -5.054   0.027  0.00  0.00    +0.000 A 
ATOM     13  C   UNL     1      -3.150  -4.524   0.082  0.00  0.00    +0.001 A 
ATOM     14  C   UNL     1      -2.965  -3.157   0.043  0.00  0.00    +0.010 A 
ATOM     15  C   UNL     1      -4.067  -2.310  -0.052  0.00  0.00    +0.001 A 
ATOM     16  C   UNL     1      -5.352  -2.849  -0.102  0.00  0.00    +0.010 A 
ATOM     17  C   UNL     1      -5.524  -4.218  -0.068  0.00  0.00    +0.001 A 
ENDBRANCH   7  15
ENDBRANCH   1  10
BRANCH   6  18
ATOM     18  N   UNL     1      -2.425   3.817   0.097  0.00  0.00    -0.343 N 
ATOM     19  H   UNL     1      -2.444   4.914   0.164  0.00  0.00    +0.144 HD
ATOM     20  H   UNL     1      -3.368   3.251   0.062  0.00  0.00    +0.144 HD
ENDBRANCH   6  18
BRANCH   3  21
ATOM     21  C   UNL     1       2.478   1.204  -0.062  0.00  0.00    +0.102 C 
ATOM     22  N   UNL     1       3.495   0.699  -0.093  0.00  0.00    -0.191 NA
ENDBRANCH   3  21
BRANCH   4  23
ATOM     23  S   UNL     1       2.563   4.218   0.109  0.00  0.00    -0.097 S 
BRANCH  23  24
ATOM     24  C   UNL     1       1.837   5.873   0.204  0.00  0.00    +0.157 C 
BRANCH  24  25
ATOM     25  C   UNL     1       2.937   6.902   0.260  0.00  0.00    +0.189 C 
ATOM     26  O   UNL     1       4.099   6.550   0.237  0.00  0.00    -0.290 OA
BRANCH  25  27
ATOM     27  C   UNL     1       2.616   8.276   0.339  0.00  0.00    +0.083 A 
ATOM     28  C   UNL     1       1.344   8.820   0.367  0.00  0.00    +0.030 A 
ATOM     29  C   UNL     1       1.495  10.206   0.451  0.00  0.00    +0.020 A 
ATOM     30  C   UNL     1       2.824  10.479   0.463  0.00  0.00    +0.083 A 
ATOM     31  N   UNL     1       3.513   9.322   0.396  0.00  0.00    -0.358 N 
ATOM     32  H   UNL     1       4.594   9.121   0.382  0.00  0.00    +0.165 HD
ENDBRANCH  25  27
ENDBRANCH  24  25
ENDBRANCH  23  24
ENDBRANCH   4  23
TORSDOF 8
