REMARK  Name = ZINC63039968
REMARK  6 active torsions:
REMARK  status: ('A' for Active; 'I' for Inactive)
REMARK    1  A    between atoms: C_1  and  C_2
REMARK    2  A    between atoms: C_2  and  C_4
REMARK    3  A    between atoms: C_2  and  C_17
REMARK    4  A    between atoms: C_7  and  N_14
REMARK    5  A    between atoms: C_17  and  C_19
REMARK    6  A    between atoms: C_17  and  O_20
REMARK                            x       y       z     vdW  Elec       q    Type
REMARK                         _______ _______ _______ _____ _____    ______ ____
ROOT
ATOM      1  C   UNL     1       0.737  -0.497   1.222  0.00  0.00    -0.034 A 
ATOM      2  C   UNL     1       0.440   0.006   2.453  0.00  0.00    +0.007 A 
ATOM      3  C   UNL     1       1.099  -0.450   3.593  0.00  0.00    +0.034 A 
ATOM      4  C   UNL     1       2.059  -1.412   3.513  0.00  0.00    +0.135 A 
ATOM      5  C   UNL     1       2.391  -1.954   2.261  0.00  0.00    +0.031 A 
ATOM      6  C   UNL     1       1.716  -1.493   1.102  0.00  0.00    -0.009 A 
ATOM      7  C   UNL     1       2.064  -2.056  -0.140  0.00  0.00    +0.028 A 
ATOM      8  C   UNL     1       3.026  -3.020  -0.173  0.00  0.00    +0.111 A 
ATOM      9  N   UNL     1       3.638  -3.437   0.927  0.00  0.00    -0.263 NA
ATOM     10  C   UNL     1       3.373  -2.948   2.116  0.00  0.00    +0.121 A 
ENDROOT
BRANCH   4  11
ATOM     11  N   UNL     1       2.748  -1.883   4.736  0.00  0.00    +0.057 N 
ATOM     12  O   UNL     1       2.131  -2.000   5.769  0.00  0.00    -0.126 OA
ATOM     13  O   UNL     1       3.926  -2.150   4.701  0.00  0.00    -0.126 OA
ENDBRANCH   4  11
BRANCH   1  15
ATOM     14  C   UNL     1       0.263   1.511  -0.153  0.00  0.00    +0.015 C 
ATOM     15  C   UNL     1       0.014   0.009   0.001  0.00  0.00    +0.045 C 
BRANCH  15  16
ATOM     16  C   UNL     1      -1.487  -0.246   0.154  0.00  0.00    +0.119 C 
ATOM     17  C   UNL     1      -2.207   0.153  -1.136  0.00  0.00    +0.038 C 
BRANCH  16  18
ATOM     18  O   UNL     1      -1.994   0.530   1.242  0.00  0.00    -0.391 OA
ATOM     19  H   UNL     1      -1.876   1.484   1.133  0.00  0.00    +0.210 HD
ENDBRANCH  16  18
ENDBRANCH  15  16
ENDBRANCH   1  15
TORSDOF 4
