REMARK  Name = ZINC26913980
REMARK  7 active torsions:
REMARK  status: ('A' for Active; 'I' for Inactive)
REMARK    1  A    between atoms: C_1  and  C_2
REMARK    2  A    between atoms: C_2  and  C_4
REMARK    3  A    between atoms: C_2  and  S_13
REMARK    4  A    between atoms: N_9  and  C_10
REMARK    5  A    between atoms: C_10  and  C_11
REMARK    6  A    between atoms: S_13  and  C_14
REMARK    7  A    between atoms: C_22  and  C_24
REMARK                            x       y       z     vdW  Elec       q    Type
REMARK                         _______ _______ _______ _____ _____    ______ ____
ROOT
ATOM      1  C   UNL     1       2.370   3.960   0.001  0.00  0.00    +0.109 A 
ATOM      2  C   UNL     1       1.145   3.162   0.008  0.00  0.00    +0.032 A 
ATOM      3  C   UNL     1       1.166   1.765   0.000  0.00  0.00    +0.012 A 
ATOM      4  C   UNL     1      -0.013   1.076   0.008  0.00  0.00    +0.001 A 
ATOM      5  C   UNL     1      -1.232   1.746   0.017  0.00  0.00    +0.002 A 
ATOM      6  C   UNL     1      -1.286   3.108   0.031  0.00  0.00    +0.028 A 
ATOM      7  C   UNL     1      -0.096   3.848   0.024  0.00  0.00    +0.076 A 
ATOM      8  N   UNL     1      -0.090   5.187   0.031  0.00  0.00    -0.225 NA
ATOM      9  C   UNL     1       1.046   5.862   0.025  0.00  0.00    +0.197 A 
ATOM     10  N   UNL     1       2.245   5.281   0.010  0.00  0.00    -0.218 NA
ENDROOT
BRANCH   9  11
ATOM     11  C   UNL     1       0.983   7.336   0.033  0.00  0.00    +0.172 A 
ATOM     12  C   UNL     1       2.050   8.181   0.028  0.00  0.00    +0.053 A 
ATOM     13  C   UNL     1       1.531   9.489   0.040  0.00  0.00    +0.042 A 
ATOM     14  C   UNL     1       0.187   9.381   0.051  0.00  0.00    +0.196 A 
ATOM     15  O   UNL     1      -0.140   8.080   0.042  0.00  0.00    -0.460 OA
ENDBRANCH   9  11
BRANCH   1  16
ATOM     16  S   UNL     1       3.957   3.194  -0.018  0.00  0.00    -0.093 S 
BRANCH  16  18
ATOM     17  C   UNL     1       4.806   5.440  -1.321  0.00  0.00    +0.029 C 
ATOM     18  C   UNL     1       5.014   4.663  -0.019  0.00  0.00    +0.136 C 
BRANCH  18  19
ATOM     19  C   UNL     1       6.457   4.243   0.089  0.00  0.00    +0.233 C 
ATOM     20  O   UNL     1       6.798   3.141  -0.285  0.00  0.00    -0.274 OA
ATOM     21  N   UNL     1       7.370   5.092   0.601  0.00  0.00    -0.239 N 
ATOM     22  C   UNL     1       8.661   4.716   0.698  0.00  0.00    +0.306 C 
ATOM     23  O   UNL     1       9.002   3.611   0.324  0.00  0.00    -0.252 OA
ATOM     24  N   UNL     1       9.573   5.565   1.211  0.00  0.00    -0.296 N 
ATOM     25  H   UNL     1       7.061   6.092   0.940  0.00  0.00    +0.159 HD
ATOM     26  H   UNL     1       9.265   6.565   1.550  0.00  0.00    +0.151 HD
BRANCH  24  27
ATOM     27  C   UNL     1      10.976   5.157   1.316  0.00  0.00    +0.132 C 
BRANCH  27  28
ATOM     28  C   UNL     1      11.783   6.279   1.917  0.00  0.00    -0.016 C 
ATOM     29  C   UNL     1      12.508   6.065   2.986  0.00  0.00    +0.005 C 
ENDBRANCH  27  28
ENDBRANCH  24  27
ENDBRANCH  18  19
ENDBRANCH  16  18
ENDBRANCH   1  16
TORSDOF 6
