REMARK  Name = ZINC15969930
REMARK  8 active torsions:
REMARK  status: ('A' for Active; 'I' for Inactive)
REMARK    1  A    between atoms: C_1  and  C_2
REMARK    2  A    between atoms: C_4  and  C_37
REMARK    3  A    between atoms: C_13  and  C_16
REMARK    4  A    between atoms: C_16  and  C_17
REMARK    5  A    between atoms: C_17  and  C_18
REMARK    6  A    between atoms: N_23  and  C_26
REMARK    7  A    between atoms: C_26  and  C_27
REMARK    8  A    between atoms: C_27  and  C_28
REMARK                            x       y       z     vdW  Elec       q    Type
REMARK                         _______ _______ _______ _____ _____    ______ ____
ROOT
ATOM      1  C   UNL     1      -2.656   1.680   0.637  0.00  0.00    +0.044 C 
ATOM      2  C   UNL     1      -2.571   0.180   0.519  0.00  0.00    -0.050 A 
ATOM      3  C   UNL     1      -3.162  -0.465  -0.552  0.00  0.00    +0.008 A 
ATOM      4  C   UNL     1      -3.087  -1.838  -0.666  0.00  0.00    -0.029 A 
ATOM      5  C   UNL     1      -2.415  -2.585   0.299  0.00  0.00    +0.042 A 
ATOM      6  C   UNL     1      -1.825  -1.926   1.373  0.00  0.00    +0.004 A 
ATOM      7  C   UNL     1      -1.897  -0.555   1.479  0.00  0.00    +0.011 A 
ATOM      8  C   UNL     1      -1.198  -2.997   2.219  0.00  0.00    +0.136 C 
ATOM      9  C   UNL     1       0.312  -2.783   2.377  0.00  0.00    +0.122 C 
ATOM     10  C   UNL     1       0.625  -3.261   3.822  0.00  0.00    +0.107 C 
ATOM     11  C   UNL     1      -0.730  -3.741   4.384  0.00  0.00    +0.068 C 
ATOM     12  N   UNL     1      -1.752  -3.000   3.587  0.00  0.00    -0.295 NA
ATOM     13  C   UNL     1       1.053  -1.993   4.525  0.00  0.00    +0.227 C 
ATOM     14  O   UNL     1       1.381  -1.914   5.689  0.00  0.00    -0.275 OA
ATOM     15  N   UNL     1       1.012  -0.971   3.662  0.00  0.00    -0.241 N 
ATOM     16  C   UNL     1       0.614  -1.301   2.412  0.00  0.00    +0.228 C 
ATOM     17  O   UNL     1       0.511  -0.543   1.471  0.00  0.00    -0.275 OA
ATOM     18  C   UNL     1      -1.499  -4.286   1.504  0.00  0.00    +0.243 C 
ATOM     19  O   UNL     1      -1.169  -5.400   1.851  0.00  0.00    -0.273 OA
ATOM     20  N   UNL     1      -2.204  -3.962   0.403  0.00  0.00    -0.283 N 
ATOM     21  C   UNL     1      -3.733  -2.531  -1.837  0.00  0.00    +0.045 C 
ATOM     22  H   UNL     1      -1.877  -2.058   3.928  0.00  0.00    +0.123 HD
ATOM     23  H   UNL     1      -2.529  -4.610  -0.242  0.00  0.00    +0.155 HD
ENDROOT
BRANCH  11  24
ATOM     24  C   UNL     1      -0.874  -5.254   4.205  0.00  0.00    +0.028 C 
BRANCH  24  25
ATOM     25  C   UNL     1      -0.352  -5.967   5.454  0.00  0.00    +0.097 C 
BRANCH  25  26
ATOM     26  C   UNL     1      -0.494  -7.457   5.278  0.00  0.00    +0.211 C 
ATOM     27  O   UNL     1      -0.966  -7.904   4.254  0.00  0.00    -0.276 OA
ATOM     28  N   UNL     1      -0.096  -8.292   6.258  0.00  0.00    -0.329 N 
ATOM     29  H   UNL     1       0.281  -7.934   7.077  0.00  0.00    +0.145 HD
ATOM     30  H   UNL     1      -0.187  -9.251   6.145  0.00  0.00    +0.145 HD
ENDBRANCH  25  26
ENDBRANCH  24  25
ENDBRANCH  11  24
BRANCH  15  31
ATOM     31  C   UNL     1       1.376   0.398   4.037  0.00  0.00    +0.121 C 
BRANCH  31  32
ATOM     32  C   UNL     1       2.871   0.613   3.793  0.00  0.00    +0.054 C 
BRANCH  32  33
ATOM     33  C   UNL     1       3.245   2.021   4.179  0.00  0.00    -0.046 A 
ATOM     34  C   UNL     1       3.176   3.036   3.242  0.00  0.00    +0.004 A 
ATOM     35  C   UNL     1       3.519   4.327   3.596  0.00  0.00    +0.000 A 
ATOM     36  C   UNL     1       3.930   4.604   4.886  0.00  0.00    +0.000 A 
ATOM     37  C   UNL     1       3.998   3.590   5.823  0.00  0.00    +0.000 A 
ATOM     38  C   UNL     1       3.651   2.299   5.470  0.00  0.00    +0.004 A 
ENDBRANCH  32  33
ENDBRANCH  31  32
ENDBRANCH  15  31
TORSDOF 6
