REMARK  Name = ZINC08691668
REMARK  4 active torsions:
REMARK  status: ('A' for Active; 'I' for Inactive)
REMARK    1  A    between atoms: C_13  and  C_16
REMARK    2  A    between atoms: N_17  and  N_18
REMARK    3  A    between atoms: N_18  and  C_19
REMARK    4  A    between atoms: C_19  and  N_20
REMARK                            x       y       z     vdW  Elec       q    Type
REMARK                         _______ _______ _______ _____ _____    ______ ____
ROOT
ATOM      1  C   UNL     1      -0.016   1.358   0.009  0.00  0.00    +0.001 A 
ATOM      2  C   UNL     1       1.168   2.090   0.002  0.00  0.00    +0.001 A 
ATOM      3  C   UNL     1       2.377   1.463  -0.013  0.00  0.00    +0.012 A 
ATOM      4  C   UNL     1       2.434   0.061  -0.020  0.00  0.00    +0.025 A 
ATOM      5  C   UNL     1       1.230  -0.684  -0.013  0.00  0.00    -0.014 A 
ATOM      6  C   UNL     1       0.002  -0.004   0.002  0.00  0.00    +0.008 A 
ATOM      7  C   UNL     1       1.275  -2.094  -0.021  0.00  0.00    +0.009 A 
ATOM      8  C   UNL     1       2.468  -2.738  -0.037  0.00  0.00    +0.016 A 
ATOM      9  C   UNL     1       3.672  -2.015  -0.045  0.00  0.00    +0.065 A 
ATOM     10  C   UNL     1       3.672  -0.618  -0.034  0.00  0.00    +0.146 A 
ATOM     11  O   UNL     1       4.829   0.066  -0.027  0.00  0.00    -0.461 OA
ATOM     12  C   UNL     1       5.991  -0.509  -0.337  0.00  0.00    +0.209 A 
ATOM     13  C   UNL     1       6.150  -1.864  -0.375  0.00  0.00    +0.077 A 
ATOM     14  C   UNL     1       4.975  -2.707  -0.073  0.00  0.00    +0.201 A 
ATOM     15  O   UNL     1       5.076  -3.904   0.138  0.00  0.00    -0.286 OA
ENDROOT
BRANCH  13  16
ATOM     16  C   UNL     1       7.453  -2.467  -0.705  0.00  0.00    +0.145 C 
ATOM     17  N   UNL     1       8.473  -1.707  -0.965  0.00  0.00    -0.188 NA
BRANCH  17  18
ATOM     18  N   UNL     1       9.712  -2.280  -1.279  0.00  0.00    -0.219 N 
ATOM     19  H   UNL     1       9.808  -3.245  -1.302  0.00  0.00    +0.176 HD
BRANCH  18  20
ATOM     20  C   UNL     1      10.771  -1.491  -1.549  0.00  0.00    +0.147 C 
ATOM     21  S   UNL     1      12.285  -2.191  -1.932  0.00  0.00    -0.017 S 
BRANCH  20  22
ATOM     22  N   UNL     1      10.637  -0.150  -1.517  0.00  0.00    -0.339 N 
ATOM     23  H   UNL     1       9.779   0.247  -1.300  0.00  0.00    +0.144 HD
ATOM     24  H   UNL     1      11.399   0.418  -1.711  0.00  0.00    +0.144 HD
ENDBRANCH  20  22
ENDBRANCH  18  20
ENDBRANCH  17  18
ENDBRANCH  13  16
TORSDOF 4
