REMARK  Name = ZINC31814648
REMARK  4 active torsions:
REMARK  status: ('A' for Active; 'I' for Inactive)
REMARK    1  A    between atoms: C_7  and  N_23
REMARK    2  A    between atoms: C_9  and  C_11
REMARK    3  A    between atoms: C_11  and  N_12
REMARK    4  A    between atoms: C_16  and  C_19
REMARK                            x       y       z     vdW  Elec       q    Type
REMARK                         _______ _______ _______ _____ _____    ______ ____
ROOT
ATOM      1  C   UNL     1       5.971  -0.697  -5.949  0.00  0.00    +0.001 A 
ATOM      2  C   UNL     1       6.377   0.453  -5.279  0.00  0.00    +0.002 A 
ATOM      3  C   UNL     1       6.003   0.684  -3.989  0.00  0.00    +0.028 A 
ATOM      4  C   UNL     1       5.196  -0.249  -3.325  0.00  0.00    +0.076 A 
ATOM      5  C   UNL     1       4.783  -1.419  -4.008  0.00  0.00    +0.040 A 
ATOM      6  C   UNL     1       5.185  -1.626  -5.332  0.00  0.00    +0.013 A 
ATOM      7  C   UNL     1       3.968  -2.347  -3.315  0.00  0.00    +0.128 A 
ATOM      8  N   UNL     1       3.638  -2.075  -2.059  0.00  0.00    -0.215 NA
ATOM      9  C   UNL     1       4.044  -0.965  -1.463  0.00  0.00    +0.151 A 
ATOM     10  N   UNL     1       4.799  -0.071  -2.056  0.00  0.00    -0.230 NA
ENDROOT
BRANCH   7  11
ATOM     11  N   UNL     1       3.535  -3.504  -3.926  0.00  0.00    -0.343 N 
ATOM     12  H   UNL     1       2.903  -4.215  -3.374  0.00  0.00    +0.144 HD
ATOM     13  H   UNL     1       3.821  -3.717  -4.967  0.00  0.00    +0.144 HD
ENDBRANCH   7  11
BRANCH   9  14
ATOM     14  C   UNL     1       3.623  -0.720  -0.037  0.00  0.00    +0.201 C 
BRANCH  14  15
ATOM     15  N   UNL     1       2.358   0.018  -0.020  0.00  0.00    -0.307 N 
ATOM     16  C   UNL     1       1.184  -0.664  -0.013  0.00  0.00    +0.089 A 
ATOM     17  C   UNL     1       0.002  -0.004   0.002  0.00  0.00    +0.018 A 
ATOM     18  C   UNL     1      -0.017   1.398   0.010  0.00  0.00    +0.019 A 
ATOM     19  C   UNL     1       1.164   2.081   0.002  0.00  0.00    +0.119 A 
ATOM     20  C   UNL     1       2.373   1.364  -0.013  0.00  0.00    +0.263 A 
ATOM     21  O   UNL     1       3.437   1.963  -0.020  0.00  0.00    -0.267 OA
BRANCH  19  22
ATOM     22  C   UNL     1       1.172   3.588   0.010  0.00  0.00    +0.422 C 
ATOM     23  F   UNL     1      -0.145   4.061   0.024  0.00  0.00    -0.166 F 
ATOM     24  F   UNL     1       1.844   4.045   1.148  0.00  0.00    -0.166 F 
ATOM     25  F   UNL     1       1.823   4.056  -1.136  0.00  0.00    -0.166 F 
ENDBRANCH  19  22
ENDBRANCH  14  15
ENDBRANCH   9  14
TORSDOF 4
