REMARK  Name = ZINC33624941
REMARK  7 active torsions:
REMARK  status: ('A' for Active; 'I' for Inactive)
REMARK    1  A    between atoms: C_4  and  O_39
REMARK    2  A    between atoms: C_5  and  C_7
REMARK    3  A    between atoms: N_15  and  C_18
REMARK    4  A    between atoms: C_22  and  N_24
REMARK    5  A    between atoms: C_27  and  C_29
REMARK    6  A    between atoms: C_27  and  C_36
REMARK    7  A    between atoms: C_29  and  C_30
REMARK                            x       y       z     vdW  Elec       q    Type
REMARK                         _______ _______ _______ _____ _____    ______ ____
ROOT
ATOM      1  C   UNL     1       1.319  -2.451  -0.537  0.00  0.00    -0.023 C 
ATOM      2  C   UNL     1       1.217  -3.242  -1.830  0.00  0.00    +0.077 C 
ATOM      3  C   UNL     1      -0.344  -3.158  -2.031  0.00  0.00    +0.086 C 
ATOM      4  C   UNL     1      -0.482  -3.538  -3.415  0.00  0.00    +0.229 C 
ATOM      5  O   UNL     1      -1.391  -4.159  -3.923  0.00  0.00    -0.275 OA
ATOM      6  N   UNL     1       0.640  -3.044  -4.034  0.00  0.00    -0.210 N 
ATOM      7  C   UNL     1       1.613  -2.646  -3.144  0.00  0.00    +0.229 C 
ATOM      8  O   UNL     1       2.583  -1.955  -3.370  0.00  0.00    -0.275 OA
ATOM      9  C   UNL     1      -0.845  -3.540  -0.700  0.00  0.00    +0.048 C 
ATOM     10  N   UNL     1       0.063  -2.745   0.216  0.00  0.00    +0.396 N 
ATOM     11  H   UNL     1       0.276  -3.291   1.037  0.00  0.00    -0.083 HD
ATOM     12  H   UNL     1      -0.384  -1.881   0.486  0.00  0.00    -0.083 HD
ENDROOT
BRANCH   1  17
ATOM     13  C   UNL     1       0.354   1.135  -1.221  0.00  0.00    +0.000 A 
ATOM     14  C   UNL     1       1.591   1.732  -1.381  0.00  0.00    +0.004 A 
ATOM     15  C   UNL     1       2.743   0.977  -1.270  0.00  0.00    +0.045 A 
ATOM     16  C   UNL     1       2.657  -0.380  -0.995  0.00  0.00    +0.118 A 
ATOM     17  C   UNL     1       1.415  -0.976  -0.834  0.00  0.00    -0.019 A 
ATOM     18  C   UNL     1       0.266  -0.218  -0.948  0.00  0.00    +0.005 A 
BRANCH  16  19
ATOM     19  O   UNL     1       3.789  -1.125  -0.885  0.00  0.00    -0.507 OA
ATOM     20  H   UNL     1       4.146  -1.167   0.012  0.00  0.00    +0.292 HD
ENDBRANCH  16  19
ENDBRANCH   1  17
BRANCH   6  21
ATOM     21  C   UNL     1       0.787  -2.963  -5.426  0.00  0.00    +0.046 A 
ATOM     22  C   UNL     1      -0.237  -3.390  -6.260  0.00  0.00    +0.024 A 
ATOM     23  C   UNL     1      -0.089  -3.309  -7.631  0.00  0.00    +0.004 A 
ATOM     24  C   UNL     1       1.078  -2.803  -8.173  0.00  0.00    +0.033 A 
ATOM     25  C   UNL     1       2.100  -2.377  -7.345  0.00  0.00    +0.128 A 
ATOM     26  C   UNL     1       1.955  -2.450  -5.973  0.00  0.00    +0.056 A 
BRANCH  25  27
ATOM     27  N   UNL     1       3.348  -1.836  -7.929  0.00  0.00    +0.056 N 
ATOM     28  O   UNL     1       3.473  -1.766  -9.130  0.00  0.00    -0.126 OA
ATOM     29  O   UNL     1       4.242  -1.463  -7.206  0.00  0.00    -0.126 OA
ENDBRANCH  25  27
ENDBRANCH   6  21
BRANCH   9  30
ATOM     30  C   UNL     1      -0.695  -5.023  -0.477  0.00  0.00    +0.346 C 
ATOM     31  O   UNL     1      -0.086  -5.434   0.497  0.00  0.00    -0.248 OA
ATOM     32  O   UNL     1      -1.182  -5.811  -1.269  0.00  0.00    -0.248 OA
ENDBRANCH   9  30
BRANCH   9  33
ATOM     33  C   UNL     1      -2.301  -3.106  -0.521  0.00  0.00    +0.003 C 
BRANCH  33  34
ATOM     34  C   UNL     1      -2.824  -3.615   0.823  0.00  0.00    -0.012 C 
ATOM     35  C   UNL     1      -4.326  -3.341   0.924  0.00  0.00    +0.003 C 
ATOM     36  C   UNL     1      -4.848  -3.850   2.269  0.00  0.00    +0.000 C 
ATOM     37  C   UNL     1      -4.120  -3.129   3.405  0.00  0.00    +0.000 C 
ATOM     38  C   UNL     1      -2.619  -3.404   3.304  0.00  0.00    +0.000 C 
ATOM     39  C   UNL     1      -2.096  -2.894   1.960  0.00  0.00    +0.003 C 
ENDBRANCH  33  34
ENDBRANCH   9  33
TORSDOF 7
