REMARK  Name = ZINC36313639
REMARK  10 active torsions:
REMARK  status: ('A' for Active; 'I' for Inactive)
REMARK    1  A    between atoms: C_1  and  C_2
REMARK    2  A    between atoms: C_2  and  C_3
REMARK    3  A    between atoms: C_3  and  C_4
REMARK    4  A    between atoms: C_4  and  C_6
REMARK    5  A    between atoms: C_4  and  O_28
REMARK    6  A    between atoms: C_6  and  N_7
REMARK    7  A    between atoms: N_7  and  C_8
REMARK    8  A    between atoms: N_7  and  C_11
REMARK    9  A    between atoms: C_8  and  C_9
REMARK   10  A    between atoms: C_11  and  C_12
REMARK                            x       y       z     vdW  Elec       q    Type
REMARK                         _______ _______ _______ _____ _____    ______ ____
ROOT
ATOM      1  C   UNL     1      -3.467  -6.416  -0.415  0.00  0.00    +0.094 A 
ATOM      2  N   UNL     1      -4.465  -7.317  -0.609  0.00  0.00    -0.312 N 
ATOM      3  H   UNL     1      -5.387  -7.021  -0.564  0.00  0.00    +0.170 HD
ATOM      4  C   UNL     1      -4.199  -8.612  -0.862  0.00  0.00    +0.260 A 
ATOM      5  O   UNL     1      -5.106  -9.409  -1.034  0.00  0.00    -0.267 OA
ATOM      6  C   UNL     1      -2.832  -9.039  -0.926  0.00  0.00    +0.075 A 
ATOM      7  C   UNL     1      -2.315 -10.386  -1.185  0.00  0.00    -0.023 A 
ATOM      8  C   UNL     1      -0.974 -10.530  -1.189  0.00  0.00    -0.004 A 
ATOM      9  S   UNL     1      -0.333  -8.907  -0.864  0.00  0.00    -0.073 S 
ATOM     10  C   UNL     1      -1.873  -8.038  -0.714  0.00  0.00    +0.116 A 
ATOM     11  N   UNL     1      -2.212  -6.774  -0.473  0.00  0.00    -0.229 NA
ATOM     12  C   UNL     1      -0.185 -11.783  -1.405  0.00  0.00    +0.043 C 
ATOM     13  C   UNL     1      -0.706 -12.500  -2.658  0.00  0.00    +0.005 C 
ATOM     14  C   UNL     1      -1.823 -13.451  -2.239  0.00  0.00    +0.001 C 
ATOM     15  C   UNL     1      -2.592 -12.866  -1.056  0.00  0.00    +0.005 C 
ATOM     16  C   UNL     1      -3.261 -11.554  -1.449  0.00  0.00    +0.037 C 
ENDROOT
BRANCH   1  17
ATOM     17  C   UNL     1      -3.814  -4.977  -0.134  0.00  0.00    -0.003 C 
BRANCH  17  18
ATOM     18  N   UNL     1      -2.584  -4.173  -0.110  0.00  0.00    +0.388 N 
ATOM     19  H   UNL     1      -1.927  -4.584   0.536  0.00  0.00    -0.081 HD
BRANCH  18  20
ATOM     20  C   UNL     1      -1.995  -4.139  -1.455  0.00  0.00    -0.046 C 
BRANCH  20  21
ATOM     21  C   UNL     1      -0.624  -3.463  -1.394  0.00  0.00    +0.098 C 
BRANCH  21  22
ATOM     22  O   UNL     1      -0.790  -2.076  -1.091  0.00  0.00    -0.394 OA
ATOM     23  H   UNL     1      -1.319  -1.592  -1.740  0.00  0.00    +0.210 HD
ENDBRANCH  21  22
BRANCH  21  24
ATOM     24  C   UNL     1       0.078  -3.609  -2.745  0.00  0.00    +0.029 C 
BRANCH  24  26
ATOM     25  C   UNL     1       2.197  -3.189  -4.000  0.00  0.00    +0.004 C 
ATOM     26  C   UNL     1       1.496  -3.043  -2.648  0.00  0.00    -0.001 C 
ENDBRANCH  24  26
ENDBRANCH  21  24
ENDBRANCH  20  21
ENDBRANCH  18  20
BRANCH  18  27
ATOM     27  C   UNL     1      -2.903  -2.805   0.320  0.00  0.00    -0.051 C 
BRANCH  27  28
ATOM     28  C   UNL     1      -3.453  -2.833   1.722  0.00  0.00    -0.053 C 
ATOM     29  C   UNL     1      -2.897  -2.104   2.659  0.00  0.00    +0.002 C 
ENDBRANCH  27  28
ENDBRANCH  18  27
ENDBRANCH  17  18
ENDBRANCH   1  17
TORSDOF 9
