REMARK  Name = ZINC64981585
REMARK  5 active torsions:
REMARK  status: ('A' for Active; 'I' for Inactive)
REMARK    1  A    between atoms: C_1  and  C_2
REMARK    2  A    between atoms: C_2  and  N_3
REMARK    3  A    between atoms: N_16  and  N_17
REMARK    4  A    between atoms: C_18  and  C_19
REMARK    5  A    between atoms: C_20  and  C_24
REMARK                            x       y       z     vdW  Elec       q    Type
REMARK                         _______ _______ _______ _____ _____    ______ ____
ROOT
ATOM      1  N   UNL     1       0.711  -0.489   1.189  0.00  0.00    -0.324 N 
ATOM      2  C   UNL     1       2.074  -0.730   1.253  0.00  0.00    +0.053 A 
ATOM      3  C   UNL     1       3.092  -0.601   0.314  0.00  0.00    +0.026 A 
ATOM      4  C   UNL     1       4.390  -0.917   0.655  0.00  0.00    +0.002 A 
ATOM      5  C   UNL     1       4.694  -1.364   1.931  0.00  0.00    +0.001 A 
ATOM      6  C   UNL     1       3.699  -1.499   2.876  0.00  0.00    +0.012 A 
ATOM      7  C   UNL     1       2.384  -1.183   2.544  0.00  0.00    +0.029 A 
ATOM      8  C   UNL     1       1.114  -1.210   3.291  0.00  0.00    +0.138 A 
ATOM      9  C   UNL     1       0.119  -0.765   2.397  0.00  0.00    +0.166 A 
ATOM     10  N   UNL     1      -1.135  -0.692   2.834  0.00  0.00    -0.192 NA
ATOM     11  C   UNL     1      -1.406  -1.034   4.086  0.00  0.00    +0.256 A 
ATOM     12  N   UNL     1      -0.450  -1.448   4.911  0.00  0.00    -0.111 NA
ATOM     13  N   UNL     1       0.777  -1.542   4.529  0.00  0.00    -0.142 NA
ATOM     14  N   UNL     1      -2.710  -0.959   4.543  0.00  0.00    -0.204 N 
ATOM     15  H   UNL     1      -3.415  -0.657   3.949  0.00  0.00    +0.177 HD
ENDROOT
BRANCH   1  17
ATOM     16  C   UNL     1      -0.019   1.526   0.010  0.00  0.00    +0.027 C 
ATOM     17  C   UNL     1       0.002  -0.004   0.002  0.00  0.00    +0.120 C 
ENDBRANCH   1  17
BRANCH  14  18
ATOM     18  N   UNL     1      -3.012  -1.317   5.863  0.00  0.00    -0.187 NA
ATOM     19  C   UNL     1      -4.238  -1.246   6.292  0.00  0.00    +0.145 C 
BRANCH  19  20
ATOM     20  C   UNL     1      -4.554  -1.621   7.675  0.00  0.00    +0.035 A 
ATOM     21  C   UNL     1      -5.778  -1.623   8.320  0.00  0.00    -0.035 A 
ATOM     22  C   UNL     1      -5.822  -2.022   9.637  0.00  0.00    +0.011 A 
ATOM     23  C   UNL     1      -4.674  -2.397  10.256  0.00  0.00    +0.046 A 
ATOM     24  S   UNL     1      -3.461  -2.202   8.962  0.00  0.00    -0.095 S 
ATOM     25  C   UNL     1      -7.032  -1.199   7.599  0.00  0.00    +0.045 C 
ENDBRANCH  19  20
ENDBRANCH  14  18
TORSDOF 3
