REMARK  Name = ZINC04081849
REMARK  8 active torsions:
REMARK  status: ('A' for Active; 'I' for Inactive)
REMARK    1  A    between atoms: C_1  and  C_2
REMARK    2  A    between atoms: C_3  and  O_17
REMARK    3  A    between atoms: O_17  and  C_18
REMARK    4  A    between atoms: C_20  and  O_33
REMARK    5  A    between atoms: C_22  and  O_32
REMARK    6  A    between atoms: C_24  and  O_31
REMARK    7  A    between atoms: C_26  and  C_29
REMARK    8  A    between atoms: C_29  and  O_30
REMARK                            x       y       z     vdW  Elec       q    Type
REMARK                         _______ _______ _______ _____ _____    ______ ____
ROOT
ATOM      1  C   UNL     1       1.255  -2.176  -0.022  0.00  0.00    +0.051 C 
ATOM      2  C   UNL     1       1.218  -0.670  -0.014  0.00  0.00    +0.034 A 
ATOM      3  C   UNL     1       2.398   0.056  -0.021  0.00  0.00    +0.130 A 
ATOM      4  C   UNL     1       2.373   1.449  -0.013  0.00  0.00    +0.047 A 
ATOM      5  C   UNL     1       1.185   2.119   0.002  0.00  0.00    +0.015 A 
ATOM      6  C   UNL     1      -0.017   1.402   0.010  0.00  0.00    +0.022 A 
ATOM      7  C   UNL     1       0.002  -0.004   0.002  0.00  0.00    +0.146 A 
ATOM      8  O   UNL     1      -1.162  -0.687   0.011  0.00  0.00    -0.422 OA
ATOM      9  C   UNL     1      -2.342  -0.053   0.025  0.00  0.00    +0.341 A 
ATOM     10  O   UNL     1      -3.366  -0.713   0.035  0.00  0.00    -0.245 OA
ATOM     11  C   UNL     1      -2.438   1.361   0.028  0.00  0.00    +0.041 A 
ATOM     12  C   UNL     1      -1.308   2.102   0.032  0.00  0.00    -0.027 A 
ATOM     13  C   UNL     1      -1.310   3.605   0.054  0.00  0.00    +0.036 C 
ATOM     14  C   UNL     1      -2.678   4.148  -0.355  0.00  0.00    +0.005 C 
ATOM     15  C   UNL     1      -3.748   3.437   0.482  0.00  0.00    +0.005 C 
ATOM     16  C   UNL     1      -3.812   1.976   0.024  0.00  0.00    +0.042 C 
ENDROOT
BRANCH   3  17
ATOM     17  O   UNL     1       3.589  -0.596  -0.036  0.00  0.00    -0.460 OA
BRANCH  17  18
ATOM     18  C   UNL     1       4.769   0.209  -0.043  0.00  0.00    +0.339 C 
ATOM     19  C   UNL     1       6.003  -0.692   0.065  0.00  0.00    +0.214 C 
ATOM     20  C   UNL     1       7.265   0.174  -0.003  0.00  0.00    +0.180 C 
ATOM     21  C   UNL     1       7.247   0.981  -1.305  0.00  0.00    +0.177 C 
ATOM     22  C   UNL     1       5.966   1.817  -1.360  0.00  0.00    +0.179 C 
ATOM     23  O   UNL     1       4.831   0.955  -1.260  0.00  0.00    -0.331 OA
BRANCH  21  24
ATOM     24  O   UNL     1       7.285   0.090  -2.421  0.00  0.00    -0.386 OA
ATOM     25  H   UNL     1       8.070  -0.475  -2.447  0.00  0.00    +0.210 HD
ENDBRANCH  21  24
BRANCH  20  26
ATOM     26  O   UNL     1       8.421  -0.665   0.023  0.00  0.00    -0.386 OA
ATOM     27  H   UNL     1       8.493  -1.211   0.818  0.00  0.00    +0.210 HD
ENDBRANCH  20  26
BRANCH  19  28
ATOM     28  O   UNL     1       5.972  -1.396   1.308  0.00  0.00    -0.383 OA
ATOM     29  H   UNL     1       5.196  -1.962   1.420  0.00  0.00    +0.210 HD
ENDBRANCH  19  28
BRANCH  22  30
ATOM     30  C   UNL     1       5.912   2.582  -2.684  0.00  0.00    +0.190 C 
BRANCH  30  31
ATOM     31  O   UNL     1       4.777   3.450  -2.687  0.00  0.00    -0.392 OA
ATOM     32  H   UNL     1       4.679   3.967  -3.498  0.00  0.00    +0.210 HD
ENDBRANCH  30  31
ENDBRANCH  22  30
ENDBRANCH  17  18
ENDBRANCH   3  17
TORSDOF 7
