REMARK  Name = ZINC12567754
REMARK  10 active torsions:
REMARK  status: ('A' for Active; 'I' for Inactive)
REMARK    1  A    between atoms: C_1  and  C_2
REMARK    2  A    between atoms: C_4  and  C_32
REMARK    3  A    between atoms: C_5  and  C_31
REMARK    4  A    between atoms: C_6  and  S_9
REMARK    5  A    between atoms: C_7  and  C_8
REMARK    6  A    between atoms: S_9  and  N_12
REMARK    7  A    between atoms: N_15  and  C_18
REMARK    8  A    between atoms: C_18  and  C_19
REMARK    9  A    between atoms: C_23  and  C_29
REMARK   10  A    between atoms: C_24  and  C_28
REMARK                            x       y       z     vdW  Elec       q    Type
REMARK                         _______ _______ _______ _____ _____    ______ ____
ROOT
ATOM      1  N   UNL     1       5.178   6.819   2.261  0.00  0.00    -0.174 NA
ATOM      2  C   UNL     1       6.527   6.917   1.683  0.00  0.00    +0.125 C 
ATOM      3  C   UNL     1       6.418   6.748   0.163  0.00  0.00    +0.102 C 
ATOM      4  N   UNL     1       5.701   5.502  -0.138  0.00  0.00    -0.293 NA
ATOM      5  C   UNL     1       4.323   5.544   0.368  0.00  0.00    +0.102 C 
ATOM      6  C   UNL     1       4.346   5.663   1.895  0.00  0.00    +0.125 C 
ENDROOT
BRANCH   1   7
ATOM      7  S   UNL     1       4.611   7.980   3.297  0.00  0.00    +0.061 S 
ATOM      8  O   UNL     1       3.700   7.333   4.174  0.00  0.00    -0.153 OA
ATOM      9  O   UNL     1       5.747   8.692   3.769  0.00  0.00    -0.153 OA
BRANCH   7  15
ATOM     10  C   UNL     1       0.044   9.801   1.523  0.00  0.00    +0.044 C 
ATOM     11  C   UNL     1       1.547   9.909   1.556  0.00  0.00    -0.045 A 
ATOM     12  C   UNL     1       2.184  10.901   0.834  0.00  0.00    +0.007 A 
ATOM     13  C   UNL     1       3.563  11.001   0.864  0.00  0.00    -0.045 A 
ATOM     14  C   UNL     1       4.304  10.109   1.616  0.00  0.00    -0.021 A 
ATOM     15  C   UNL     1       3.667   9.117   2.339  0.00  0.00    +0.112 A 
ATOM     16  C   UNL     1       2.289   9.014   2.304  0.00  0.00    -0.021 A 
ATOM     17  C   UNL     1       1.594   7.930   3.087  0.00  0.00    +0.046 C 
ATOM     18  C   UNL     1       5.807  10.218   1.649  0.00  0.00    +0.046 C 
ATOM     19  C   UNL     1       4.257  12.082   0.077  0.00  0.00    +0.044 C 
ENDBRANCH   7  15
ENDBRANCH   1   7
BRANCH   4  20
ATOM     20  C   UNL     1       5.725   5.216  -1.578  0.00  0.00    +0.160 C 
BRANCH  20  21
ATOM     21  C   UNL     1       5.203   3.823  -1.823  0.00  0.00    +0.146 A 
ATOM     22  N   UNL     1       6.048   2.808  -1.826  0.00  0.00    -0.216 NA
ATOM     23  C   UNL     1       5.653   1.563  -2.036  0.00  0.00    +0.128 A 
ATOM     24  C   UNL     1       4.273   1.302  -2.263  0.00  0.00    +0.050 A 
ATOM     25  C   UNL     1       3.594   0.043  -2.513  0.00  0.00    -0.028 A 
ATOM     26  C   UNL     1       2.266   0.041  -2.702  0.00  0.00    -0.008 A 
ATOM     27  S   UNL     1       1.822   1.761  -2.555  0.00  0.00    -0.074 S 
ATOM     28  C   UNL     1       3.432   2.436  -2.244  0.00  0.00    +0.114 A 
ATOM     29  N   UNL     1       3.913   3.645  -2.028  0.00  0.00    -0.223 NA
ATOM     30  C   UNL     1       1.364  -1.136  -2.973  0.00  0.00    +0.052 C 
ATOM     31  C   UNL     1       4.373  -1.247  -2.559  0.00  0.00    +0.045 C 
ATOM     32  N   UNL     1       6.569   0.527  -2.032  0.00  0.00    -0.343 N 
ATOM     33  H   UNL     1       6.233  -0.506  -2.207  0.00  0.00    +0.144 HD
ATOM     34  H   UNL     1       7.635   0.736  -1.853  0.00  0.00    +0.144 HD
ENDBRANCH  20  21
ENDBRANCH   4  20
TORSDOF 4
