REMARK  Name = ZINC22290684
REMARK  8 active torsions:
REMARK  status: ('A' for Active; 'I' for Inactive)
REMARK    1  A    between atoms: C_1  and  C_2
REMARK    2  A    between atoms: C_2  and  O_3
REMARK    3  A    between atoms: O_3  and  C_4
REMARK    4  A    between atoms: C_7  and  N_10
REMARK    5  A    between atoms: C_12  and  C_17
REMARK    6  A    between atoms: C_17  and  N_19
REMARK    7  A    between atoms: C_22  and  C_25
REMARK    8  A    between atoms: C_25  and  N_26
REMARK                            x       y       z     vdW  Elec       q    Type
REMARK                         _______ _______ _______ _____ _____    ______ ____
ROOT
ATOM      1  C   UNL     1       2.503  -9.030   3.167  0.00  0.00    +0.243 C 
ATOM      2  O   UNL     1       3.627  -8.607   3.360  0.00  0.00    -0.273 OA
ENDROOT
BRANCH   1   3
ATOM      3  N   UNL     1       2.265 -10.334   3.233  0.00  0.00    -0.156 NA
ATOM      4  C   UNL     1       3.259 -11.181   3.512  0.00  0.00    +0.163 A 
ATOM      5  N   UNL     1       3.209 -12.536   3.616  0.00  0.00    -0.341 N 
ATOM      6  C   UNL     1       4.351 -13.213   3.911  0.00  0.00    +0.008 A 
ATOM      7  C   UNL     1       5.465 -12.492   4.081  0.00  0.00    +0.067 A 
ATOM      8  S   UNL     1       4.876 -10.831   3.812  0.00  0.00    -0.061 S 
ATOM      9  H   UNL     1       2.374 -13.011   3.483  0.00  0.00    +0.167 HD
BRANCH   6  10
ATOM     10  C   UNL     1       4.362 -14.714   4.040  0.00  0.00    -0.024 C 
BRANCH  10  11
ATOM     11  N   UNL     1       3.537 -15.112   5.189  0.00  0.00    +0.383 N 
ATOM     12  C   UNL     1       4.145 -14.604   6.424  0.00  0.00    -0.078 C 
ATOM     13  C   UNL     1       3.248 -14.946   7.616  0.00  0.00    -0.019 C 
ATOM     14  C   UNL     1       3.092 -16.466   7.711  0.00  0.00    -0.004 C 
ATOM     15  C   UNL     1       2.527 -16.995   6.389  0.00  0.00    -0.019 C 
ATOM     16  C   UNL     1       3.450 -16.576   5.243  0.00  0.00    -0.078 C 
ATOM     17  H   UNL     1       2.611 -14.725   5.087  0.00  0.00    -0.081 HD
ENDBRANCH  10  11
ENDBRANCH   6  10
ENDBRANCH   1   3
BRANCH   1  20
ATOM     18  N   UNL     1       1.135  -5.957   1.754  0.00  0.00    -0.271 N 
ATOM     19  C   UNL     1       1.889  -6.616   2.827  0.00  0.00    +0.127 C 
ATOM     20  C   UNL     1       1.381  -8.074   2.852  0.00  0.00    +0.103 C 
ATOM     21  C   UNL     1       0.886  -8.261   1.399  0.00  0.00    +0.110 C 
ATOM     22  C   UNL     1       0.561  -6.857   0.937  0.00  0.00    +0.221 C 
ATOM     23  O   UNL     1      -0.116  -6.584  -0.031  0.00  0.00    -0.275 OA
BRANCH  18  27
ATOM     24  C   UNL     1       0.802  -1.825   1.306  0.00  0.00    +0.121 A 
ATOM     25  C   UNL     1       0.272  -2.672   0.343  0.00  0.00    +0.047 A 
ATOM     26  C   UNL     1       0.382  -4.040   0.491  0.00  0.00    +0.027 A 
ATOM     27  C   UNL     1       1.024  -4.569   1.603  0.00  0.00    +0.036 A 
ATOM     28  C   UNL     1       1.554  -3.721   2.566  0.00  0.00    +0.027 A 
ATOM     29  C   UNL     1       1.448  -2.352   2.414  0.00  0.00    +0.047 A 
BRANCH  24  30
ATOM     30  O   UNL     1       0.693  -0.477   1.160  0.00  0.00    -0.492 OA
BRANCH  30  32
ATOM     31  C   UNL     1      -0.008   1.526   0.004  0.00  0.00    +0.048 C 
ATOM     32  C   UNL     1       0.015  -0.004  -0.006  0.00  0.00    +0.225 C 
ENDBRANCH  30  32
ENDBRANCH  24  30
ENDBRANCH  18  27
ENDBRANCH   1  20
TORSDOF 7
