REMARK  Name = ZINC02121595
REMARK  8 active torsions:
REMARK  status: ('A' for Active; 'I' for Inactive)
REMARK    1  A    between atoms: C_1  and  N_62
REMARK    2  A    between atoms: C_8  and  O_30
REMARK    3  A    between atoms: C_10  and  C_12
REMARK    4  A    between atoms: N_19  and  C_22
REMARK    5  A    between atoms: C_20  and  O_21
REMARK    6  A    between atoms: C_22  and  C_23
REMARK    7  A    between atoms: C_23  and  C_24
REMARK    8  A    between atoms: O_30  and  C_31
REMARK                            x       y       z     vdW  Elec       q    Type
REMARK                         _______ _______ _______ _____ _____    ______ ____
ROOT
ATOM      1  C   UNL     1      -2.784   1.925   0.031  0.00  0.00    +0.067 A 
ATOM      2  C   UNL     1      -2.695   3.324  -0.084  0.00  0.00    +0.258 A 
ATOM      3  O   UNL     1      -2.082   3.971   0.747  0.00  0.00    -0.267 OA
ATOM      4  N   UNL     1      -3.288   3.944  -1.124  0.00  0.00    -0.302 N 
ATOM      5  H   UNL     1      -3.226   4.908  -1.209  0.00  0.00    +0.171 HD
ATOM      6  C   UNL     1      -3.970   3.235  -2.042  0.00  0.00    +0.163 A 
ATOM      7  S   UNL     1      -4.720   4.049  -3.349  0.00  0.00    -0.013 S 
ATOM      8  N   UNL     1      -4.072   1.897  -1.948  0.00  0.00    -0.292 N 
ATOM      9  C   UNL     1      -3.480   1.226  -0.910  0.00  0.00    +0.202 A 
ENDROOT
BRANCH   1  19
ATOM     10  C   UNL     1      -0.013   1.086   0.008  0.00  0.00    -0.095 C 
ATOM     11  C   UNL     1      -0.071   1.014   2.430  0.00  0.00    -0.073 C 
ATOM     12  C   UNL     1      -0.572   1.809   3.636  0.00  0.00    +0.017 C 
ATOM     13  C   UNL     1      -2.078   1.885   3.612  0.00  0.00    -0.040 A 
ATOM     14  C   UNL     1      -2.738   2.240   4.779  0.00  0.00    +0.053 A 
ATOM     15  C   UNL     1      -4.120   2.327   4.806  0.00  0.00    +0.170 A 
ATOM     16  C   UNL     1      -4.850   2.056   3.653  0.00  0.00    +0.208 A 
ATOM     17  C   UNL     1      -4.186   1.700   2.488  0.00  0.00    +0.167 A 
ATOM     18  C   UNL     1      -2.797   1.612   2.469  0.00  0.00    -0.008 A 
ATOM     19  C   UNL     1      -2.124   1.210   1.182  0.00  0.00    +0.007 C 
ATOM     20  O   UNL     1      -6.178   2.210   3.931  0.00  0.00    -0.449 OA
ATOM     21  C   UNL     1      -6.276   2.178   5.368  0.00  0.00    +0.467 C 
ATOM     22  O   UNL     1      -4.989   2.650   5.808  0.00  0.00    -0.452 OA
ATOM     23  N   UNL     1      -0.700   1.583   1.221  0.00  0.00    +0.386 N 
ATOM     24  H   UNL     1      -0.622   2.607   1.253  0.00  0.00    -0.081 HD
BRANCH  17  25
ATOM     25  O   UNL     1      -4.897   1.435   1.359  0.00  0.00    -0.491 OA
ATOM     26  C   UNL     1      -5.308   0.082   1.154  0.00  0.00    +0.277 C 
ENDBRANCH  17  25
ENDBRANCH   1  19
BRANCH   9  27
ATOM     27  O   UNL     1      -3.585  -0.117  -0.819  0.00  0.00    -0.493 OA
ATOM     28  H   UNL     1      -4.097  -0.521  -1.533  0.00  0.00    +0.294 HD
ENDBRANCH   9  27
BRANCH   8  29
ATOM     29  C   UNL     1      -4.822   1.151  -2.963  0.00  0.00    +0.131 C 
BRANCH  29  30
ATOM     30  C   UNL     1      -6.287   1.039  -2.534  0.00  0.00    +0.052 C 
BRANCH  30  31
ATOM     31  C   UNL     1      -7.058   0.272  -3.577  0.00  0.00    -0.072 C 
ATOM     32  C   UNL     1      -7.218  -1.000  -3.401  0.00  0.00    -0.028 C 
ATOM     33  C   UNL     1      -7.952  -1.896  -4.355  0.00  0.00    +0.027 C 
ATOM     34  C   UNL     1      -8.821  -1.061  -5.299  0.00  0.00    +0.004 C 
ATOM     35  C   UNL     1      -7.958   0.064  -5.884  0.00  0.00    +0.005 C 
ATOM     36  C   UNL     1      -7.598   1.032  -4.753  0.00  0.00    +0.030 C 
ENDBRANCH  30  31
ENDBRANCH  29  30
ENDBRANCH   8  29
TORSDOF 6
