REMARK  Name = ZINC06135007
REMARK  9 active torsions:
REMARK  status: ('A' for Active; 'I' for Inactive)
REMARK    1  A    between atoms: C_1  and  N_2
REMARK    2  A    between atoms: N_7  and  C_10
REMARK    3  A    between atoms: N_11  and  C_14
REMARK    4  A    between atoms: C_14  and  C_15
REMARK    5  A    between atoms: N_17  and  N_18
REMARK    6  A    between atoms: C_19  and  C_21
REMARK    7  A    between atoms: C_24  and  N_27
REMARK    8  A    between atoms: N_27  and  S_28
REMARK    9  A    between atoms: S_28  and  C_31
REMARK                            x       y       z     vdW  Elec       q    Type
REMARK                         _______ _______ _______ _____ _____    ______ ____
ROOT
ATOM      1  N   UNL     1      -0.865   5.626   3.302  0.00  0.00    -0.230 N 
ATOM      2  C   UNL     1      -1.666   6.700   3.450  0.00  0.00    +0.260 C 
ATOM      3  O   UNL     1      -2.032   7.325   2.474  0.00  0.00    -0.269 OA
ATOM      4  H   UNL     1      -0.573   5.128   4.081  0.00  0.00    +0.173 HD
ENDROOT
BRANCH   2   5
ATOM      5  C   UNL     1      -2.099   7.117   4.798  0.00  0.00    +0.038 A 
ATOM      6  C   UNL     1      -1.683   6.396   5.921  0.00  0.00    +0.015 A 
ATOM      7  C   UNL     1      -2.084   6.790   7.177  0.00  0.00    +0.025 A 
ATOM      8  C   UNL     1      -2.912   7.899   7.329  0.00  0.00    +0.048 A 
ATOM      9  C   UNL     1      -3.332   8.616   6.212  0.00  0.00    +0.025 A 
ATOM     10  C   UNL     1      -2.930   8.230   4.954  0.00  0.00    +0.015 A 
BRANCH   8  11
ATOM     11  N   UNL     1      -3.320   8.292   8.599  0.00  0.00    -0.216 N 
ATOM     12  H   UNL     1      -2.698   8.744   9.190  0.00  0.00    +0.174 HD
BRANCH  11  13
ATOM     13  S   UNL     1      -4.868   7.987   9.102  0.00  0.00    +0.079 S 
ATOM     14  O   UNL     1      -4.960   8.460  10.439  0.00  0.00    -0.149 OA
ATOM     15  O   UNL     1      -5.729   8.447   8.070  0.00  0.00    -0.149 OA
BRANCH  13  16
ATOM     16  C   UNL     1      -5.058   6.237   9.173  0.00  0.00    +0.146 A 
ATOM     17  C   UNL     1      -4.909   5.404  10.232  0.00  0.00    +0.036 A 
ATOM     18  C   UNL     1      -5.111   4.048  10.053  0.00  0.00    +0.010 A 
ATOM     19  C   UNL     1      -5.453   3.592   8.823  0.00  0.00    +0.047 A 
ATOM     20  S   UNL     1      -5.504   5.101   7.870  0.00  0.00    -0.077 S 
ENDBRANCH  13  16
ENDBRANCH  11  13
ENDBRANCH   8  11
ENDBRANCH   2   5
BRANCH   1  23
ATOM     21  C   UNL     1       0.347   4.157   1.874  0.00  0.00    +0.249 C 
ATOM     22  O   UNL     1       0.713   3.534   2.848  0.00  0.00    -0.272 OA
ATOM     23  N   UNL     1      -0.454   5.231   2.022  0.00  0.00    -0.233 N 
ATOM     24  H   UNL     1      -0.746   5.729   1.243  0.00  0.00    +0.173 HD
BRANCH  21  25
ATOM     25  C   UNL     1       0.789   3.731   0.498  0.00  0.00    +0.220 C 
BRANCH  25  36
ATOM     26  C   UNL     1       3.459  -1.749   0.946  0.00  0.00    +0.155 C 
ATOM     27  N   UNL     1       2.260  -0.913   0.852  0.00  0.00    -0.280 N 
ATOM     28  C   UNL     1       2.381   0.464   0.765  0.00  0.00    +0.168 A 
ATOM     29  C   UNL     1       1.229   1.235   0.676  0.00  0.00    +0.152 A 
ATOM     30  C   UNL     1      -0.029   0.594   0.676  0.00  0.00    +0.282 A 
ATOM     31  O   UNL     1      -1.054   1.247   0.594  0.00  0.00    -0.265 OA
ATOM     32  N   UNL     1      -0.083  -0.752   0.763  0.00  0.00    -0.262 N 
ATOM     33  C   UNL     1       1.041  -1.485   0.848  0.00  0.00    +0.333 A 
ATOM     34  O   UNL     1       0.954  -2.696   0.925  0.00  0.00    -0.246 OA
ATOM     35  C   UNL     1      -1.385  -1.423   0.763  0.00  0.00    +0.157 C 
ATOM     36  N   UNL     1       1.647   2.548   0.604  0.00  0.00    -0.316 N 
ATOM     37  C   UNL     1       2.993   2.536   0.650  0.00  0.00    +0.202 A 
ATOM     38  N   UNL     1       3.421   1.302   0.745  0.00  0.00    -0.218 NA
ENDBRANCH  25  36
ENDBRANCH  21  25
ENDBRANCH   1  23
TORSDOF 7
