REMARK  Name = ZINC65738624
REMARK  7 active torsions:
REMARK  status: ('A' for Active; 'I' for Inactive)
REMARK    1  A    between atoms: C_1  and  C_2
REMARK    2  A    between atoms: C_4  and  C_14
REMARK    3  A    between atoms: C_8  and  C_13
REMARK    4  A    between atoms: C_9  and  C_12
REMARK    5  A    between atoms: C_14  and  N_15
REMARK    6  A    between atoms: C_16  and  C_18
REMARK    7  A    between atoms: C_19  and  N_23
REMARK                            x       y       z     vdW  Elec       q    Type
REMARK                         _______ _______ _______ _____ _____    ______ ____
ROOT
ATOM      1  C   UNL     1       0.026  -2.791  -2.557  0.00  0.00    +0.142 C 
ENDROOT
BRANCH   1   5
ATOM      2  C   UNL     1      -0.018   1.503   0.010  0.00  0.00    +0.044 C 
ATOM      3  C   UNL     1       0.002  -0.004   0.002  0.00  0.00    -0.049 A 
ATOM      4  C   UNL     1       0.006  -0.686  -1.207  0.00  0.00    +0.010 A 
ATOM      5  C   UNL     1       0.024  -2.063  -1.237  0.00  0.00    -0.006 A 
ATOM      6  C   UNL     1       0.039  -2.780  -0.045  0.00  0.00    +0.052 A 
ATOM      7  C   UNL     1       0.036  -2.084   1.178  0.00  0.00    +0.003 A 
ATOM      8  C   UNL     1       0.023  -0.688   1.185  0.00  0.00    +0.013 A 
ATOM      9  C   UNL     1       0.055  -3.107   2.226  0.00  0.00    -0.022 A 
ATOM     10  C   UNL     1       0.067  -4.300   1.610  0.00  0.00    +0.017 A 
ATOM     11  N   UNL     1       0.058  -4.124   0.253  0.00  0.00    -0.358 N 
ATOM     12  H   UNL     1       0.065  -4.840  -0.402  0.00  0.00    +0.166 HD
ATOM     13  C   UNL     1       0.088  -5.635   2.309  0.00  0.00    +0.063 C 
ATOM     14  C   UNL     1       0.059  -2.867   3.713  0.00  0.00    +0.046 C 
ENDBRANCH   1   5
BRANCH   1  15
ATOM     15  N   UNL     1      -1.329  -3.254  -2.862  0.00  0.00    -0.307 N 
ATOM     16  C   UNL     1      -1.569  -3.935  -4.000  0.00  0.00    +0.253 C 
ATOM     17  O   UNL     1      -0.659  -4.164  -4.775  0.00  0.00    -0.270 OA
ATOM     18  H   UNL     1      -2.055  -3.072  -2.244  0.00  0.00    +0.149 HD
BRANCH  16  19
ATOM     19  C   UNL     1      -2.922  -4.398  -4.304  0.00  0.00    +0.099 A 
ATOM     20  C   UNL     1      -3.378  -5.113  -5.409  0.00  0.00    +0.088 A 
ATOM     21  C   UNL     1      -4.727  -5.407  -5.411  0.00  0.00    +0.036 A 
ATOM     22  C   UNL     1      -5.491  -4.994  -4.373  0.00  0.00    +0.048 A 
ATOM     23  S   UNL     1      -4.418  -4.200  -3.354  0.00  0.00    -0.090 S 
BRANCH  20  24
ATOM     24  N   UNL     1      -2.526  -5.507  -6.448  0.00  0.00    -0.199 N 
ATOM     25  C   UNL     1      -2.856  -6.195  -7.563  0.00  0.00    +0.250 A 
ATOM     26  N   UNL     1      -1.761  -6.349  -8.261  0.00  0.00    -0.116 NA
ATOM     27  N   UNL     1      -0.762  -5.806  -7.664  0.00  0.00    -0.023 NA
ATOM     28  N   UNL     1      -1.145  -5.267  -6.557  0.00  0.00    -0.039 NA
ENDBRANCH  20  24
ENDBRANCH  16  19
ENDBRANCH   1  15
TORSDOF 4
