REMARK  Name = ZINC05021541
REMARK  7 active torsions:
REMARK  status: ('A' for Active; 'I' for Inactive)
REMARK    1  A    between atoms: C_1  and  C_2
REMARK    2  A    between atoms: C_5  and  C_8
REMARK    3  A    between atoms: C_11  and  S_14
REMARK    4  A    between atoms: N_12  and  N_13
REMARK    5  A    between atoms: S_14  and  C_15
REMARK    6  A    between atoms: C_15  and  C_16
REMARK    7  A    between atoms: C_23  and  C_25
REMARK                            x       y       z     vdW  Elec       q    Type
REMARK                         _______ _______ _______ _____ _____    ______ ____
ROOT
ATOM      1  C   UNL     1      -6.481   6.627  -3.982  0.00  0.00    +0.182 A 
ATOM      2  N   UNL     1      -5.441   5.957  -4.421  0.00  0.00    -0.127 NA
ATOM      3  N   UNL     1      -4.751   5.518  -3.429  0.00  0.00    -0.121 NA
ATOM      4  C   UNL     1      -5.309   5.881  -2.296  0.00  0.00    +0.209 A 
ATOM      5  N   UNL     1      -6.431   6.594  -2.607  0.00  0.00    -0.224 N 
ENDROOT
BRANCH   1  10
ATOM      6  C   UNL     1     -10.502   9.196  -7.198  0.00  0.00    +0.044 C 
ATOM      7  C   UNL     1      -9.449   8.523  -6.356  0.00  0.00    -0.050 A 
ATOM      8  C   UNL     1      -8.592   7.602  -6.931  0.00  0.00    +0.004 A 
ATOM      9  C   UNL     1      -7.625   6.983  -6.165  0.00  0.00    +0.012 A 
ATOM     10  C   UNL     1      -7.514   7.287  -4.808  0.00  0.00    +0.021 A 
ATOM     11  C   UNL     1      -8.385   8.213  -4.233  0.00  0.00    +0.012 A 
ATOM     12  C   UNL     1      -9.344   8.829  -5.011  0.00  0.00    +0.004 A 
ENDBRANCH   1  10
BRANCH   5  13
ATOM     13  N   UNL     1      -7.319   7.158  -1.735  0.00  0.00    -0.295 N 
ATOM     14  H   UNL     1      -7.049   8.103  -1.506  0.00  0.00    +0.163 HD
ATOM     15  H   UNL     1      -8.257   7.130  -2.106  0.00  0.00    +0.163 HD
ENDBRANCH   5  13
BRANCH   4  16
ATOM     16  S   UNL     1      -4.722   5.510  -0.676  0.00  0.00    -0.075 S 
BRANCH  16  17
ATOM     17  C   UNL     1      -3.240   4.557  -1.090  0.00  0.00    +0.173 C 
BRANCH  17  18
ATOM     18  C   UNL     1      -2.553   4.121   0.178  0.00  0.00    +0.226 C 
ATOM     19  O   UNL     1      -3.019   4.425   1.256  0.00  0.00    -0.275 OA
ATOM     20  N   UNL     1      -1.420   3.394   0.116  0.00  0.00    -0.298 N 
ATOM     21  C   UNL     1      -0.902   2.924  -1.177  0.00  0.00    +0.108 C 
ATOM     22  C   UNL     1      -0.691   1.409  -1.103  0.00  0.00    +0.019 C 
ATOM     23  C   UNL     1       0.209   1.081   0.091  0.00  0.00    +0.003 C 
ATOM     24  C   UNL     1      -0.470   1.538   1.384  0.00  0.00    +0.022 C 
ATOM     25  C   UNL     1      -0.678   3.055   1.338  0.00  0.00    +0.073 C 
ATOM     26  C   UNL     1      -1.479   3.501   2.563  0.00  0.00    +0.028 C 
ENDBRANCH  17  18
ENDBRANCH  16  17
ENDBRANCH   4  16
TORSDOF 5
