REMARK  Name = ZINC39521358
REMARK  6 active torsions:
REMARK  status: ('A' for Active; 'I' for Inactive)
REMARK    1  A    between atoms: C_1  and  C_2
REMARK    2  A    between atoms: C_2  and  O_3
REMARK    3  A    between atoms: O_3  and  C_4
REMARK    4  A    between atoms: C_14  and  O_24
REMARK    5  A    between atoms: N_16  and  C_17
REMARK    6  A    between atoms: C_22  and  O_23
REMARK                            x       y       z     vdW  Elec       q    Type
REMARK                         _______ _______ _______ _____ _____    ______ ____
ROOT
ATOM      1  C   UNL     1       0.746  -1.888  -1.280  0.00  0.00    +0.120 C 
ATOM      2  C   UNL     1       2.029  -2.383  -0.609  0.00  0.00    +0.032 C 
ATOM      3  C   UNL     1       2.108  -3.907  -0.721  0.00  0.00    +0.005 C 
ATOM      4  C   UNL     1       2.118  -4.310  -2.197  0.00  0.00    +0.026 C 
ATOM      5  C   UNL     1       0.839  -3.812  -2.870  0.00  0.00    +0.040 C 
ATOM      6  C   UNL     1       0.756  -2.290  -2.756  0.00  0.00    +0.057 C 
ATOM      7  C   UNL     1      -0.379  -4.444  -2.190  0.00  0.00    +0.026 C 
ATOM      8  C   UNL     1      -1.645  -4.053  -2.956  0.00  0.00    +0.006 C 
ATOM      9  C   UNL     1      -1.560  -4.582  -4.390  0.00  0.00    +0.051 C 
ATOM     10  C   UNL     1      -0.355  -3.949  -5.093  0.00  0.00    +0.203 C 
ATOM     11  N   UNL     1       0.848  -4.197  -4.287  0.00  0.00    -0.296 N 
ENDROOT
BRANCH  11  12
ATOM     12  C   UNL     1       1.980  -4.790  -4.857  0.00  0.00    +0.074 A 
ATOM     13  C   UNL     1       2.118  -6.171  -4.854  0.00  0.00    +0.027 A 
ATOM     14  C   UNL     1       3.237  -6.754  -5.419  0.00  0.00    +0.002 A 
ATOM     15  C   UNL     1       4.219  -5.965  -5.988  0.00  0.00    +0.004 A 
ATOM     16  C   UNL     1       4.088  -4.588  -5.995  0.00  0.00    +0.047 A 
ATOM     17  C   UNL     1       2.967  -3.996  -5.436  0.00  0.00    +0.138 A 
BRANCH  17  18
ATOM     18  O   UNL     1       2.834  -2.643  -5.447  0.00  0.00    -0.505 OA
ATOM     19  H   UNL     1       3.213  -2.204  -4.673  0.00  0.00    +0.292 HD
ENDBRANCH  17  18
ENDBRANCH  11  12
BRANCH  10  20
ATOM     20  O   UNL     1      -0.196  -4.532  -6.388  0.00  0.00    -0.374 OA
ATOM     21  H   UNL     1      -0.960  -4.413  -6.970  0.00  0.00    +0.212 HD
ENDBRANCH  10  20
BRANCH   1  22
ATOM     22  O   UNL     1       0.671  -0.465  -1.174  0.00  0.00    -0.377 OA
BRANCH  22  24
ATOM     23  C   UNL     1      -0.019   1.526   0.010  0.00  0.00    +0.034 C 
ATOM     24  C   UNL     1       0.002  -0.004   0.002  0.00  0.00    +0.157 C 
ENDBRANCH  22  24
ENDBRANCH   1  22
TORSDOF 5
