REMARK  Name = ZINC20701269
REMARK  6 active torsions:
REMARK  status: ('A' for Active; 'I' for Inactive)
REMARK    1  A    between atoms: C_1  and  O_2
REMARK    2  A    between atoms: O_2  and  C_3
REMARK    3  A    between atoms: C_6  and  O_28
REMARK    4  A    between atoms: C_16  and  C_19
REMARK    5  A    between atoms: C_24  and  O_25
REMARK    6  A    between atoms: O_28  and  C_29
REMARK                            x       y       z     vdW  Elec       q    Type
REMARK                         _______ _______ _______ _____ _____    ______ ____
ROOT
ATOM      1  C   UNL     1       2.144   1.408  -3.617  0.00  0.00    +0.126 A 
ATOM      2  C   UNL     1       1.497   1.798  -4.779  0.00  0.00    +0.049 A 
ATOM      3  C   UNL     1       0.144   2.084  -4.745  0.00  0.00    +0.051 A 
ATOM      4  C   UNL     1      -0.556   1.989  -3.558  0.00  0.00    +0.141 A 
ATOM      5  C   UNL     1       0.085   1.604  -2.375  0.00  0.00    +0.077 A 
ATOM      6  C   UNL     1       1.447   1.305  -2.426  0.00  0.00    +0.026 A 
ATOM      7  C   UNL     1       2.107   0.877  -1.173  0.00  0.00    +0.052 C 
ATOM      8  C   UNL     1       3.547   1.117  -0.906  0.00  0.00    -0.022 C 
ATOM      9  C   UNL     1       3.710   1.293   0.401  0.00  0.00    -0.030 C 
ATOM     10  C   UNL     1       2.356   1.218   1.111  0.00  0.00    +0.033 C 
ATOM     11  C   UNL     1       1.400   1.641  -0.011  0.00  0.00    +0.029 C 
ATOM     12  C   UNL     1      -0.009   1.087   0.010  0.00  0.00    +0.109 C 
ATOM     13  N   UNL     1      -0.681   1.568  -1.208  0.00  0.00    -0.333 N 
ATOM     14  H   UNL     1      -1.736   1.877  -1.169  0.00  0.00    +0.147 HD
ENDROOT
BRANCH  12  15
ATOM     15  C   UNL     1      -0.739   1.583   1.231  0.00  0.00    +0.017 A 
ATOM     16  C   UNL     1      -0.971   0.729   2.292  0.00  0.00    +0.029 A 
ATOM     17  C   UNL     1      -1.641   1.183   3.414  0.00  0.00    +0.043 A 
ATOM     18  C   UNL     1      -2.079   2.494   3.477  0.00  0.00    +0.043 A 
ATOM     19  C   UNL     1      -1.849   3.352   2.418  0.00  0.00    +0.084 A 
ATOM     20  C   UNL     1      -1.173   2.899   1.293  0.00  0.00    +0.140 A 
ATOM     21 CL   UNL     1      -2.399   4.997   2.497  0.00  0.00    -0.080 Cl
ATOM     22 CL   UNL     1      -1.932   0.107   4.745  0.00  0.00    -0.083 Cl
BRANCH  20  23
ATOM     23  O   UNL     1      -0.940   3.742   0.253  0.00  0.00    -0.505 OA
ATOM     24  H   UNL     1      -1.284   4.785   0.303  0.00  0.00    +0.292 HD
ENDBRANCH  20  23
ENDBRANCH  12  15
BRANCH   1  26
ATOM     25  C   UNL     1       4.135   1.251  -4.908  0.00  0.00    +0.277 C 
ATOM     26  O   UNL     1       3.474   1.125  -3.648  0.00  0.00    -0.495 OA
ENDBRANCH   1  26
BRANCH   4  27
ATOM     27  O   UNL     1      -1.887   2.272  -3.540  0.00  0.00    -0.493 OA
ATOM     28  C   UNL     1      -2.486   2.659  -4.779  0.00  0.00    +0.277 C 
ENDBRANCH   4  27
TORSDOF 4
