REMARK  Name = ZINC67124271
REMARK  6 active torsions:
REMARK  status: ('A' for Active; 'I' for Inactive)
REMARK    1  A    between atoms: C_1  and  N_2
REMARK    2  A    between atoms: C_5  and  S_8
REMARK    3  A    between atoms: S_8  and  N_11
REMARK    4  A    between atoms: N_11  and  C_12
REMARK    5  A    between atoms: C_15  and  C_18
REMARK    6  A    between atoms: C_18  and  N_19
REMARK                            x       y       z     vdW  Elec       q    Type
REMARK                         _______ _______ _______ _____ _____    ______ ____
ROOT
ATOM      1  C   UNL     1       1.793  -4.610   3.321  0.00  0.00    +0.074 A 
ATOM      2  C   UNL     1       0.888  -5.649   3.494  0.00  0.00    +0.027 A 
ATOM      3  C   UNL     1       1.187  -6.687   4.355  0.00  0.00    +0.007 A 
ATOM      4  C   UNL     1       2.385  -6.691   5.046  0.00  0.00    -0.030 A 
ATOM      5  C   UNL     1       3.288  -5.658   4.876  0.00  0.00    +0.007 A 
ATOM      6  C   UNL     1       2.998  -4.621   4.012  0.00  0.00    +0.027 A 
ENDROOT
BRANCH   1   7
ATOM      7  N   UNL     1       1.495  -3.559   2.450  0.00  0.00    -0.096 NA
BRANCH   7   8
ATOM      8  S   UNL     1       0.058  -3.549   1.628  0.00  0.00    +0.110 S 
ATOM      9  O   UNL     1      -0.966  -3.397   2.601  0.00  0.00    -0.147 OA
ATOM     10  O   UNL     1       0.096  -4.647   0.728  0.00  0.00    -0.147 OA
BRANCH   8  15
ATOM     11  C   UNL     1      -0.018   1.461   0.010  0.00  0.00    +0.151 C 
ATOM     12  N   UNL     1       0.002  -0.004   0.002  0.00  0.00    -0.324 N 
ATOM     13  C   UNL     1       0.009  -0.800  -1.090  0.00  0.00    +0.176 A 
ATOM     14  N   UNL     1       0.027  -2.045  -0.701  0.00  0.00    -0.329 N 
ATOM     15  C   UNL     1       0.034  -2.090   0.640  0.00  0.00    +0.214 A 
ATOM     16  C   UNL     1       0.024  -0.822   1.099  0.00  0.00    +0.154 A 
ATOM     17 CL   UNL     1       0.032  -0.324   2.762  0.00  0.00    -0.060 Cl
ATOM     18  H   UNL     1       0.036  -2.817  -1.288  0.00  0.00    +0.168 HD
ENDBRANCH   8  15
ENDBRANCH   7   8
ENDBRANCH   1   7
BRANCH   4  19
ATOM     19  C   UNL     1       2.706  -7.825   5.986  0.00  0.00    +0.141 C 
BRANCH  19  20
ATOM     20  N   UNL     1       3.406  -8.883   5.253  0.00  0.00    -0.295 N 
ATOM     21  C   UNL     1       3.795 -10.003   5.894  0.00  0.00    +0.297 C 
ATOM     22  O   UNL     1       3.565 -10.135   7.081  0.00  0.00    -0.253 OA
ATOM     23  N   UNL     1       4.438 -10.977   5.220  0.00  0.00    -0.313 N 
ATOM     24  H   UNL     1       3.589  -8.778   4.306  0.00  0.00    +0.151 HD
ATOM     25  H   UNL     1       4.621 -10.872   4.273  0.00  0.00    +0.146 HD
ATOM     26  H   UNL     1       4.718 -11.783   5.682  0.00  0.00    +0.146 HD
ENDBRANCH  19  20
ENDBRANCH   4  19
TORSDOF 5
