REMARK  Name = ZINC15028098
REMARK  11 active torsions:
REMARK  status: ('A' for Active; 'I' for Inactive)
REMARK    1  A    between atoms: C_1  and  C_2
REMARK    2  A    between atoms: C_2  and  C_3
REMARK    3  A    between atoms: C_2  and  C_4
REMARK    4  A    between atoms: C_7  and  C_10
REMARK    5  A    between atoms: C_10  and  C_12
REMARK    6  A    between atoms: C_10  and  N_15
REMARK    7  A    between atoms: C_12  and  C_13
REMARK    8  A    between atoms: C_12  and  C_14
REMARK    9  A    between atoms: C_16  and  C_18
REMARK   10  A    between atoms: C_18  and  N_19
REMARK   11  A    between atoms: C_28  and  C_30
REMARK                            x       y       z     vdW  Elec       q    Type
REMARK                         _______ _______ _______ _____ _____    ______ ____
ROOT
ATOM      1  N   UNL     1       1.745  -4.358   3.911  0.00  0.00    -0.307 N 
ATOM      2  C   UNL     1       2.715  -4.806   4.732  0.00  0.00    +0.228 C 
ATOM      3  O   UNL     1       3.702  -4.130   4.930  0.00  0.00    -0.274 OA
ATOM      4  H   UNL     1       0.955  -4.899   3.752  0.00  0.00    +0.149 HD
ENDROOT
BRANCH   1   5
ATOM      5  C   UNL     1       1.883  -3.055   3.256  0.00  0.00    +0.106 C 
BRANCH   5   9
ATOM      6  C   UNL     1      -0.440  -3.010  -0.329  0.00  0.00    -0.045 A 
ATOM      7  C   UNL     1       0.809  -2.417  -0.306  0.00  0.00    +0.004 A 
ATOM      8  C   UNL     1       1.560  -2.432   0.854  0.00  0.00    +0.006 A 
ATOM      9  C   UNL     1       1.063  -3.038   1.992  0.00  0.00    -0.027 A 
ATOM     10  C   UNL     1      -0.186  -3.630   1.970  0.00  0.00    +0.006 A 
ATOM     11  C   UNL     1      -0.939  -3.612   0.811  0.00  0.00    +0.004 A 
BRANCH   6  13
ATOM     12  C   UNL     1      -1.524  -1.547  -2.011  0.00  0.00    +0.012 C 
ATOM     13  C   UNL     1      -1.259  -2.994  -1.593  0.00  0.00    +0.013 C 
ATOM     14  C   UNL     1      -0.494  -3.714  -2.706  0.00  0.00    +0.012 C 
ENDBRANCH   6  13
ENDBRANCH   5   9
BRANCH   5  15
ATOM     15  C   UNL     1       1.388  -1.956   4.199  0.00  0.00    +0.008 C 
ATOM     16  C   UNL     1      -0.043  -2.269   4.640  0.00  0.00    +0.009 C 
ATOM     17  C   UNL     1       2.297  -1.891   5.428  0.00  0.00    +0.009 C 
ENDBRANCH   5  15
ENDBRANCH   1   5
BRANCH   2  18
ATOM     18  C   UNL     1       2.573  -6.147   5.405  0.00  0.00    +0.181 C 
BRANCH  18  19
ATOM     19  N   UNL     1       3.753  -6.402   6.242  0.00  0.00    -0.278 NA
ATOM     20  C   UNL     1       4.924  -6.716   5.417  0.00  0.00    +0.121 C 
ATOM     21  C   UNL     1       6.102  -7.071   6.286  0.00  0.00    -0.030 A 
ATOM     22  C   UNL     1       7.371  -7.034   5.726  0.00  0.00    +0.005 A 
ATOM     23  C   UNL     1       8.478  -7.356   6.485  0.00  0.00    +0.000 A 
ATOM     24  C   UNL     1       8.323  -7.717   7.811  0.00  0.00    +0.000 A 
ATOM     25  C   UNL     1       7.061  -7.752   8.370  0.00  0.00    +0.004 A 
ATOM     26  C   UNL     1       5.948  -7.427   7.609  0.00  0.00    -0.041 A 
ATOM     27  C   UNL     1       4.592  -7.469   8.264  0.00  0.00    +0.063 C 
ATOM     28  C   UNL     1       3.497  -7.491   7.197  0.00  0.00    +0.148 C 
BRANCH  28  29
ATOM     29  C   UNL     1       2.152  -7.289   7.847  0.00  0.00    +0.228 C 
ATOM     30  O   UNL     1       1.753  -6.167   8.076  0.00  0.00    -0.274 OA
ATOM     31  N   UNL     1       1.395  -8.354   8.174  0.00  0.00    -0.328 N 
ATOM     32  H   UNL     1       1.714  -9.251   7.991  0.00  0.00    +0.145 HD
ATOM     33  H   UNL     1       0.529  -8.223   8.593  0.00  0.00    +0.145 HD
ENDBRANCH  28  29
ENDBRANCH  18  19
ENDBRANCH   2  18
TORSDOF 7
