REMARK  Name = ZINC59391922
REMARK  5 active torsions:
REMARK  status: ('A' for Active; 'I' for Inactive)
REMARK    1  A    between atoms: C_1  and  C_2
REMARK    2  A    between atoms: C_3  and  C_17
REMARK    3  A    between atoms: C_4  and  C_10
REMARK    4  A    between atoms: C_17  and  O_19
REMARK    5  A    between atoms: O_19  and  C_20
REMARK                            x       y       z     vdW  Elec       q    Type
REMARK                         _______ _______ _______ _____ _____    ______ ____
ROOT
ATOM      1  C   UNL     1       0.617   1.158   0.045  0.00  0.00    +0.061 C 
ATOM      2  C   UNL     1       0.351  -0.325   0.011  0.00  0.00    +0.021 C 
ATOM      3  C   UNL     1      -0.912  -0.770  -0.163  0.00  0.00    +0.078 C 
ATOM      4  C   UNL     1      -1.135  -2.269  -0.191  0.00  0.00    +0.145 C 
ATOM      5  N   UNL     1       0.053  -3.123  -0.026  0.00  0.00    -0.288 N 
ATOM      6  C   UNL     1       1.252  -2.529   0.138  0.00  0.00    +0.304 C 
ATOM      7  O   UNL     1       2.239  -3.226   0.275  0.00  0.00    -0.252 OA
ATOM      8  N   UNL     1       1.392  -1.198   0.150  0.00  0.00    -0.273 N 
ATOM      9  H   UNL     1      -0.025  -4.090  -0.035  0.00  0.00    +0.151 HD
ATOM     10  H   UNL     1       2.283  -0.832   0.268  0.00  0.00    +0.156 HD
ENDROOT
BRANCH   4  11
ATOM     11  C   UNL     1      -1.778  -2.618  -1.508  0.00  0.00    -0.004 A 
ATOM     12  C   UNL     1      -0.992  -2.975  -2.588  0.00  0.00    +0.007 A 
ATOM     13  C   UNL     1      -1.581  -3.296  -3.796  0.00  0.00    +0.000 A 
ATOM     14  C   UNL     1      -2.958  -3.259  -3.926  0.00  0.00    +0.001 A 
ATOM     15  C   UNL     1      -3.744  -2.902  -2.847  0.00  0.00    +0.020 A 
ATOM     16  C   UNL     1      -3.155  -2.587  -1.636  0.00  0.00    +0.046 A 
ATOM     17 CL   UNL     1      -4.143  -2.145  -0.279  0.00  0.00    -0.083 Cl
ENDBRANCH   4  11
BRANCH   3  18
ATOM     18  C   UNL     1      -1.991   0.132  -0.312  0.00  0.00    +0.339 C 
ATOM     19  O   UNL     1      -2.719   0.372   0.633  0.00  0.00    -0.245 OA
BRANCH  18  20
ATOM     20  O   UNL     1      -2.213   0.728  -1.503  0.00  0.00    -0.457 OA
BRANCH  20  21
ATOM     21  C   UNL     1      -3.252   1.708  -1.555  0.00  0.00    +0.194 C 
ATOM     22  C   UNL     1      -2.679   3.120  -1.277  0.00  0.00    +0.046 C 
ATOM     23  C   UNL     1      -3.720   4.049  -1.949  0.00  0.00    +0.005 C 
ATOM     24  C   UNL     1      -4.127   3.296  -3.232  0.00  0.00    +0.023 C 
ATOM     25  C   UNL     1      -3.832   1.805  -2.981  0.00  0.00    +0.121 C 
ATOM     26 CL   UNL     1      -5.352   0.842  -3.096  0.00  0.00    -0.118 Cl
ENDBRANCH  20  21
ENDBRANCH  18  20
ENDBRANCH   3  18
TORSDOF 4
