REMARK  Name = ZINC37078323
REMARK  5 active torsions:
REMARK  status: ('A' for Active; 'I' for Inactive)
REMARK    1  A    between atoms: C_1  and  C_2
REMARK    2  A    between atoms: C_2  and  N_3
REMARK    3  A    between atoms: N_3  and  C_4
REMARK    4  A    between atoms: N_3  and  C_5
REMARK    5  A    between atoms: C_10  and  N_11
REMARK                            x       y       z     vdW  Elec       q    Type
REMARK                         _______ _______ _______ _____ _____    ______ ____
ROOT
ATOM      1  C   UNL     1       2.096  -0.704   1.140  0.00  0.00    +0.054 A 
ATOM      2  C   UNL     1       2.969   0.320   1.472  0.00  0.00    +0.074 A 
ATOM      3  C   UNL     1       4.340   0.109   1.424  0.00  0.00    +0.164 A 
ATOM      4  C   UNL     1       4.838  -1.131   1.045  0.00  0.00    +0.164 A 
ATOM      5  C   UNL     1       3.966  -2.157   0.711  0.00  0.00    +0.074 A 
ATOM      6  C   UNL     1       2.596  -1.949   0.763  0.00  0.00    +0.050 A 
ATOM      7  O   UNL     1       6.181  -1.358   1.001  0.00  0.00    -0.485 OA
ATOM      8  C   UNL     1       7.029  -0.205   0.980  0.00  0.00    +0.270 C 
ATOM      9  C   UNL     1       6.535   0.773   2.055  0.00  0.00    +0.270 C 
ATOM     10  O   UNL     1       5.182   1.129   1.750  0.00  0.00    -0.485 OA
ENDROOT
BRANCH   6  11
ATOM     11  N   UNL     1       1.715  -2.989   0.431  0.00  0.00    -0.356 N 
ATOM     12  H   UNL     1       0.757  -2.841   0.463  0.00  0.00    +0.142 HD
ATOM     13  H   UNL     1       2.064  -3.855   0.168  0.00  0.00    +0.142 HD
ENDBRANCH   6  11
BRANCH   1  14
ATOM     14  N   UNL     1       0.711  -0.489   1.189  0.00  0.00    -0.332 N 
ATOM     15  C   UNL     1      -0.028  -0.750   2.427  0.00  0.00    +0.129 C 
BRANCH  14  17
ATOM     16  C   UNL     1      -0.019   1.526   0.010  0.00  0.00    +0.024 C 
ATOM     17  C   UNL     1       0.002  -0.004   0.002  0.00  0.00    +0.101 C 
ENDBRANCH  14  17
ENDBRANCH   1  14
TORSDOF 3
