REMARK  Name = ZINC09189936
REMARK  12 active torsions:
REMARK  status: ('A' for Active; 'I' for Inactive)
REMARK    1  A    between atoms: C_1  and  C_2
REMARK    2  A    between atoms: C_2  and  N_3
REMARK    3  A    between atoms: C_16  and  C_24
REMARK    4  A    between atoms: N_17  and  C_20
REMARK    5  A    between atoms: C_20  and  C_21
REMARK    6  A    between atoms: C_21  and  N_61
REMARK    7  A    between atoms: C_22  and  N_61
REMARK    8  A    between atoms: C_23  and  N_61
REMARK    9  A    between atoms: C_26  and  N_32
REMARK   10  A    between atoms: C_27  and  C_28
REMARK   11  A    between atoms: C_28  and  O_30
REMARK   12  A    between atoms: O_30  and  C_31
REMARK                            x       y       z     vdW  Elec       q    Type
REMARK                         _______ _______ _______ _____ _____    ______ ____
ROOT
ATOM      1  N   UNL     1      -2.101   4.107  -0.224  0.00  0.00    -0.270 N 
ATOM      2  C   UNL     1      -0.988   3.289  -0.300  0.00  0.00    +0.041 A 
ATOM      3  C   UNL     1      -0.914   1.902  -0.443  0.00  0.00    +0.024 A 
ATOM      4  C   UNL     1       0.351   1.336  -0.488  0.00  0.00    +0.002 A 
ATOM      5  C   UNL     1       1.497   2.100  -0.406  0.00  0.00    +0.000 A 
ATOM      6  C   UNL     1       1.437   3.482  -0.269  0.00  0.00    +0.007 A 
ATOM      7  C   UNL     1       0.183   4.051  -0.218  0.00  0.00    -0.002 A 
ATOM      8  C   UNL     1      -0.253   5.477  -0.076  0.00  0.00    +0.144 C 
ATOM      9  C   UNL     1      -1.765   5.407  -0.091  0.00  0.00    +0.240 C 
ATOM     10  O   UNL     1      -2.531   6.343  -0.000  0.00  0.00    -0.274 OA
ATOM     11  C   UNL     1       0.223   6.053   1.227  0.00  0.00    +0.083 A 
ATOM     12  C   UNL     1       1.259   6.963   1.254  0.00  0.00    +0.142 A 
ATOM     13  C   UNL     1       1.682   7.480   2.495  0.00  0.00    +0.068 A 
ATOM     14  C   UNL     1       1.070   7.082   3.631  0.00  0.00    +0.022 A 
ATOM     15  N   UNL     1       0.047   6.188   3.597  0.00  0.00    -0.314 N 
ATOM     16  C   UNL     1      -0.383   5.671   2.431  0.00  0.00    +0.260 A 
ATOM     17  O   UNL     1      -1.303   4.868   2.423  0.00  0.00    -0.267 OA
ATOM     18  C   UNL     1       1.527   7.638   4.955  0.00  0.00    +0.064 C 
ATOM     19  O   UNL     1       1.866   7.360   0.115  0.00  0.00    -0.441 OA
ATOM     20  C   UNL     1       1.256   7.189  -1.070  0.00  0.00    +0.196 C 
ATOM     21  C   UNL     1       0.237   6.304  -1.229  0.00  0.00    +0.117 C 
ENDROOT
BRANCH  20  22
ATOM     22  N   UNL     1       1.673   7.925  -2.146  0.00  0.00    -0.329 N 
ATOM     23  H   UNL     1       2.618   8.100  -2.277  0.00  0.00    +0.145 HD
ATOM     24  H   UNL     1       1.023   8.271  -2.778  0.00  0.00    +0.145 HD
ENDBRANCH  20  22
BRANCH   1  26
ATOM     25  C   UNL     1      -3.970   3.304   1.134  0.00  0.00    +0.025 C 
ATOM     26  C   UNL     1      -3.481   3.619  -0.282  0.00  0.00    +0.110 C 
ENDBRANCH   1  26
BRANCH  21  27
ATOM     27  C   UNL     1      -0.366   6.162  -2.488  0.00  0.00    +0.341 C 
ATOM     28  O   UNL     1      -0.023   6.878  -3.412  0.00  0.00    -0.245 OA
BRANCH  27  29
ATOM     29  O   UNL     1      -1.327   5.232  -2.675  0.00  0.00    -0.465 OA
ATOM     30  C   UNL     1      -1.897   5.142  -3.983  0.00  0.00    +0.280 C 
ENDBRANCH  27  29
ENDBRANCH  21  27
BRANCH  15  31
ATOM     31  C   UNL     1      -0.598   5.782   4.848  0.00  0.00    +0.106 C 
BRANCH  31  32
ATOM     32  C   UNL     1       0.122   4.558   5.418  0.00  0.00    -0.058 C 
BRANCH  32  35
ATOM     33  C   UNL     1      -0.018   2.848   7.127  0.00  0.00    -0.097 C 
ATOM     34  C   UNL     1      -0.350   5.174   7.712  0.00  0.00    -0.097 C 
ATOM     35  N   UNL     1      -0.552   4.147   6.668  0.00  0.00    +0.377 N 
ATOM     36  H   UNL     1      -1.558   4.049   6.487  0.00  0.00    -0.083 HD
ENDBRANCH  32  35
ENDBRANCH  31  32
ENDBRANCH  15  31
TORSDOF 7
