REMARK  Name = ZINC05955304
REMARK  9 active torsions:
REMARK  status: ('A' for Active; 'I' for Inactive)
REMARK    1  A    between atoms: C_1  and  C_2
REMARK    2  A    between atoms: C_2  and  C_4
REMARK    3  A    between atoms: C_2  and  O_11
REMARK    4  A    between atoms: N_9  and  C_10
REMARK    5  A    between atoms: O_11  and  C_12
REMARK    6  A    between atoms: C_12  and  C_14
REMARK    7  A    between atoms: C_17  and  N_22
REMARK    8  A    between atoms: C_19  and  O_20
REMARK    9  A    between atoms: O_20  and  C_21
REMARK                            x       y       z     vdW  Elec       q    Type
REMARK                         _______ _______ _______ _____ _____    ______ ____
ROOT
ATOM      1  C   UNL     1       1.175   2.076   0.002  0.00  0.00    +0.343 C 
ATOM      2  O   UNL     1       2.203   1.428  -0.011  0.00  0.00    -0.245 OA
ENDROOT
BRANCH   1   3
ATOM      3  C   UNL     1       1.232   3.546   0.009  0.00  0.00    +0.102 A 
ATOM      4  C   UNL     1       0.049   4.295   0.019  0.00  0.00    +0.040 A 
ATOM      5  C   UNL     1       0.103   5.659   0.030  0.00  0.00    +0.063 A 
ATOM      6  C   UNL     1       1.334   6.315   0.022  0.00  0.00    +0.047 A 
ATOM      7  C   UNL     1       2.516   5.586   0.008  0.00  0.00    +0.070 A 
ATOM      8  C   UNL     1       2.473   4.203   0.001  0.00  0.00    +0.136 A 
ATOM      9 CL   UNL     1      -1.368   6.580   0.049  0.00  0.00    -0.082 Cl
BRANCH   6  10
ATOM     10  N   UNL     1       1.377   7.705   0.028  0.00  0.00    -0.357 N 
ATOM     11  H   UNL     1       2.232   8.164   0.022  0.00  0.00    +0.142 HD
ATOM     12  H   UNL     1       0.553   8.216   0.039  0.00  0.00    +0.142 HD
ENDBRANCH   6  10
BRANCH   8  13
ATOM     13  O   UNL     1       3.624   3.485  -0.013  0.00  0.00    -0.494 OA
ATOM     14  C   UNL     1       4.848   4.222  -0.021  0.00  0.00    +0.277 C 
ENDBRANCH   8  13
ENDBRANCH   1   3
BRANCH   1  15
ATOM     15  O   UNL     1      -0.018   1.448   0.010  0.00  0.00    -0.449 OA
BRANCH  15  17
ATOM     16  C   UNL     1       0.023  -0.522   1.442  0.00  0.00    +0.062 C 
ATOM     17  C   UNL     1       0.002  -0.004   0.002  0.00  0.00    +0.259 C 
BRANCH  17  18
ATOM     18  C   UNL     1      -1.228  -0.519  -0.700  0.00  0.00    +0.261 C 
ATOM     19  O   UNL     1      -2.041   0.260  -1.148  0.00  0.00    -0.271 OA
ATOM     20  N   UNL     1      -1.425  -1.847  -0.828  0.00  0.00    -0.237 N 
ATOM     21  C   UNL     1      -2.525  -2.307  -1.455  0.00  0.00    +0.306 C 
ATOM     22  O   UNL     1      -3.340  -1.526  -1.905  0.00  0.00    -0.252 OA
ATOM     23  N   UNL     1      -2.721  -3.634  -1.584  0.00  0.00    -0.302 N 
ATOM     24  C   UNL     1      -3.917  -4.135  -2.265  0.00  0.00    +0.129 C 
ATOM     25  H   UNL     1      -0.774  -2.470  -0.469  0.00  0.00    +0.159 HD
ATOM     26  H   UNL     1      -2.071  -4.258  -1.224  0.00  0.00    +0.150 HD
ENDBRANCH  17  18
ENDBRANCH  15  17
ENDBRANCH   1  15
TORSDOF 6
