REMARK  Name = ZINC41186754
REMARK  4 active torsions:
REMARK  status: ('A' for Active; 'I' for Inactive)
REMARK    1  A    between atoms: C_1  and  C_2
REMARK    2  A    between atoms: C_9  and  C_14
REMARK    3  A    between atoms: C_14  and  C_15
REMARK    4  A    between atoms: C_15  and  C_16
REMARK                            x       y       z     vdW  Elec       q    Type
REMARK                         _______ _______ _______ _____ _____    ______ ____
ROOT
ATOM      1  C   UNL     1      -0.018   1.503   0.010  0.00  0.00    +0.044 C 
ATOM      2  C   UNL     1       0.002  -0.004   0.002  0.00  0.00    -0.050 A 
ATOM      3  C   UNL     1       0.006  -0.685  -1.208  0.00  0.00    +0.005 A 
ATOM      4  C   UNL     1       0.024  -2.063  -1.239  0.00  0.00    +0.026 A 
ATOM      5  C   UNL     1       0.040  -2.780  -0.047  0.00  0.00    +0.049 A 
ATOM      6  C   UNL     1       0.037  -2.086   1.177  0.00  0.00    -0.001 A 
ATOM      7  C   UNL     1       0.023  -0.687   1.185  0.00  0.00    +0.013 A 
ATOM      8  C   UNL     1       0.053  -2.850   2.426  0.00  0.00    +0.019 A 
ATOM      9  C   UNL     1       0.072  -4.204   2.357  0.00  0.00    +0.018 A 
ATOM     10  C   UNL     1       0.074  -4.852   1.103  0.00  0.00    +0.252 A 
ATOM     11  O   UNL     1       0.091  -6.070   1.064  0.00  0.00    -0.268 OA
ATOM     12  N   UNL     1       0.059  -4.159  -0.049  0.00  0.00    -0.322 N 
ATOM     13  H   UNL     1       0.061  -4.636  -0.893  0.00  0.00    +0.169 HD
ENDROOT
BRANCH   9  14
ATOM     14  C   UNL     1       0.089  -5.020   3.624  0.00  0.00    +0.050 C 
BRANCH  14  15
ATOM     15  C   UNL     1      -1.341  -5.421   3.992  0.00  0.00    +0.101 C 
BRANCH  15  16
ATOM     16  C   UNL     1      -1.323  -6.238   5.259  0.00  0.00    +0.220 C 
ATOM     17  O   UNL     1      -0.271  -6.475   5.813  0.00  0.00    -0.275 OA
ATOM     18  N   UNL     1      -2.477  -6.704   5.776  0.00  0.00    -0.271 N 
ATOM     19  C   UNL     1      -2.587  -7.501   7.001  0.00  0.00    +0.118 C 
ATOM     20  C   UNL     1      -4.090  -7.782   7.165  0.00  0.00    +0.056 C 
ATOM     21  C   UNL     1      -4.736  -7.100   5.981  0.00  0.00    -0.024 A 
ATOM     22  C   UNL     1      -3.745  -6.493   5.226  0.00  0.00    +0.039 A 
ATOM     23  C   UNL     1      -4.104  -5.791   4.074  0.00  0.00    +0.024 A 
ATOM     24  C   UNL     1      -5.428  -5.700   3.700  0.00  0.00    +0.002 A 
ATOM     25  C   UNL     1      -6.410  -6.305   4.462  0.00  0.00    +0.000 A 
ATOM     26  C   UNL     1      -6.061  -7.011   5.599  0.00  0.00    +0.005 A 
ENDBRANCH  15  16
ENDBRANCH  14  15
ENDBRANCH   9  14
TORSDOF 3
