REMARK  Name = ZINC65696240
REMARK  12 active torsions:
REMARK  status: ('A' for Active; 'I' for Inactive)
REMARK    1  A    between atoms: C_1  and  C_2
REMARK    2  A    between atoms: C_2  and  N_3
REMARK    3  A    between atoms: N_3  and  C_4
REMARK    4  A    between atoms: N_3  and  C_6
REMARK    5  A    between atoms: C_4  and  C_5
REMARK    6  A    between atoms: C_6  and  C_7
REMARK    7  A    between atoms: C_7  and  C_8
REMARK    8  A    between atoms: C_8  and  N_9
REMARK    9  A    between atoms: N_12  and  C_13
REMARK   10  A    between atoms: C_13  and  C_14
REMARK   11  A    between atoms: C_20  and  C_25
REMARK   12  A    between atoms: C_21  and  C_24
REMARK                            x       y       z     vdW  Elec       q    Type
REMARK                         _______ _______ _______ _____ _____    ______ ____
ROOT
ATOM      1  N   UNL     1      -4.288  -4.606   0.107  0.00  0.00    -0.299 N 
ATOM      2  C   UNL     1      -4.543  -5.924   0.224  0.00  0.00    +0.300 C 
ATOM      3  O   UNL     1      -3.632  -6.704   0.421  0.00  0.00    -0.253 OA
ATOM      4  N   UNL     1      -5.808  -6.377   0.123  0.00  0.00    -0.295 N 
ATOM      5  H   UNL     1      -5.015  -3.983  -0.050  0.00  0.00    +0.150 HD
ATOM      6  H   UNL     1      -6.535  -5.754  -0.034  0.00  0.00    +0.151 HD
ENDROOT
BRANCH   1   7
ATOM      7  C   UNL     1      -2.913  -4.113   0.217  0.00  0.00    +0.104 C 
BRANCH   7   8
ATOM      8  C   UNL     1      -2.901  -2.592   0.048  0.00  0.00    +0.000 C 
BRANCH   8   9
ATOM      9  C   UNL     1      -1.464  -2.078   0.163  0.00  0.00    -0.077 C 
BRANCH   9  10
ATOM     10  N   UNL     1      -1.438  -0.634  -0.108  0.00  0.00    +0.379 N 
ATOM     11  H   UNL     1      -1.863  -0.453  -1.004  0.00  0.00    -0.082 HD
BRANCH  10  13
ATOM     12  C   UNL     1      -2.263   1.562   0.594  0.00  0.00    -0.017 C 
ATOM     13  C   UNL     1      -2.184   0.074   0.941  0.00  0.00    -0.082 C 
ENDBRANCH  10  13
BRANCH  10  14
ATOM     14  C   UNL     1      -0.046  -0.164  -0.121  0.00  0.00    -0.082 C 
ATOM     15  C   UNL     1       0.689  -0.780  -1.313  0.00  0.00    -0.017 C 
ENDBRANCH  10  14
ENDBRANCH   9  10
ENDBRANCH   8   9
ENDBRANCH   7   8
ENDBRANCH   1   7
BRANCH   4  16
ATOM     16  C   UNL     1      -6.085  -7.810   0.250  0.00  0.00    +0.141 C 
BRANCH  16  17
ATOM     17  C   UNL     1      -7.566  -8.050   0.099  0.00  0.00    -0.030 A 
ATOM     18  C   UNL     1      -8.386  -8.021   1.219  0.00  0.00    +0.007 A 
ATOM     19  C   UNL     1      -9.741  -8.239   1.103  0.00  0.00    +0.026 A 
ATOM     20  C   UNL     1     -10.296  -8.491  -0.147  0.00  0.00    +0.047 A 
ATOM     21  C   UNL     1      -9.461  -8.518  -1.279  0.00  0.00    +0.003 A 
ATOM     22  C   UNL     1      -8.090  -8.290  -1.139  0.00  0.00    +0.015 A 
ATOM     23  C   UNL     1     -10.334  -8.803  -2.420  0.00  0.00    -0.022 A 
ATOM     24  C   UNL     1     -11.582  -8.924  -1.938  0.00  0.00    +0.017 A 
ATOM     25  N   UNL     1     -11.578  -8.741  -0.583  0.00  0.00    -0.358 N 
ATOM     26  H   UNL     1     -12.362  -8.780  -0.013  0.00  0.00    +0.166 HD
ATOM     27  C   UNL     1     -12.804  -9.219  -2.768  0.00  0.00    +0.063 C 
ATOM     28  C   UNL     1      -9.913  -8.934  -3.861  0.00  0.00    +0.046 C 
ENDBRANCH  16  17
ENDBRANCH   4  16
TORSDOF 8
