REMARK  Name = ZINC00040924
REMARK  5 active torsions:
REMARK  status: ('A' for Active; 'I' for Inactive)
REMARK    1  A    between atoms: C_1  and  C_2
REMARK    2  A    between atoms: C_3  and  C_17
REMARK    3  A    between atoms: C_4  and  C_10
REMARK    4  A    between atoms: C_17  and  O_19
REMARK    5  A    between atoms: O_19  and  C_20
REMARK                            x       y       z     vdW  Elec       q    Type
REMARK                         _______ _______ _______ _____ _____    ______ ____
ROOT
ATOM      1  C   UNL     1       3.240   6.156  -3.089  0.00  0.00    +0.061 C 
ATOM      2  C   UNL     1       2.916   5.679  -1.697  0.00  0.00    +0.021 C 
ATOM      3  C   UNL     1       2.759   4.357  -1.468  0.00  0.00    +0.078 C 
ATOM      4  C   UNL     1       2.434   3.921  -0.054  0.00  0.00    +0.144 C 
ATOM      5  N   UNL     1       2.316   4.981   0.961  0.00  0.00    -0.288 N 
ATOM      6  C   UNL     1       2.501   6.259   0.578  0.00  0.00    +0.304 C 
ATOM      7  O   UNL     1       2.406   7.142   1.409  0.00  0.00    -0.252 OA
ATOM      8  N   UNL     1       2.787   6.589  -0.688  0.00  0.00    -0.273 N 
ATOM      9  H   UNL     1       2.109   4.765   1.884  0.00  0.00    +0.151 HD
ATOM     10  H   UNL     1       2.909   7.528  -0.900  0.00  0.00    +0.156 HD
ENDROOT
BRANCH   4  11
ATOM     11  C   UNL     1       1.131   3.164  -0.089  0.00  0.00    -0.021 A 
ATOM     12  C   UNL     1       1.135   1.783  -0.150  0.00  0.00    +0.006 A 
ATOM     13  C   UNL     1      -0.059   1.088  -0.182  0.00  0.00    +0.001 A 
ATOM     14  C   UNL     1      -1.259   1.775  -0.158  0.00  0.00    +0.015 A 
ATOM     15  C   UNL     1      -1.264   3.156  -0.092  0.00  0.00    +0.018 A 
ATOM     16  C   UNL     1      -0.068   3.851  -0.060  0.00  0.00    +0.021 A 
ATOM     17 BR   UNL     1      -2.905   4.096  -0.052  0.00  0.00    -0.050 Br
ENDBRANCH   4  11
BRANCH   3  18
ATOM     18  C   UNL     1       2.893   3.413  -2.512  0.00  0.00    +0.338 C 
ATOM     19  O   UNL     1       3.046   3.791  -3.659  0.00  0.00    -0.245 OA
BRANCH  18  20
ATOM     20  O   UNL     1       2.850   2.092  -2.237  0.00  0.00    -0.465 OA
ATOM     21  C   UNL     1       2.992   1.195  -3.341  0.00  0.00    +0.280 C 
ENDBRANCH  18  20
ENDBRANCH   3  18
TORSDOF 3
