REMARK  Name = ZINC06184942
REMARK  7 active torsions:
REMARK  status: ('A' for Active; 'I' for Inactive)
REMARK    1  A    between atoms: C_1  and  C_2
REMARK    2  A    between atoms: C_2  and  C_3
REMARK    3  A    between atoms: N_12  and  C_13
REMARK    4  A    between atoms: C_13  and  C_14
REMARK    5  A    between atoms: C_14  and  C_15
REMARK    6  A    between atoms: C_15  and  C_16
REMARK    7  A    between atoms: C_15  and  C_22
REMARK                            x       y       z     vdW  Elec       q    Type
REMARK                         _______ _______ _______ _____ _____    ______ ____
ROOT
ATOM      1  C   UNL     1       0.596  -2.612  -0.898  0.00  0.00    +0.143 C 
ENDROOT
BRANCH   1   4
ATOM      2  C   UNL     1       1.633   0.871   0.175  0.00  0.00    +0.066 C 
ATOM      3  C   UNL     1       1.349  -0.609   0.176  0.00  0.00    +0.050 C 
ATOM      4  N   UNL     1       0.997  -1.203  -0.923  0.00  0.00    -0.288 NA
BRANCH   3   5
ATOM      5  C   UNL     1       1.470  -1.378   1.419  0.00  0.00    +0.124 A 
ATOM      6  C   UNL     1       2.576  -2.221   1.639  0.00  0.00    +0.267 A 
ATOM      7  N   UNL     1       2.657  -2.918   2.801  0.00  0.00    -0.274 N 
ATOM      8  C   UNL     1       1.696  -2.812   3.735  0.00  0.00    +0.329 A 
ATOM      9  N   UNL     1       0.627  -2.016   3.558  0.00  0.00    -0.274 N 
ATOM     10  C   UNL     1       0.486  -1.286   2.422  0.00  0.00    +0.267 A 
ATOM     11  O   UNL     1      -0.488  -0.559   2.269  0.00  0.00    -0.267 OA
ATOM     12  O   UNL     1       1.797  -3.450   4.765  0.00  0.00    -0.247 OA
ATOM     13  O   UNL     1       3.456  -2.324   0.791  0.00  0.00    -0.267 OA
ATOM     14  H   UNL     1       3.417  -3.501   2.959  0.00  0.00    +0.173 HD
ATOM     15  H   UNL     1      -0.050  -1.961   4.250  0.00  0.00    +0.173 HD
ENDBRANCH   3   5
ENDBRANCH   1   4
BRANCH   1  16
ATOM     16  C   UNL     1      -0.868  -2.734  -1.325  0.00  0.00    +0.036 C 
BRANCH  16  17
ATOM     17  C   UNL     1      -1.286  -4.205  -1.300  0.00  0.00    +0.051 C 
BRANCH  17  18
ATOM     18  C   UNL     1      -1.241  -4.715   0.118  0.00  0.00    -0.040 A 
ATOM     19  C   UNL     1      -0.519  -5.855   0.420  0.00  0.00    +0.004 A 
ATOM     20  C   UNL     1      -0.478  -6.322   1.720  0.00  0.00    +0.000 A 
ATOM     21  C   UNL     1      -1.159  -5.651   2.718  0.00  0.00    +0.000 A 
ATOM     22  C   UNL     1      -1.880  -4.511   2.416  0.00  0.00    +0.000 A 
ATOM     23  C   UNL     1      -1.917  -4.040   1.117  0.00  0.00    +0.004 A 
ENDBRANCH  17  18
BRANCH  17  24
ATOM     24  C   UNL     1      -2.687  -4.339  -1.837  0.00  0.00    -0.040 A 
ATOM     25  C   UNL     1      -3.702  -3.551  -1.325  0.00  0.00    +0.004 A 
ATOM     26  C   UNL     1      -4.987  -3.674  -1.819  0.00  0.00    +0.000 A 
ATOM     27  C   UNL     1      -5.258  -4.583  -2.824  0.00  0.00    +0.000 A 
ATOM     28  C   UNL     1      -4.244  -5.370  -3.337  0.00  0.00    +0.000 A 
ATOM     29  C   UNL     1      -2.957  -5.244  -2.846  0.00  0.00    +0.004 A 
ENDBRANCH  17  24
ENDBRANCH  16  17
ENDBRANCH   1  16
TORSDOF 6
