REMARK  Name = ZINC40384284
REMARK  6 active torsions:
REMARK  status: ('A' for Active; 'I' for Inactive)
REMARK    1  A    between atoms: C_3  and  S_6
REMARK    2  A    between atoms: S_6  and  N_9
REMARK    3  A    between atoms: C_13  and  C_16
REMARK    4  A    between atoms: C_16  and  N_17
REMARK    5  A    between atoms: N_17  and  S_18
REMARK    6  A    between atoms: S_18  and  N_21
REMARK                            x       y       z     vdW  Elec       q    Type
REMARK                         _______ _______ _______ _____ _____    ______ ____
ROOT
ATOM      1  N   UNL     1       4.477   2.089   1.552  0.00  0.00    -0.176 NA
ATOM      2  C   UNL     1       4.259   3.348   2.277  0.00  0.00    +0.109 C 
ATOM      3  C   UNL     1       3.505   3.045   3.576  0.00  0.00    +0.017 C 
ATOM      4  C   UNL     1       4.272   1.986   4.371  0.00  0.00    +0.007 C 
ATOM      5  C   UNL     1       4.361   0.696   3.552  0.00  0.00    +0.020 C 
ATOM      6  C   UNL     1       5.120   0.971   2.255  0.00  0.00    +0.114 C 
ENDROOT
BRANCH   1   7
ATOM      7  S   UNL     1       4.001   1.932  -0.026  0.00  0.00    +0.067 S 
ATOM      8  O   UNL     1       4.799   0.900  -0.590  0.00  0.00    -0.152 OA
ATOM      9  O   UNL     1       3.957   3.244  -0.570  0.00  0.00    -0.152 OA
BRANCH   7  12
ATOM     10  C   UNL     1      -0.016   1.351   0.009  0.00  0.00    +0.010 A 
ATOM     11  C   UNL     1       1.183   2.038   0.002  0.00  0.00    +0.036 A 
ATOM     12  C   UNL     1       2.343   1.336  -0.013  0.00  0.00    +0.143 A 
ATOM     13  S   UNL     1       1.754  -0.349  -0.017  0.00  0.00    -0.077 S 
ATOM     14  C   UNL     1       0.002  -0.004   0.002  0.00  0.00    +0.047 A 
ENDBRANCH   7  12
ENDBRANCH   1   7
BRANCH   5  15
ATOM     15  C   UNL     1       5.098  -0.373   4.361  0.00  0.00    +0.111 C 
BRANCH  15  16
ATOM     16  N   UNL     1       4.309  -0.720   5.545  0.00  0.00    -0.180 NA
ATOM     17  H   UNL     1       3.579  -0.146   5.827  0.00  0.00    +0.149 HD
BRANCH  16  18
ATOM     18  S   UNL     1       4.662  -2.092   6.403  0.00  0.00    +0.092 S 
ATOM     19  O   UNL     1       3.750  -2.136   7.492  0.00  0.00    -0.142 OA
ATOM     20  O   UNL     1       4.768  -3.146   5.456  0.00  0.00    -0.142 OA
BRANCH  18  21
ATOM     21  N   UNL     1       6.170  -1.887   7.055  0.00  0.00    -0.193 NA
ATOM     22  H   UNL     1       6.397  -2.316   7.895  0.00  0.00    +0.145 HD
ATOM     23  H   UNL     1       6.826  -1.339   6.597  0.00  0.00    +0.145 HD
ENDBRANCH  18  21
ENDBRANCH  16  18
ENDBRANCH  15  16
ENDBRANCH   5  15
TORSDOF 6
