REMARK  Name = ZINC09796874
REMARK  9 active torsions:
REMARK  status: ('A' for Active; 'I' for Inactive)
REMARK    1  A    between atoms: C_1  and  O_2
REMARK    2  A    between atoms: O_2  and  C_3
REMARK    3  A    between atoms: C_8  and  N_9
REMARK    4  A    between atoms: C_10  and  S_14
REMARK    5  A    between atoms: S_14  and  C_15
REMARK    6  A    between atoms: C_15  and  C_16
REMARK    7  A    between atoms: N_18  and  C_19
REMARK    8  A    between atoms: C_19  and  C_20
REMARK    9  A    between atoms: C_20  and  N_61
REMARK                            x       y       z     vdW  Elec       q    Type
REMARK                         _______ _______ _______ _____ _____    ______ ____
ROOT
ATOM      1  C   UNL     1       0.219  -2.189   1.728  0.00  0.00    +0.223 C 
ATOM      2  O   UNL     1      -0.247  -2.942   0.899  0.00  0.00    -0.275 OA
ATOM      3  N   UNL     1      -0.037  -0.868   1.656  0.00  0.00    -0.316 N 
ATOM      4  H   UNL     1       0.336  -0.265   2.319  0.00  0.00    +0.149 HD
ENDROOT
BRANCH   1   5
ATOM      5  C   UNL     1       1.084  -2.730   2.837  0.00  0.00    +0.173 C 
BRANCH   5   6
ATOM      6  S   UNL     1       1.238  -4.525   2.660  0.00  0.00    -0.075 S 
BRANCH   6   8
ATOM      7  N   UNL     1       2.717  -6.104   4.423  0.00  0.00    -0.184 N 
ATOM      8  C   UNL     1       2.268  -4.881   4.045  0.00  0.00    +0.215 A 
ATOM      9  N   UNL     1       2.742  -4.012   4.912  0.00  0.00    -0.101 NA
ATOM     10  N   UNL     1       3.458  -4.604   5.798  0.00  0.00    -0.022 NA
ATOM     11  N   UNL     1       3.495  -5.873   5.571  0.00  0.00    -0.038 NA
BRANCH   7  17
ATOM     12  C   UNL     1       2.073  -8.435   4.561  0.00  0.00    +0.146 A 
ATOM     13  C   UNL     1       1.818  -9.648   3.940  0.00  0.00    +0.048 A 
ATOM     14  C   UNL     1       1.960  -9.766   2.570  0.00  0.00    +0.004 A 
ATOM     15  C   UNL     1       2.351  -8.676   1.815  0.00  0.00    +0.002 A 
ATOM     16  C   UNL     1       2.602  -7.462   2.426  0.00  0.00    +0.031 A 
ATOM     17  C   UNL     1       2.462  -7.336   3.800  0.00  0.00    +0.111 A 
BRANCH  12  19
ATOM     18  C   UNL     1       1.537  -9.488   6.624  0.00  0.00    +0.277 C 
ATOM     19  O   UNL     1       1.939  -8.319   5.909  0.00  0.00    -0.493 OA
ENDBRANCH  12  19
ENDBRANCH   7  17
ENDBRANCH   6   8
ENDBRANCH   5   6
ENDBRANCH   1   5
BRANCH   3  20
ATOM     20  C   UNL     1      -0.877  -0.342   0.578  0.00  0.00    +0.092 C 
BRANCH  20  21
ATOM     21  C   UNL     1      -0.860   1.188   0.618  0.00  0.00    -0.049 C 
ATOM     22  C   UNL     1      -1.193   1.665   2.033  0.00  0.00    -0.010 C 
ATOM     23  C   UNL     1      -2.583   1.161   2.427  0.00  0.00    -0.001 C 
ATOM     24  C   UNL     1      -3.621   1.708   1.446  0.00  0.00    -0.000 C 
ATOM     25  C   UNL     1      -3.288   1.231   0.031  0.00  0.00    -0.001 C 
ATOM     26  C   UNL     1      -1.898   1.736  -0.363  0.00  0.00    -0.010 C 
BRANCH  21  32
ATOM     27  C   UNL     1       0.757   1.386  -1.175  0.00  0.00    -0.049 C 
ATOM     28  C   UNL     1       2.129   1.959  -1.541  0.00  0.00    +0.141 C 
ATOM     29  O   UNL     1       3.119   1.408  -0.669  0.00  0.00    -0.383 OA
ATOM     30  C   UNL     1       2.875   1.668   0.716  0.00  0.00    +0.141 C 
ATOM     31  C   UNL     1       1.511   1.092   1.106  0.00  0.00    -0.049 C 
ATOM     32  N   UNL     1       0.476   1.699   0.242  0.00  0.00    +0.387 N 
ATOM     33  H   UNL     1       0.491   2.718   0.369  0.00  0.00    -0.081 HD
ENDBRANCH  21  32
ENDBRANCH  20  21
ENDBRANCH   3  20
TORSDOF 8
