REMARK  Name = ZINC09502595
REMARK  8 active torsions:
REMARK  status: ('A' for Active; 'I' for Inactive)
REMARK    1  A    between atoms: C_1  and  C_2
REMARK    2  A    between atoms: C_5  and  N_9
REMARK    3  A    between atoms: C_10  and  C_12
REMARK    4  A    between atoms: C_12  and  N_13
REMARK    5  A    between atoms: C_17  and  S_23
REMARK    6  A    between atoms: S_23  and  N_26
REMARK    7  A    between atoms: C_28  and  C_35
REMARK    8  A    between atoms: C_31  and  C_34
REMARK                            x       y       z     vdW  Elec       q    Type
REMARK                         _______ _______ _______ _____ _____    ______ ____
ROOT
ATOM      1  N   UNL     1      -3.213   4.971  -7.157  0.00  0.00    -0.265 N 
ATOM      2  C   UNL     1      -2.801   5.058  -5.827  0.00  0.00    +0.091 A 
ATOM      3  C   UNL     1      -2.008   5.959  -5.134  0.00  0.00    +0.031 A 
ATOM      4  C   UNL     1      -1.780   5.776  -3.784  0.00  0.00    +0.031 A 
ATOM      5  C   UNL     1      -2.332   4.691  -3.125  0.00  0.00    +0.109 A 
ATOM      6  C   UNL     1      -3.123   3.789  -3.810  0.00  0.00    +0.077 A 
ATOM      7  C   UNL     1      -3.361   3.967  -5.164  0.00  0.00    +0.159 A 
ATOM      8  O   UNL     1      -4.078   3.265  -6.076  0.00  0.00    -0.407 OA
ATOM      9  C   UNL     1      -3.985   3.872  -7.270  0.00  0.00    +0.422 A 
ATOM     10  O   UNL     1      -4.516   3.490  -8.295  0.00  0.00    -0.223 OA
ENDROOT
BRANCH   5  11
ATOM     11  S   UNL     1      -2.030   4.463  -1.404  0.00  0.00    +0.061 S 
ATOM     12  O   UNL     1      -3.106   3.682  -0.903  0.00  0.00    -0.153 OA
ATOM     13  O   UNL     1      -1.707   5.742  -0.876  0.00  0.00    -0.153 OA
BRANCH  11  14
ATOM     14  N   UNL     1      -0.666   3.535  -1.265  0.00  0.00    -0.176 NA
ATOM     15  C   UNL     1      -0.759   2.069  -1.216  0.00  0.00    +0.112 C 
ATOM     16  C   UNL     1      -0.023   1.570   0.031  0.00  0.00    +0.002 C 
ATOM     17  C   UNL     1       1.409   2.108   0.023  0.00  0.00    +0.009 C 
ATOM     18  C   UNL     1       1.381   3.638   0.059  0.00  0.00    +0.002 C 
ATOM     19  C   UNL     1       0.661   4.161  -1.188  0.00  0.00    +0.112 C 
ATOM     20  C   UNL     1       0.638   4.106   1.311  0.00  0.00    +0.009 C 
ATOM     21  C   UNL     1       0.006   0.040   0.029  0.00  0.00    +0.009 C 
ENDBRANCH  11  14
ENDBRANCH   5  11
BRANCH   1  22
ATOM     22  C   UNL     1      -2.869   5.903  -8.233  0.00  0.00    +0.224 C 
BRANCH  22  24
ATOM     23  N   UNL     1      -1.091   6.154  -9.934  0.00  0.00    -0.284 N 
ATOM     24  C   UNL     1      -1.601   5.446  -8.908  0.00  0.00    +0.237 C 
ATOM     25  O   UNL     1      -1.040   4.440  -8.527  0.00  0.00    -0.274 OA
ATOM     26  H   UNL     1      -1.574   6.920 -10.283  0.00  0.00    +0.155 HD
BRANCH  23  31
ATOM     27  C   UNL     1       3.884   4.662 -12.219  0.00  0.00    +0.045 C 
ATOM     28  C   UNL     1       2.562   5.058 -11.612  0.00  0.00    -0.032 A 
ATOM     29  C   UNL     1       2.217   6.394 -11.522  0.00  0.00    +0.006 A 
ATOM     30  C   UNL     1       1.004   6.760 -10.972  0.00  0.00    +0.023 A 
ATOM     31  C   UNL     1       0.136   5.785 -10.498  0.00  0.00    +0.035 A 
ATOM     32  C   UNL     1       0.484   4.445 -10.588  0.00  0.00    +0.043 A 
ATOM     33  C   UNL     1       1.697   4.084 -11.146  0.00  0.00    +0.046 A 
ATOM     34 CL   UNL     1       2.135   2.408 -11.260  0.00  0.00    -0.083 Cl
ENDBRANCH  23  31
ENDBRANCH  22  24
ENDBRANCH   1  22
TORSDOF 5
