REMARK  Name = ZINC55189324
REMARK  5 active torsions:
REMARK  status: ('A' for Active; 'I' for Inactive)
REMARK    1  A    between atoms: C_1  and  C_2
REMARK    2  A    between atoms: C_7  and  C_9
REMARK    3  A    between atoms: C_7  and  N_11
REMARK    4  A    between atoms: C_9  and  O_10
REMARK    5  A    between atoms: C_12  and  C_14
REMARK                            x       y       z     vdW  Elec       q    Type
REMARK                         _______ _______ _______ _____ _____    ______ ____
ROOT
ATOM      1  N   UNL     1       2.053   1.416   1.195  0.00  0.00    -0.302 N 
ATOM      2  C   UNL     1       1.554   1.862   2.365  0.00  0.00    +0.263 C 
ATOM      3  O   UNL     1       1.220   1.069   3.225  0.00  0.00    -0.268 OA
ATOM      4  H   UNL     1       2.248   2.042   0.481  0.00  0.00    +0.150 HD
ENDROOT
BRANCH   2   5
ATOM      5  C   UNL     1       1.412   3.307   2.601  0.00  0.00    +0.135 A 
ATOM      6  C   UNL     1       0.909   3.772   3.791  0.00  0.00    +0.081 A 
ATOM      7  S   UNL     1       0.970   5.537   3.511  0.00  0.00    -0.060 S 
ATOM      8  C   UNL     1       1.649   5.483   1.859  0.00  0.00    +0.156 A 
ATOM      9  N   UNL     1       1.776   4.186   1.664  0.00  0.00    -0.221 NA
ATOM     10  N   UNL     1       1.966   6.529   1.009  0.00  0.00    -0.338 N 
ATOM     11  H   UNL     1       1.821   7.445   1.293  0.00  0.00    +0.144 HD
ATOM     12  H   UNL     1       2.332   6.346   0.130  0.00  0.00    +0.144 HD
ENDBRANCH   2   5
BRANCH   1  18
ATOM     13  C   UNL     1      -0.218   1.226   0.171  0.00  0.00    +0.007 C 
ATOM     14  C   UNL     1       0.041  -0.268  -0.030  0.00  0.00    -0.012 C 
ATOM     15  C   UNL     1       0.691  -0.494  -1.397  0.00  0.00    +0.003 C 
ATOM     16  C   UNL     1       2.016   0.267  -1.464  0.00  0.00    +0.002 C 
ATOM     17  C   UNL     1       2.951  -0.240  -0.364  0.00  0.00    +0.028 C 
ATOM     18  C   UNL     1       2.302  -0.015   1.002  0.00  0.00    +0.058 C 
ATOM     19  C   UNL     1       0.976  -0.776   1.069  0.00  0.00    +0.031 C 
BRANCH  18  20
ATOM     20  C   UNL     1       3.237  -0.523   2.102  0.00  0.00    +0.181 C 
BRANCH  20  21
ATOM     21  O   UNL     1       4.484   0.172   2.025  0.00  0.00    -0.393 OA
ATOM     22  H   UNL     1       5.127  -0.100   2.694  0.00  0.00    +0.209 HD
ENDBRANCH  20  21
ENDBRANCH  18  20
ENDBRANCH   1  18
TORSDOF 4
