REMARK  Name = ZINC66661278
REMARK  9 active torsions:
REMARK  status: ('A' for Active; 'I' for Inactive)
REMARK    1  A    between atoms: C_1  and  C_2
REMARK    2  A    between atoms: C_2  and  C_3
REMARK    3  A    between atoms: C_3  and  C_5
REMARK    4  A    between atoms: C_3  and  N_6
REMARK    5  A    between atoms: C_7  and  N_11
REMARK    6  A    between atoms: C_12  and  C_14
REMARK    7  A    between atoms: C_14  and  N_15
REMARK    8  A    between atoms: N_18  and  C_19
REMARK    9  A    between atoms: C_19  and  C_20
REMARK                            x       y       z     vdW  Elec       q    Type
REMARK                         _______ _______ _______ _____ _____    ______ ____
ROOT
ATOM      1  C   UNL     1      -3.981  -2.477  -4.290  0.00  0.00    +0.202 C 
ENDROOT
BRANCH   1   2
ATOM      2  N   UNL     1      -4.436  -3.579  -5.142  0.00  0.00    -0.291 N 
ATOM      3  C   UNL     1      -5.147  -3.319  -6.257  0.00  0.00    +0.300 C 
ATOM      4  O   UNL     1      -5.410  -2.170  -6.556  0.00  0.00    -0.253 OA
ATOM      5  N   UNL     1      -5.566  -4.332  -7.040  0.00  0.00    -0.295 N 
ATOM      6  H   UNL     1      -4.226  -4.495  -4.903  0.00  0.00    +0.151 HD
ATOM      7  H   UNL     1      -5.356  -5.249  -6.802  0.00  0.00    +0.151 HD
BRANCH   5   8
ATOM      8  C   UNL     1      -6.339  -4.050  -8.252  0.00  0.00    +0.141 C 
BRANCH   8   9
ATOM      9  C   UNL     1      -6.681  -5.345  -8.943  0.00  0.00    -0.030 A 
ATOM     10  C   UNL     1      -5.820  -5.874  -9.887  0.00  0.00    +0.006 A 
ATOM     11  C   UNL     1      -6.134  -7.061 -10.520  0.00  0.00    +0.020 A 
ATOM     12  C   UNL     1      -7.309  -7.721 -10.210  0.00  0.00    +0.041 A 
ATOM     13  C   UNL     1      -8.170  -7.192  -9.265  0.00  0.00    +0.020 A 
ATOM     14  C   UNL     1      -7.853  -6.007  -8.628  0.00  0.00    +0.006 A 
ATOM     15 CL   UNL     1      -7.704  -9.213 -11.005  0.00  0.00    -0.084 Cl
ENDBRANCH   8   9
ENDBRANCH   5   8
ENDBRANCH   1   2
BRANCH   1  17
ATOM     16  N   UNL     1      -2.696  -2.197  -2.195  0.00  0.00    -0.269 N 
ATOM     17  C   UNL     1      -3.214  -3.032  -3.118  0.00  0.00    +0.235 C 
ATOM     18  O   UNL     1      -3.063  -4.230  -3.005  0.00  0.00    -0.274 OA
ATOM     19  H   UNL     1      -2.817  -1.239  -2.286  0.00  0.00    +0.156 HD
BRANCH  16  21
ATOM     20  N   UNL     1      -1.416  -1.993  -0.116  0.00  0.00    -0.248 N 
ATOM     21  C   UNL     1      -1.986  -2.711  -1.110  0.00  0.00    +0.123 A 
ATOM     22  C   UNL     1      -1.742  -4.026  -0.859  0.00  0.00    +0.065 A 
ATOM     23  C   UNL     1      -1.002  -4.106   0.324  0.00  0.00    +0.136 A 
ATOM     24  N   UNL     1      -0.802  -2.891   0.766  0.00  0.00    -0.178 NA
BRANCH  20  25
ATOM     25  C   UNL     1      -1.433  -0.534   0.013  0.00  0.00    +0.106 C 
ATOM     26  C   UNL     1      -2.110  -0.145   1.329  0.00  0.00    +0.032 C 
BRANCH  25  28
ATOM     27  C   UNL     1      -0.019   1.526   0.010  0.00  0.00    +0.006 C 
ATOM     28  C   UNL     1       0.002  -0.004   0.002  0.00  0.00    +0.023 C 
ENDBRANCH  25  28
ENDBRANCH  20  25
ENDBRANCH  16  21
ENDBRANCH   1  17
TORSDOF 7
