REMARK  Name = ZINC24681298
REMARK  7 active torsions:
REMARK  status: ('A' for Active; 'I' for Inactive)
REMARK    1  A    between atoms: C_1  and  N_2
REMARK    2  A    between atoms: C_6  and  S_12
REMARK    3  A    between atoms: S_12  and  N_15
REMARK    4  A    between atoms: N_15  and  C_16
REMARK    5  A    between atoms: C_16  and  C_17
REMARK    6  A    between atoms: C_17  and  C_19
REMARK    7  A    between atoms: C_17  and  N_26
REMARK                            x       y       z     vdW  Elec       q    Type
REMARK                         _______ _______ _______ _____ _____    ______ ____
ROOT
ATOM      1  N   UNL     1      -0.302  -1.717  -1.769  0.00  0.00    -0.188 NA
ATOM      2  H   UNL     1       0.305  -2.400  -1.157  0.00  0.00    +0.148 HD
ENDROOT
BRANCH   1   3
ATOM      3  S   UNL     1      -1.046  -2.296  -3.130  0.00  0.00    +0.059 S 
ATOM      4  O   UNL     1      -0.884  -3.708  -3.112  0.00  0.00    -0.153 OA
ATOM      5  O   UNL     1      -2.323  -1.676  -3.189  0.00  0.00    -0.153 OA
BRANCH   3  11
ATOM      6  C   UNL     1       2.206   0.589  -8.654  0.00  0.00    +0.156 C 
ATOM      7  N   UNL     1       2.180  -0.563  -7.749  0.00  0.00    -0.277 N 
ATOM      8  C   UNL     1       1.293  -0.761  -6.691  0.00  0.00    +0.090 A 
ATOM      9  C   UNL     1       0.240  -0.018  -6.181  0.00  0.00    +0.031 A 
ATOM     10  C   UNL     1      -0.474  -0.493  -5.098  0.00  0.00    +0.031 A 
ATOM     11  C   UNL     1      -0.133  -1.702  -4.516  0.00  0.00    +0.109 A 
ATOM     12  C   UNL     1       0.915  -2.447  -5.019  0.00  0.00    +0.077 A 
ATOM     13  C   UNL     1       1.634  -1.982  -6.109  0.00  0.00    +0.159 A 
ATOM     14  O   UNL     1       2.685  -2.480  -6.804  0.00  0.00    -0.407 OA
ATOM     15  C   UNL     1       3.009  -1.625  -7.787  0.00  0.00    +0.421 A 
ATOM     16  O   UNL     1       3.911  -1.784  -8.587  0.00  0.00    -0.223 OA
ENDBRANCH   3  11
ENDBRANCH   1   3
BRANCH   1  17
ATOM     17  C   UNL     1      -0.272  -0.276  -1.507  0.00  0.00    +0.129 C 
BRANCH  17  18
ATOM     18  C   UNL     1       0.158  -0.029  -0.060  0.00  0.00    +0.104 C 
BRANCH  18  19
ATOM     19  C   UNL     1       0.036   1.439   0.257  0.00  0.00    -0.011 A 
ATOM     20  C   UNL     1       1.156   2.248   0.228  0.00  0.00    +0.006 A 
ATOM     21  C   UNL     1       1.044   3.595   0.519  0.00  0.00    +0.000 A 
ATOM     22  C   UNL     1      -0.188   4.133   0.839  0.00  0.00    +0.001 A 
ATOM     23  C   UNL     1      -1.309   3.326   0.869  0.00  0.00    +0.020 A 
ATOM     24  C   UNL     1      -1.199   1.978   0.573  0.00  0.00    +0.046 A 
ATOM     25 CL   UNL     1      -2.607   0.965   0.603  0.00  0.00    -0.083 Cl
ENDBRANCH  18  19
BRANCH  18  26
ATOM     26  N   UNL     1       1.553  -0.454   0.116  0.00  0.00    -0.290 NA
ATOM     27  C   UNL     1       2.312  -0.300  -1.133  0.00  0.00    +0.113 C 
ATOM     28  C   UNL     1       3.771  -0.696  -0.890  0.00  0.00    +0.175 C 
ATOM     29  O   UNL     1       3.819  -2.034  -0.389  0.00  0.00    -0.377 OA
ATOM     30  C   UNL     1       3.090  -2.220   0.828  0.00  0.00    +0.175 C 
ATOM     31  C   UNL     1       1.625  -1.839   0.602  0.00  0.00    +0.113 C 
ENDBRANCH  18  26
ENDBRANCH  17  18
ENDBRANCH   1  17
TORSDOF 6
