REMARK  Name = ZINC61865748
REMARK  10 active torsions:
REMARK  status: ('A' for Active; 'I' for Inactive)
REMARK    1  A    between atoms: C_1  and  C_2
REMARK    2  A    between atoms: C_2  and  N_3
REMARK    3  A    between atoms: N_3  and  C_4
REMARK    4  A    between atoms: C_4  and  C_5
REMARK    5  A    between atoms: N_8  and  C_9
REMARK    6  A    between atoms: C_12  and  C_15
REMARK    7  A    between atoms: C_15  and  C_16
REMARK    8  A    between atoms: C_15  and  N_17
REMARK    9  A    between atoms: N_20  and  N_21
REMARK   10  A    between atoms: C_22  and  C_24
REMARK                            x       y       z     vdW  Elec       q    Type
REMARK                         _______ _______ _______ _____ _____    ______ ____
ROOT
ATOM      1  C   UNL     1      -5.810  -1.812   6.226  0.00  0.00    +0.102 C 
ATOM      2  C   UNL     1      -6.751  -0.629   6.463  0.00  0.00    +0.033 C 
ENDROOT
BRANCH   1   6
ATOM      3  C   UNL     1      -3.887  -1.364   2.435  0.00  0.00    +0.035 A 
ATOM      4  C   UNL     1      -3.216  -1.019   3.601  0.00  0.00    +0.023 A 
ATOM      5  C   UNL     1      -3.841  -1.165   4.824  0.00  0.00    +0.007 A 
ATOM      6  C   UNL     1      -5.132  -1.654   4.889  0.00  0.00    -0.027 A 
ATOM      7  C   UNL     1      -5.803  -1.999   3.730  0.00  0.00    +0.007 A 
ATOM      8  C   UNL     1      -5.186  -1.850   2.503  0.00  0.00    +0.023 A 
BRANCH   3  12
ATOM      9  N   UNL     1      -3.355  -0.617  -1.060  0.00  0.00    -0.286 N 
ATOM     10  C   UNL     1      -3.975  -0.848   0.114  0.00  0.00    +0.306 C 
ATOM     11  O   UNL     1      -5.182  -0.725   0.199  0.00  0.00    -0.252 OA
ATOM     12  N   UNL     1      -3.258  -1.217   1.194  0.00  0.00    -0.269 N 
ATOM     13  H   UNL     1      -2.305  -1.381   1.111  0.00  0.00    +0.156 HD
BRANCH   9  15
ATOM     14  C   UNL     1      -4.573  -1.463  -3.004  0.00  0.00    +0.024 C 
ATOM     15  C   UNL     1      -4.134  -0.216  -2.234  0.00  0.00    +0.106 C 
ENDBRANCH   9  15
BRANCH   9  16
ATOM     16  C   UNL     1      -1.901  -0.766  -1.162  0.00  0.00    +0.106 C 
ATOM     17  C   UNL     1      -1.227   0.568  -0.836  0.00  0.00    +0.024 C 
ENDBRANCH   9  16
ENDBRANCH   3  12
ENDBRANCH   1   6
BRANCH   1  18
ATOM     18  N   UNL     1      -6.580  -3.058   6.239  0.00  0.00    -0.292 N 
ATOM     19  C   UNL     1      -6.848  -3.672   7.408  0.00  0.00    +0.316 C 
ATOM     20  O   UNL     1      -6.451  -3.192   8.452  0.00  0.00    -0.251 OA
ATOM     21  N   UNL     1      -7.556  -4.819   7.420  0.00  0.00    -0.218 N 
ATOM     22  H   UNL     1      -6.897  -3.441   5.406  0.00  0.00    +0.151 HD
ATOM     23  H   UNL     1      -7.749  -5.261   8.261  0.00  0.00    +0.174 HD
BRANCH  21  24
ATOM     24  N   UNL     1      -8.014  -5.372   6.217  0.00  0.00    -0.229 N 
ATOM     25  C   UNL     1      -8.722  -6.519   6.229  0.00  0.00    +0.263 C 
ATOM     26  O   UNL     1      -8.964  -7.073   7.284  0.00  0.00    -0.269 OA
ATOM     27  H   UNL     1      -7.821  -4.930   5.375  0.00  0.00    +0.173 HD
BRANCH  25  28
ATOM     28  C   UNL     1      -9.203  -7.101   4.963  0.00  0.00    +0.076 A 
ATOM     29  C   UNL     1      -9.988  -8.333   4.793  0.00  0.00    +0.054 A 
ATOM     30  C   UNL     1     -10.191  -8.461   3.473  0.00  0.00    +0.195 A 
ATOM     31  O   UNL     1      -9.608  -7.434   2.836  0.00  0.00    -0.470 OA
ATOM     32  C   UNL     1      -9.018  -6.607   3.705  0.00  0.00    +0.208 A 
ENDBRANCH  25  28
ENDBRANCH  21  24
ENDBRANCH   1  18
TORSDOF 7
