REMARK  Name = ZINC38831941
REMARK  7 active torsions:
REMARK  status: ('A' for Active; 'I' for Inactive)
REMARK    1  A    between atoms: C_1  and  S_2
REMARK    2  A    between atoms: S_2  and  N_5
REMARK    3  A    between atoms: C_8  and  C_17
REMARK    4  A    between atoms: N_19  and  C_20
REMARK    5  A    between atoms: C_20  and  C_21
REMARK    6  A    between atoms: C_24  and  C_27
REMARK    7  A    between atoms: C_27  and  N_28
REMARK                            x       y       z     vdW  Elec       q    Type
REMARK                         _______ _______ _______ _____ _____    ______ ____
ROOT
ATOM      1  C   UNL     1       0.768  -4.276  -3.492  0.00  0.00    +0.254 C 
ATOM      2  O   UNL     1       1.038  -5.201  -2.756  0.00  0.00    -0.272 OA
ATOM      3  N   UNL     1       0.167  -4.510  -4.676  0.00  0.00    -0.308 N 
ATOM      4  H   UNL     1      -0.049  -3.769  -5.264  0.00  0.00    +0.149 HD
ENDROOT
BRANCH   1   8
ATOM      5  N   UNL     1       0.795  -0.411  -1.394  0.00  0.00    -0.204 N 
ATOM      6  C   UNL     1       0.060  -0.603  -2.652  0.00  0.00    +0.135 C 
ATOM      7  C   UNL     1      -0.188  -2.079  -2.898  0.00  0.00    +0.075 C 
ATOM      8  C   UNL     1       1.103  -2.865  -3.082  0.00  0.00    +0.260 C 
ATOM      9  O   UNL     1       1.864  -2.898  -1.877  0.00  0.00    -0.478 OA
ATOM     10  C   UNL     1       2.711  -1.846  -1.665  0.00  0.00    +0.144 A 
ATOM     11  C   UNL     1       2.187  -0.578  -1.411  0.00  0.00    +0.092 A 
ATOM     12  C   UNL     1       3.032   0.495  -1.181  0.00  0.00    +0.028 A 
ATOM     13  C   UNL     1       4.402   0.308  -1.213  0.00  0.00    +0.002 A 
ATOM     14  C   UNL     1       4.928  -0.944  -1.475  0.00  0.00    +0.004 A 
ATOM     15  C   UNL     1       4.081  -2.032  -1.701  0.00  0.00    +0.047 A 
BRANCH   5  17
ATOM     16  C   UNL     1      -0.022   1.810   0.012  0.00  0.00    +0.218 C 
ATOM     17  S   UNL     1       0.002  -0.004   0.002  0.00  0.00    +0.043 S 
ATOM     18  O   UNL     1       0.835  -0.488   1.046  0.00  0.00    -0.155 OA
ATOM     19  O   UNL     1      -1.315  -0.510  -0.168  0.00  0.00    -0.155 OA
ENDBRANCH   5  17
ENDBRANCH   1   8
BRANCH   3  20
ATOM     20  C   UNL     1      -0.158  -5.881  -5.074  0.00  0.00    +0.139 C 
BRANCH  20  21
ATOM     21  C   UNL     1      -0.818  -5.868  -6.428  0.00  0.00    -0.030 A 
ATOM     22  C   UNL     1      -2.192  -5.753  -6.527  0.00  0.00    +0.005 A 
ATOM     23  C   UNL     1      -2.798  -5.741  -7.769  0.00  0.00    +0.002 A 
ATOM     24  C   UNL     1      -2.029  -5.843  -8.914  0.00  0.00    -0.064 A 
ATOM     25  C   UNL     1      -0.655  -5.956  -8.815  0.00  0.00    +0.002 A 
ATOM     26  C   UNL     1      -0.049  -5.964  -7.573  0.00  0.00    +0.005 A 
BRANCH  24  27
ATOM     27  C   UNL     1      -2.689  -5.831 -10.268  0.00  0.00    -0.043 C 
BRANCH  27  28
ATOM     28  N   UNL     1      -2.787  -4.447 -10.753  0.00  0.00    +0.382 N 
ATOM     29  C   UNL     1      -1.435  -3.917 -11.063  0.00  0.00    -0.078 C 
ATOM     30  C   UNL     1      -1.728  -2.755 -12.046  0.00  0.00    -0.020 C 
ATOM     31  C   UNL     1      -2.900  -3.304 -12.892  0.00  0.00    -0.020 C 
ATOM     32  C   UNL     1      -3.540  -4.404 -12.025  0.00  0.00    -0.078 C 
ATOM     33  H   UNL     1      -3.240  -3.867 -10.062  0.00  0.00    -0.081 HD
ENDBRANCH  27  28
ENDBRANCH  24  27
ENDBRANCH  20  21
ENDBRANCH   3  20
TORSDOF 6
