REMARK  Name = ZINC20573601
REMARK  6 active torsions:
REMARK  status: ('A' for Active; 'I' for Inactive)
REMARK    1  A    between atoms: C_6  and  N_11
REMARK    2  A    between atoms: C_7  and  C_8
REMARK    3  A    between atoms: C_12  and  C_14
REMARK    4  A    between atoms: N_19  and  C_22
REMARK    5  A    between atoms: C_22  and  C_23
REMARK    6  A    between atoms: C_23  and  O_24
REMARK                            x       y       z     vdW  Elec       q    Type
REMARK                         _______ _______ _______ _____ _____    ______ ____
ROOT
ATOM      1  N   UNL     1      -1.114   2.282  -0.636  0.00  0.00    -0.272 N 
ATOM      2  C   UNL     1       0.026   1.645  -0.304  0.00  0.00    +0.304 C 
ATOM      3  O   UNL     1      -0.014   0.505   0.113  0.00  0.00    -0.265 OA
ATOM      4  H   UNL     1      -1.077   3.315  -1.013  0.00  0.00    +0.156 HD
ENDROOT
BRANCH   1  10
ATOM      5  C   UNL     1      -6.740  -0.157  -0.688  0.00  0.00    +0.010 C 
ATOM      6  C   UNL     1      -6.251   1.304  -0.710  0.00  0.00    +0.037 C 
ATOM      7  C   UNL     1      -4.731   1.228  -0.555  0.00  0.00    -0.023 A 
ATOM      8  C   UNL     1      -4.412   0.010  -0.080  0.00  0.00    -0.004 A 
ATOM      9  S   UNL     1      -2.641   0.031   0.063  0.00  0.00    -0.077 S 
ATOM     10  C   UNL     1      -2.331   1.637  -0.502  0.00  0.00    +0.085 A 
ATOM     11  C   UNL     1      -3.598   2.123  -0.783  0.00  0.00    +0.068 A 
ATOM     12  C   UNL     1      -5.628  -0.850   0.130  0.00  0.00    +0.043 C 
BRANCH  11  13
ATOM     13  C   UNL     1      -3.794   3.483  -1.295  0.00  0.00    +0.244 C 
ATOM     14  O   UNL     1      -3.795   3.688  -2.495  0.00  0.00    -0.270 OA
ATOM     15  N   UNL     1      -3.974   4.506  -0.436  0.00  0.00    -0.325 N 
ATOM     16  H   UNL     1      -4.121   5.527  -0.820  0.00  0.00    +0.145 HD
ATOM     17  H   UNL     1      -3.973   4.321   0.648  0.00  0.00    +0.145 HD
ENDBRANCH  11  13
ENDBRANCH   1  10
BRANCH   2  18
ATOM     18  C   UNL     1       1.340   2.338  -0.453  0.00  0.00    +0.302 C 
ATOM     19  O   UNL     1       1.375   3.513  -0.757  0.00  0.00    -0.265 OA
ATOM     20  N   UNL     1       2.487   1.660  -0.251  0.00  0.00    -0.291 N 
ATOM     21  C   UNL     1       2.477   0.203  -0.047  0.00  0.00    +0.123 C 
ATOM     22  C   UNL     1       3.488  -0.426  -1.018  0.00  0.00    +0.103 C 
ATOM     23  N   UNL     1       4.797   0.216  -0.839  0.00  0.00    -0.297 NA
ATOM     24  C   UNL     1       4.740   1.644  -1.181  0.00  0.00    +0.103 C 
ATOM     25  C   UNL     1       3.781   2.358  -0.222  0.00  0.00    +0.123 C 
BRANCH  23  26
ATOM     26  C   UNL     1       5.832  -0.472  -1.621  0.00  0.00    +0.112 C 
BRANCH  26  27
ATOM     27  C   UNL     1       7.210  -0.141  -1.045  0.00  0.00    +0.171 C 
BRANCH  27  28
ATOM     28  O   UNL     1       7.340  -0.732   0.249  0.00  0.00    -0.394 OA
ATOM     29  H   UNL     1       8.269  -0.601   0.823  0.00  0.00    +0.209 HD
ENDBRANCH  27  28
ENDBRANCH  26  27
ENDBRANCH  23  26
ENDBRANCH   2  18
TORSDOF 6
