REMARK  Name = ZINC04469561
REMARK  5 active torsions:
REMARK  status: ('A' for Active; 'I' for Inactive)
REMARK    1  A    between atoms: C_1  and  C_2
REMARK    2  A    between atoms: C_7  and  N_12
REMARK    3  A    between atoms: C_9  and  C_11
REMARK    4  A    between atoms: C_13  and  C_15
REMARK    5  A    between atoms: C_15  and  N_16
REMARK                            x       y       z     vdW  Elec       q    Type
REMARK                         _______ _______ _______ _____ _____    ______ ____
ROOT
ATOM      1  N   UNL     1      -4.239   2.649  -2.114  0.00  0.00    -0.215 N 
ATOM      2  C   UNL     1      -5.076   1.618  -2.354  0.00  0.00    +0.247 C 
ATOM      3  O   UNL     1      -4.791   0.533  -2.816  0.00  0.00    -0.273 OA
ATOM      4  C   UNL     1      -6.441   2.099  -1.923  0.00  0.00    +0.113 C 
ATOM      5  C   UNL     1      -7.430   2.053  -3.054  0.00  0.00    +0.035 C 
ATOM      6  C   UNL     1      -8.421   3.236  -3.009  0.00  0.00    +0.003 C 
ATOM      7  C   UNL     1      -8.910   3.548  -1.580  0.00  0.00    +0.000 C 
ATOM      8  C   UNL     1      -9.210   2.305  -0.788  0.00  0.00    +0.000 C 
ATOM      9  C   UNL     1      -7.960   1.936   0.036  0.00  0.00    +0.003 C 
ATOM     10  C   UNL     1      -6.960   1.234  -0.758  0.00  0.00    +0.035 C 
ATOM     11  N   UNL     1      -6.207   3.470  -1.456  0.00  0.00    -0.285 N 
ATOM     12  C   UNL     1      -4.889   3.703  -1.605  0.00  0.00    +0.310 C 
ATOM     13  O   UNL     1      -4.350   4.752  -1.311  0.00  0.00    -0.252 OA
ATOM     14  H   UNL     1      -6.871   4.087  -1.109  0.00  0.00    +0.151 HD
ENDROOT
BRANCH   1  15
ATOM     15  C   UNL     1      -2.799   2.621  -2.382  0.00  0.00    +0.213 C 
BRANCH  15  17
ATOM     16  N   UNL     1      -0.727   2.011  -1.176  0.00  0.00    -0.311 N 
ATOM     17  C   UNL     1      -2.070   2.122  -1.161  0.00  0.00    +0.231 C 
ATOM     18  O   UNL     1      -2.692   1.819  -0.165  0.00  0.00    -0.274 OA
ATOM     19  H   UNL     1      -0.230   2.253  -1.973  0.00  0.00    +0.149 HD
BRANCH  16  25
ATOM     20  C   UNL     1       3.568   2.091  -1.270  0.00  0.00    +0.008 C 
ATOM     21  C   UNL     1       2.133   1.562  -1.259  0.00  0.00    -0.009 C 
ATOM     22  C   UNL     1       2.154   0.032  -1.268  0.00  0.00    +0.003 C 
ATOM     23  C   UNL     1       0.718  -0.497  -1.257  0.00  0.00    +0.002 C 
ATOM     24  C   UNL     1       0.002  -0.004   0.002  0.00  0.00    +0.022 C 
ATOM     25  C   UNL     1      -0.019   1.526   0.010  0.00  0.00    +0.076 C 
ATOM     26  C   UNL     1       1.417   2.055  -0.000  0.00  0.00    +0.009 C 
ATOM     27  C   UNL     1       1.396   3.585   0.008  0.00  0.00    +0.009 C 
ENDBRANCH  16  25
ENDBRANCH  15  17
ENDBRANCH   1  15
TORSDOF 3
