REMARK  Name = ZINC52860374
REMARK  4 active torsions:
REMARK  status: ('A' for Active; 'I' for Inactive)
REMARK    1  A    between atoms: C_3  and  O_11
REMARK    2  A    between atoms: C_6  and  N_7
REMARK    3  A    between atoms: O_11  and  C_12
REMARK    4  A    between atoms: C_17  and  C_18
REMARK                            x       y       z     vdW  Elec       q    Type
REMARK                         _______ _______ _______ _____ _____    ______ ____
ROOT
ATOM      1  C   UNL     1       3.479   3.458  -0.244  0.00  0.00    +0.139 A 
ATOM      2  C   UNL     1       2.250   4.099  -0.220  0.00  0.00    +0.048 A 
ATOM      3  C   UNL     1       2.189   5.478  -0.193  0.00  0.00    +0.023 A 
ATOM      4  C   UNL     1       3.354   6.231  -0.189  0.00  0.00    +0.042 A 
ATOM      5  C   UNL     1       4.584   5.608  -0.213  0.00  0.00    +0.035 A 
ATOM      6  C   UNL     1       4.659   4.214  -0.235  0.00  0.00    +0.056 A 
ATOM      7 CL   UNL     1       3.262   7.964  -0.154  0.00  0.00    -0.084 Cl
ENDROOT
BRANCH   6   8
ATOM      8  C   UNL     1       5.973   3.541  -0.255  0.00  0.00    +0.098 C 
ATOM      9  N   UNL     1       6.853   3.826  -1.213  0.00  0.00    -0.387 N 
ATOM     10  N   UNL     1       6.278   2.648   0.687  0.00  0.00    -0.344 N 
ATOM     11  H   UNL     1       7.743   3.440  -1.186  0.00  0.00    +0.157 HD
ATOM     12  H   UNL     1       5.638   2.441   1.385  0.00  0.00    +0.144 HD
ATOM     13  H   UNL     1       7.142   2.206   0.674  0.00  0.00    +0.144 HD
ATOM     14  H   UNL     1       6.605   4.420  -1.939  0.00  0.00    +0.157 HD
ENDBRANCH   6   8
BRANCH   1  15
ATOM     15  O   UNL     1       3.540   2.102  -0.272  0.00  0.00    -0.452 OA
BRANCH  15  18
ATOM     16  C   UNL     1       0.583   0.173   0.607  0.00  0.00    +0.036 A 
ATOM     17  C   UNL     1       1.768   0.872   0.732  0.00  0.00    +0.051 A 
ATOM     18  C   UNL     1       2.374   1.414  -0.392  0.00  0.00    +0.164 A 
ATOM     19  C   UNL     1       1.787   1.252  -1.641  0.00  0.00    +0.168 A 
ATOM     20  C   UNL     1       0.601   0.551  -1.759  0.00  0.00    +0.074 A 
ATOM     21  C   UNL     1      -0.000   0.013  -0.636  0.00  0.00    +0.129 A 
ATOM     22  F   UNL     1       2.374   1.778  -2.738  0.00  0.00    -0.202 F 
BRANCH  21  23
ATOM     23  N   UNL     1      -1.270  -0.737  -0.765  0.00  0.00    +0.057 N 
ATOM     24  O   UNL     1      -1.796  -1.208   0.216  0.00  0.00    -0.126 OA
ATOM     25  O   UNL     1      -1.781  -0.878  -1.852  0.00  0.00    -0.126 OA
ENDBRANCH  21  23
ENDBRANCH  15  18
ENDBRANCH   1  15
TORSDOF 4
