REMARK  Name = ZINC45893996
REMARK  5 active torsions:
REMARK  status: ('A' for Active; 'I' for Inactive)
REMARK    1  A    between atoms: N_9  and  C_13
REMARK    2  A    between atoms: C_13  and  C_14
REMARK    3  A    between atoms: C_14  and  C_15
REMARK    4  A    between atoms: N_17  and  C_18
REMARK    5  A    between atoms: C_24  and  C_26
REMARK                            x       y       z     vdW  Elec       q    Type
REMARK                         _______ _______ _______ _____ _____    ______ ____
ROOT
ATOM      1  C   UNL     1       6.050  -0.891  -3.195  0.00  0.00    +0.115 C 
ENDROOT
BRANCH   1   2
ATOM      2  C   UNL     1       7.062  -1.587  -4.068  0.00  0.00    +0.215 C 
ATOM      3  O   UNL     1       6.875  -2.733  -4.418  0.00  0.00    -0.276 OA
ATOM      4  N   UNL     1       8.175  -0.936  -4.460  0.00  0.00    -0.312 N 
ATOM      5  H   UNL     1       8.324  -0.019  -4.181  0.00  0.00    +0.149 HD
BRANCH   4   6
ATOM      6  C   UNL     1       9.159  -1.613  -5.309  0.00  0.00    +0.076 C 
ATOM      7  C   UNL     1      10.117  -2.423  -4.433  0.00  0.00    +0.041 C 
ATOM      8  C   UNL     1      11.122  -3.156  -5.325  0.00  0.00    +0.109 C 
ATOM      9  N   UNL     1      11.784  -2.176  -6.196  0.00  0.00    -0.301 N 
ATOM     10  C   UNL     1      10.953  -1.283  -7.015  0.00  0.00    +0.109 C 
ATOM     11  C   UNL     1       9.949  -0.571  -6.103  0.00  0.00    +0.041 C 
ATOM     12  C   UNL     1      13.129  -2.096  -6.243  0.00  0.00    +0.219 C 
ATOM     13  O   UNL     1      13.804  -2.839  -5.562  0.00  0.00    -0.275 OA
BRANCH  12  14
ATOM     14  C   UNL     1      13.793  -1.085  -7.142  0.00  0.00    +0.075 C 
ATOM     15  C   UNL     1      14.566  -1.615  -8.351  0.00  0.00    +0.013 C 
ATOM     16  C   UNL     1      15.323  -1.045  -7.150  0.00  0.00    +0.013 C 
ENDBRANCH  12  14
ENDBRANCH   4   6
ENDBRANCH   1   2
BRANCH   1  17
ATOM     17  C   UNL     1       4.891  -1.845  -2.897  0.00  0.00    +0.127 C 
BRANCH  17  26
ATOM     18  C   UNL     1      -0.019   1.526   0.010  0.00  0.00    +0.000 C 
ATOM     19  C   UNL     1       1.416   2.058  -0.000  0.00  0.00    +0.003 C 
ATOM     20  C   UNL     1       2.129   1.573  -1.265  0.00  0.00    +0.035 C 
ATOM     21  C   UNL     1       2.134   0.048  -1.295  0.00  0.00    +0.113 C 
ATOM     22  C   UNL     1       0.710  -0.496  -1.263  0.00  0.00    +0.035 C 
ATOM     23  C   UNL     1       0.002  -0.004   0.002  0.00  0.00    +0.003 C 
ATOM     24  C   UNL     1       2.864  -0.454  -2.519  0.00  0.00    +0.247 C 
ATOM     25  O   UNL     1       2.574  -0.256  -3.679  0.00  0.00    -0.273 OA
ATOM     26  N   UNL     1       3.907  -1.169  -2.049  0.00  0.00    -0.224 N 
ATOM     27  C   UNL     1       3.931  -1.183  -0.710  0.00  0.00    +0.309 C 
ATOM     28  O   UNL     1       4.776  -1.762  -0.056  0.00  0.00    -0.252 OA
ATOM     29  N   UNL     1       2.914  -0.485  -0.171  0.00  0.00    -0.285 N 
ATOM     30  H   UNL     1       2.732  -0.359   0.774  0.00  0.00    +0.151 HD
ENDBRANCH  17  26
ENDBRANCH   1  17
TORSDOF 5
