REMARK  Name = ZINC36370622
REMARK  8 active torsions:
REMARK  status: ('A' for Active; 'I' for Inactive)
REMARK    1  A    between atoms: C_1  and  C_2
REMARK    2  A    between atoms: C_2  and  C_4
REMARK    3  A    between atoms: C_2  and  O_33
REMARK    4  A    between atoms: C_10  and  C_32
REMARK    5  A    between atoms: C_21  and  C_31
REMARK    6  A    between atoms: C_24  and  O_27
REMARK    7  A    between atoms: O_27  and  C_28
REMARK    8  A    between atoms: C_28  and  C_30
REMARK                            x       y       z     vdW  Elec       q    Type
REMARK                         _______ _______ _______ _____ _____    ______ ____
ROOT
ATOM      1  C   UNL     1       0.391  -0.544   1.318  0.00  0.00    +0.024 C 
ATOM      2  C   UNL     1       1.782   0.147   1.331  0.00  0.00    +0.007 C 
ATOM      3  C   UNL     1       2.828  -0.963   1.022  0.00  0.00    +0.005 C 
ATOM      4  C   UNL     1       1.957  -2.063   0.391  0.00  0.00    -0.001 C 
ATOM      5  C   UNL     1       0.732  -2.047   1.329  0.00  0.00    -0.024 C 
ATOM      6  C   UNL     1      -0.330  -2.992   0.846  0.00  0.00    +0.007 C 
ATOM      7  C   UNL     1       0.245  -4.370   0.489  0.00  0.00    +0.005 C 
ATOM      8  C   UNL     1       1.710  -4.521   0.850  0.00  0.00    -0.001 C 
ATOM      9  C   UNL     1       2.572  -3.420   0.239  0.00  0.00    -0.004 C 
ATOM     10  C   UNL     1       3.983  -3.513   0.819  0.00  0.00    +0.004 C 
ATOM     11  C   UNL     1       4.575  -4.879   0.449  0.00  0.00    +0.004 C 
ATOM     12  C   UNL     1       3.563  -5.683  -0.359  0.00  0.00    -0.001 C 
ATOM     13  C   UNL     1       2.263  -5.885   0.414  0.00  0.00    -0.026 C 
ATOM     14  C   UNL     1       1.256  -6.611  -0.475  0.00  0.00    +0.011 C 
ATOM     15  C   UNL     1       1.819  -7.958  -0.927  0.00  0.00    +0.045 C 
ATOM     16  C   UNL     1       3.147  -7.772  -1.657  0.00  0.00    +0.177 C 
ATOM     17  C   UNL     1       4.149  -7.035  -0.767  0.00  0.00    +0.048 C 
ATOM     18  C   UNL     1       2.513  -6.711   1.681  0.00  0.00    +0.012 C 
ATOM     19  C   UNL     1       1.110  -2.365   2.784  0.00  0.00    +0.012 C 
ENDROOT
BRANCH   1  21
ATOM     20  C   UNL     1      -0.824   1.321   0.198  0.00  0.00    +0.038 C 
ATOM     21  C   UNL     1      -0.387  -0.140   0.073  0.00  0.00    +0.115 C 
BRANCH  21  22
ATOM     22  O   UNL     1       0.444  -0.292  -1.079  0.00  0.00    -0.392 OA
ATOM     23  H   UNL     1       0.012  -0.051  -1.910  0.00  0.00    +0.210 HD
ENDBRANCH  21  22
ENDBRANCH   1  21
BRANCH  16  24
ATOM     24  O   UNL     1       3.679  -9.053  -2.006  0.00  0.00    -0.462 OA
BRANCH  24  25
ATOM     25  C   UNL     1       3.325  -9.556  -3.199  0.00  0.00    +0.304 C 
ATOM     26  O   UNL     1       2.588  -8.931  -3.924  0.00  0.00    -0.251 OA
ATOM     27  C   UNL     1       3.847 -10.901  -3.635  0.00  0.00    +0.136 C 
ENDBRANCH  24  25
ENDBRANCH  16  24
TORSDOF 4
