REMARK  Name = ZINC08901395
REMARK  9 active torsions:
REMARK  status: ('A' for Active; 'I' for Inactive)
REMARK    1  A    between atoms: C_1  and  C_2
REMARK    2  A    between atoms: C_2  and  C_3
REMARK    3  A    between atoms: C_2  and  C_4
REMARK    4  A    between atoms: C_2  and  C_5
REMARK    5  A    between atoms: C_12  and  N_17
REMARK    6  A    between atoms: C_13  and  C_14
REMARK    7  A    between atoms: C_18  and  C_20
REMARK    8  A    between atoms: C_21  and  C_22
REMARK    9  A    between atoms: C_25  and  C_27
REMARK                            x       y       z     vdW  Elec       q    Type
REMARK                         _______ _______ _______ _____ _____    ______ ____
ROOT
ATOM      1  C   UNL     1      -9.085  -1.563   0.420  0.00  0.00    -0.000 C 
ATOM      2  C   UNL     1      -9.460  -0.331  -0.409  0.00  0.00    +0.009 C 
ATOM      3  C   UNL     1      -8.636   0.874   0.048  0.00  0.00    +0.037 C 
ATOM      4  C   UNL     1      -7.161   0.492   0.039  0.00  0.00    -0.023 A 
ATOM      5  C   UNL     1      -6.778  -0.803   0.031  0.00  0.00    -0.004 A 
ATOM      6  S   UNL     1      -5.009  -0.752   0.022  0.00  0.00    -0.077 S 
ATOM      7  C   UNL     1      -4.778   0.965   0.030  0.00  0.00    +0.085 A 
ATOM      8  C   UNL     1      -6.076   1.458   0.044  0.00  0.00    +0.068 A 
ATOM      9  C   UNL     1      -7.668  -2.008   0.031  0.00  0.00    +0.046 C 
ENDROOT
BRANCH   8  10
ATOM     10  C   UNL     1      -6.342   2.900   0.061  0.00  0.00    +0.244 C 
ATOM     11  O   UNL     1      -6.460   3.509  -0.986  0.00  0.00    -0.270 OA
ATOM     12  N   UNL     1      -6.455   3.551   1.235  0.00  0.00    -0.325 N 
ATOM     13  H   UNL     1      -6.360   3.066   2.070  0.00  0.00    +0.145 HD
ATOM     14  H   UNL     1      -6.630   4.505   1.246  0.00  0.00    +0.145 HD
ENDBRANCH   8  10
BRANCH   1  16
ATOM     15  C   UNL     1     -10.028  -3.049  -1.354  0.00  0.00    +0.011 C 
ATOM     16  C   UNL     1     -10.075  -2.695   0.134  0.00  0.00    -0.035 C 
ATOM     17  C   UNL     1      -9.698  -3.924   0.963  0.00  0.00    +0.011 C 
ATOM     18  C   UNL     1     -11.488  -2.242   0.506  0.00  0.00    +0.011 C 
ENDBRANCH   1  16
BRANCH   7  19
ATOM     19  N   UNL     1      -3.589   1.674   0.028  0.00  0.00    -0.276 N 
ATOM     20  C   UNL     1      -2.413   1.016   0.019  0.00  0.00    +0.242 C 
ATOM     21  O   UNL     1      -2.396  -0.202   0.012  0.00  0.00    -0.270 OA
ATOM     22  H   UNL     1      -3.602   2.643   0.034  0.00  0.00    +0.156 HD
BRANCH  20  23
ATOM     23  C   UNL     1      -1.198   1.739   0.017  0.00  0.00    +0.071 C 
ATOM     24  C   UNL     1      -0.013   1.076   0.008  0.00  0.00    +0.051 C 
BRANCH  24  25
ATOM     25  C   UNL     1       1.202   1.799   0.000  0.00  0.00    +0.129 A 
ATOM     26  C   UNL     1       2.471   1.251  -0.009  0.00  0.00    +0.050 A 
ATOM     27  C   UNL     1       3.372   2.319  -0.017  0.00  0.00    +0.050 A 
ATOM     28  C   UNL     1       2.625   3.475  -0.004  0.00  0.00    +0.136 A 
ATOM     29  O   UNL     1       1.322   3.143   0.007  0.00  0.00    -0.455 OA
BRANCH  28  30
ATOM     30  C   UNL     1       3.164   4.849  -0.000  0.00  0.00    +0.017 A 
ATOM     31  C   UNL     1       4.545   5.061  -0.006  0.00  0.00    +0.013 A 
ATOM     32  C   UNL     1       5.042   6.348  -0.007  0.00  0.00    +0.021 A 
ATOM     33  C   UNL     1       4.175   7.428   0.007  0.00  0.00    +0.041 A 
ATOM     34  C   UNL     1       2.805   7.225   0.017  0.00  0.00    +0.021 A 
ATOM     35  C   UNL     1       2.295   5.944   0.014  0.00  0.00    +0.013 A 
ATOM     36 CL   UNL     1       4.809   9.044   0.013  0.00  0.00    -0.084 Cl
ENDBRANCH  28  30
ENDBRANCH  24  25
ENDBRANCH  20  23
ENDBRANCH   7  19
TORSDOF 6
