REMARK  Name = ZINC09596647
REMARK  8 active torsions:
REMARK  status: ('A' for Active; 'I' for Inactive)
REMARK    1  A    between atoms: C_1  and  C_2
REMARK    2  A    between atoms: C_2  and  O_3
REMARK    3  A    between atoms: O_3  and  C_4
REMARK    4  A    between atoms: C_9  and  C_10
REMARK    5  A    between atoms: C_10  and  N_11
REMARK    6  A    between atoms: C_12  and  C_14
REMARK    7  A    between atoms: C_14  and  N_15
REMARK    8  A    between atoms: C_28  and  C_31
REMARK                            x       y       z     vdW  Elec       q    Type
REMARK                         _______ _______ _______ _____ _____    ______ ____
ROOT
ATOM      1  N   UNL     1      -2.756   3.139   1.700  0.00  0.00    -0.310 N 
ATOM      2  C   UNL     1      -1.651   2.411   1.444  0.00  0.00    +0.231 C 
ATOM      3  O   UNL     1      -0.988   1.972   2.360  0.00  0.00    -0.274 OA
ATOM      4  H   UNL     1      -3.285   3.490   0.967  0.00  0.00    +0.149 HD
ENDROOT
BRANCH   1   5
ATOM      5  C   UNL     1      -3.156   3.401   3.084  0.00  0.00    +0.143 C 
BRANCH   5  11
ATOM      6  C   UNL     1      -5.644   3.623   2.889  0.00  0.00    +0.126 A 
ATOM      7  C   UNL     1      -6.799   4.393   2.896  0.00  0.00    +0.053 A 
ATOM      8  C   UNL     1      -6.720   5.751   3.109  0.00  0.00    +0.001 A 
ATOM      9  C   UNL     1      -5.493   6.367   3.322  0.00  0.00    +0.125 A 
ATOM     10  C   UNL     1      -4.338   5.591   3.315  0.00  0.00    +0.054 A 
ATOM     11  C   UNL     1      -4.414   4.231   3.095  0.00  0.00    +0.015 A 
ATOM     12  O   UNL     1      -5.643   7.706   3.524  0.00  0.00    -0.488 OA
ATOM     13  C   UNL     1      -6.926   8.120   3.025  0.00  0.00    +0.175 C 
ATOM     14  C   UNL     1      -7.778   6.836   3.162  0.00  0.00    +0.083 C 
ATOM     15  C   UNL     1      -6.825   8.549   1.560  0.00  0.00    +0.052 C 
BRANCH   6  16
ATOM     16  O   UNL     1      -5.717   2.282   2.681  0.00  0.00    -0.492 OA
BRANCH  16  18
ATOM     17  C   UNL     1      -6.900   0.217   2.261  0.00  0.00    +0.048 C 
ATOM     18  C   UNL     1      -7.018   1.727   2.477  0.00  0.00    +0.225 C 
ENDBRANCH  16  18
ENDBRANCH   6  16
ENDBRANCH   5  11
ENDBRANCH   1   5
BRANCH   2  19
ATOM     19  C   UNL     1      -1.239   2.141   0.020  0.00  0.00    +0.213 C 
BRANCH  19  20
ATOM     20  N   UNL     1      -0.016   1.334   0.009  0.00  0.00    -0.215 N 
ATOM     21  C   UNL     1       1.231   1.848   0.000  0.00  0.00    +0.247 C 
ATOM     22  O   UNL     1       1.542   3.020   0.004  0.00  0.00    -0.273 OA
ATOM     23  C   UNL     1       2.159   0.655  -0.015  0.00  0.00    +0.113 C 
ATOM     24  C   UNL     1       3.014   0.661  -1.278  0.00  0.00    +0.035 C 
ATOM     25  C   UNL     1       3.920  -0.573  -1.288  0.00  0.00    +0.003 C 
ATOM     26  C   UNL     1       4.813  -0.559  -0.047  0.00  0.00    +0.000 C 
ATOM     27  C   UNL     1       3.943  -0.586   1.212  0.00  0.00    +0.003 C 
ATOM     28  C   UNL     1       3.038   0.648   1.231  0.00  0.00    +0.035 C 
ATOM     29  N   UNL     1       1.254  -0.501  -0.013  0.00  0.00    -0.285 N 
ATOM     30  C   UNL     1       0.002  -0.004   0.002  0.00  0.00    +0.310 C 
ATOM     31  O   UNL     1      -0.999  -0.694   0.008  0.00  0.00    -0.252 OA
ATOM     32  H   UNL     1       1.507  -1.437  -0.020  0.00  0.00    +0.151 HD
ENDBRANCH  19  20
ENDBRANCH   2  19
TORSDOF 6
