REMARK  Name = ZINC11214836
REMARK  8 active torsions:
REMARK  status: ('A' for Active; 'I' for Inactive)
REMARK    1  A    between atoms: C_1  and  C_2
REMARK    2  A    between atoms: C_7  and  O_25
REMARK    3  A    between atoms: C_8  and  C_12
REMARK    4  A    between atoms: C_14  and  C_21
REMARK    5  A    between atoms: C_15  and  C_20
REMARK    6  A    between atoms: C_21  and  O_23
REMARK    7  A    between atoms: O_23  and  C_24
REMARK    8  A    between atoms: O_25  and  C_26
REMARK                            x       y       z     vdW  Elec       q    Type
REMARK                         _______ _______ _______ _____ _____    ______ ____
ROOT
ATOM      1  C   UNL     1      -0.133   4.448   0.169  0.00  0.00    +0.145 C 
ATOM      2  C   UNL     1      -0.449   4.442   1.651  0.00  0.00    +0.078 C 
ATOM      3  C   UNL     1      -1.518   3.725   2.062  0.00  0.00    +0.019 C 
ATOM      4  N   UNL     1      -2.286   3.031   1.173  0.00  0.00    -0.300 N 
ATOM      5  C   UNL     1      -2.052   3.002  -0.145  0.00  0.00    +0.135 C 
ATOM      6  S   UNL     1      -3.094   2.090  -1.151  0.00  0.00    -0.019 S 
ATOM      7  N   UNL     1      -1.022   3.667  -0.706  0.00  0.00    -0.315 N 
ATOM      8  C   UNL     1      -1.869   3.691   3.528  0.00  0.00    +0.061 C 
ATOM      9  H   UNL     1      -3.043   2.531   1.514  0.00  0.00    +0.154 HD
ATOM     10  H   UNL     1      -0.872   3.632  -1.664  0.00  0.00    +0.149 HD
ENDROOT
BRANCH   1  17
ATOM     11  C   UNL     1       6.333   4.527   0.933  0.00  0.00    +0.052 C 
ATOM     12  C   UNL     1       5.868   4.201  -0.488  0.00  0.00    +0.175 C 
ATOM     13  C   UNL     1       5.322   2.756  -0.568  0.00  0.00    +0.083 C 
ATOM     14  C   UNL     1       3.839   2.967  -0.334  0.00  0.00    +0.001 A 
ATOM     15  C   UNL     1       2.823   2.098  -0.002  0.00  0.00    +0.053 A 
ATOM     16  C   UNL     1       1.530   2.575   0.165  0.00  0.00    +0.126 A 
ATOM     17  C   UNL     1       1.270   3.926  -0.008  0.00  0.00    +0.023 A 
ATOM     18  C   UNL     1       2.289   4.795  -0.337  0.00  0.00    +0.055 A 
ATOM     19  C   UNL     1       3.588   4.321  -0.510  0.00  0.00    +0.125 A 
ATOM     20  O   UNL     1       4.723   4.994  -0.847  0.00  0.00    -0.488 OA
BRANCH  16  21
ATOM     21  O   UNL     1       0.524   1.720   0.491  0.00  0.00    -0.495 OA
ATOM     22  C   UNL     1       0.881   0.358   0.732  0.00  0.00    +0.277 C 
ENDBRANCH  16  21
ENDBRANCH   1  17
BRANCH   2  23
ATOM     23  C   UNL     1       0.347   5.161   2.572  0.00  0.00    +0.338 C 
ATOM     24  O   UNL     1       0.005   5.244   3.737  0.00  0.00    -0.245 OA
BRANCH  23  25
ATOM     25  O   UNL     1       1.486   5.755   2.159  0.00  0.00    -0.465 OA
ATOM     26  C   UNL     1       2.300   6.366   3.163  0.00  0.00    +0.280 C 
ENDBRANCH  23  25
ENDBRANCH   2  23
TORSDOF 4
