REMARK  Name = ZINC46649847
REMARK  7 active torsions:
REMARK  status: ('A' for Active; 'I' for Inactive)
REMARK    1  A    between atoms: C_1  and  C_2
REMARK    2  A    between atoms: C_10  and  C_11
REMARK    3  A    between atoms: C_11  and  C_13
REMARK    4  A    between atoms: C_11  and  N_14
REMARK    5  A    between atoms: C_15  and  C_17
REMARK    6  A    between atoms: C_17  and  N_18
REMARK    7  A    between atoms: C_26  and  C_28
REMARK                            x       y       z     vdW  Elec       q    Type
REMARK                         _______ _______ _______ _____ _____    ______ ____
ROOT
ATOM      1  N   UNL     1      -0.928  -1.145   3.277  0.00  0.00    -0.304 N 
ATOM      2  C   UNL     1      -1.473  -0.636   4.399  0.00  0.00    +0.232 C 
ATOM      3  O   UNL     1      -1.170   0.478   4.769  0.00  0.00    -0.274 OA
ATOM      4  H   UNL     1      -1.171  -2.037   2.981  0.00  0.00    +0.149 HD
ENDROOT
BRANCH   1   5
ATOM      5  C   UNL     1       0.030  -0.352   2.503  0.00  0.00    +0.136 C 
ATOM      6  C   UNL     1       1.432  -0.532   3.090  0.00  0.00    +0.036 C 
BRANCH   5  16
ATOM      7  C   UNL     1      -0.018   1.503   0.010  0.00  0.00    +0.048 C 
ATOM      8  C   UNL     1       0.002  -0.004   0.002  0.00  0.00    +0.000 A 
ATOM      9  C   UNL     1       0.009  -0.879  -1.177  0.00  0.00    +0.023 A 
ATOM     10  C   UNL     1       0.000  -0.660  -2.553  0.00  0.00    +0.012 A 
ATOM     11  C   UNL     1       0.011  -1.726  -3.409  0.00  0.00    +0.001 A 
ATOM     12  C   UNL     1       0.031  -3.023  -2.916  0.00  0.00    +0.004 A 
ATOM     13  C   UNL     1       0.040  -3.259  -1.558  0.00  0.00    +0.047 A 
ATOM     14  C   UNL     1       0.029  -2.190  -0.671  0.00  0.00    +0.136 A 
ATOM     15  O   UNL     1       0.033  -2.100   0.674  0.00  0.00    -0.458 OA
ATOM     16  C   UNL     1       0.023  -0.814   1.069  0.00  0.00    +0.129 A 
ENDBRANCH   5  16
ENDBRANCH   1   5
BRANCH   2  17
ATOM     17  C   UNL     1      -2.459  -1.452   5.195  0.00  0.00    +0.213 C 
BRANCH  17  18
ATOM     18  N   UNL     1      -2.902  -0.682   6.360  0.00  0.00    -0.215 N 
ATOM     19  C   UNL     1      -2.290  -0.707   7.562  0.00  0.00    +0.247 C 
ATOM     20  O   UNL     1      -1.308  -1.346   7.873  0.00  0.00    -0.273 OA
ATOM     21  C   UNL     1      -3.088   0.229   8.441  0.00  0.00    +0.115 C 
ATOM     22  C   UNL     1      -2.214   1.383   8.919  0.00  0.00    +0.035 C 
ATOM     23  C   UNL     1      -1.087   0.839   9.800  0.00  0.00    +0.003 C 
ATOM     24  C   UNL     1      -1.689   0.102  10.999  0.00  0.00    +0.000 C 
ATOM     25  C   UNL     1      -2.546  -1.064  10.505  0.00  0.00    +0.006 C 
ATOM     26  C   UNL     1      -3.679  -0.527   9.625  0.00  0.00    +0.018 C 
ATOM     27  C   UNL     1      -4.525  -1.695   9.114  0.00  0.00    +0.010 C 
ATOM     28  N   UNL     1      -4.155   0.722   7.560  0.00  0.00    -0.285 N 
ATOM     29  C   UNL     1      -3.961   0.137   6.363  0.00  0.00    +0.310 C 
ATOM     30  O   UNL     1      -4.669   0.329   5.394  0.00  0.00    -0.252 OA
ATOM     31  H   UNL     1      -4.859   1.348   7.794  0.00  0.00    +0.151 HD
ENDBRANCH  17  18
ENDBRANCH   2  17
TORSDOF 4
