REMARK  Name = ZINC00548390
REMARK  10 active torsions:
REMARK  status: ('A' for Active; 'I' for Inactive)
REMARK    1  A    between atoms: C_1  and  C_2
REMARK    2  A    between atoms: C_2  and  C_3
REMARK    3  A    between atoms: C_2  and  C_4
REMARK    4  A    between atoms: C_2  and  C_5
REMARK    5  A    between atoms: C_6  and  C_23
REMARK    6  A    between atoms: C_7  and  C_15
REMARK    7  A    between atoms: C_9  and  C_13
REMARK    8  A    between atoms: C_10  and  N_12
REMARK    9  A    between atoms: C_20  and  O_21
REMARK   10  A    between atoms: O_21  and  C_22
REMARK                            x       y       z     vdW  Elec       q    Type
REMARK                         _______ _______ _______ _____ _____    ______ ____
ROOT
ATOM      1  C   UNL     1       2.029   6.592  -1.015  0.00  0.00    +0.127 C 
ATOM      2  C   UNL     1       0.786   6.133  -0.834  0.00  0.00    +0.080 C 
ATOM      3  C   UNL     1       0.257   5.841   0.543  0.00  0.00    +0.112 C 
ATOM      4  C   UNL     1       1.130   6.498   1.577  0.00  0.00    +0.099 C 
ATOM      5  C   UNL     1       2.368   6.944   1.261  0.00  0.00    +0.198 C 
ATOM      6  O   UNL     1       2.862   6.815   0.016  0.00  0.00    -0.444 OA
ENDROOT
BRANCH   3   7
ATOM      7  C   UNL     1       0.246   4.352   0.771  0.00  0.00    +0.008 A 
ATOM      8  C   UNL     1       1.426   3.635   0.711  0.00  0.00    +0.008 A 
ATOM      9  C   UNL     1       1.418   2.269   0.920  0.00  0.00    +0.001 A 
ATOM     10  C   UNL     1       0.229   1.615   1.188  0.00  0.00    +0.004 A 
ATOM     11  C   UNL     1      -0.954   2.326   1.243  0.00  0.00    +0.046 A 
ATOM     12  C   UNL     1      -0.947   3.699   1.039  0.00  0.00    +0.124 A 
BRANCH  12  13
ATOM     13  O   UNL     1      -2.109   4.401   1.099  0.00  0.00    -0.495 OA
ATOM     14  C   UNL     1      -3.300   3.663   1.380  0.00  0.00    +0.277 C 
ENDBRANCH  12  13
ENDBRANCH   3   7
BRANCH   1  16
ATOM     15  C   UNL     1       1.601   7.910  -3.071  0.00  0.00    +0.019 C 
ATOM     16  C   UNL     1       2.510   6.867  -2.417  0.00  0.00    +0.021 C 
ATOM     17  C   UNL     1       3.944   7.398  -2.369  0.00  0.00    +0.019 C 
ATOM     18  C   UNL     1       2.471   5.574  -3.232  0.00  0.00    +0.019 C 
ENDBRANCH   1  16
BRANCH   5  19
ATOM     19  N   UNL     1       3.138   7.538   2.230  0.00  0.00    -0.328 N 
ATOM     20  H   UNL     1       4.027   7.860   2.014  0.00  0.00    +0.145 HD
ATOM     21  H   UNL     1       2.792   7.636   3.131  0.00  0.00    +0.145 HD
ENDBRANCH   5  19
BRANCH   4  22
ATOM     22  C   UNL     1       0.646   6.657   2.916  0.00  0.00    +0.101 C 
ATOM     23  N   UNL     1       0.261   6.782   3.977  0.00  0.00    -0.191 NA
ENDBRANCH   4  22
BRANCH   2  24
ATOM     24  C   UNL     1      -0.055   5.914  -1.972  0.00  0.00    +0.099 C 
ATOM     25  N   UNL     1      -0.723   5.740  -2.874  0.00  0.00    -0.191 NA
ENDBRANCH   2  24
TORSDOF 6
