REMARK  Name = ZINC39737885
REMARK  7 active torsions:
REMARK  status: ('A' for Active; 'I' for Inactive)
REMARK    1  A    between atoms: C_1  and  C_2
REMARK    2  A    between atoms: C_3  and  C_26
REMARK    3  A    between atoms: C_11  and  C_13
REMARK    4  A    between atoms: C_13  and  C_15
REMARK    5  A    between atoms: C_13  and  S_16
REMARK    6  A    between atoms: S_16  and  C_17
REMARK    7  A    between atoms: N_22  and  C_23
REMARK                            x       y       z     vdW  Elec       q    Type
REMARK                         _______ _______ _______ _____ _____    ______ ____
ROOT
ATOM      1  C   UNL     1      -0.018   1.503   0.010  0.00  0.00    +0.045 C 
ATOM      2  C   UNL     1       0.002  -0.004   0.002  0.00  0.00    -0.026 A 
ATOM      3  C   UNL     1       0.006  -0.677  -1.160  0.00  0.00    -0.008 A 
ATOM      4  S   UNL     1       0.032  -2.385  -0.648  0.00  0.00    -0.073 S 
ATOM      5  C   UNL     1       0.037  -2.144   1.110  0.00  0.00    +0.116 A 
ATOM      6  C   UNL     1       0.024  -0.745   1.250  0.00  0.00    +0.075 A 
ATOM      7  C   UNL     1       0.029  -0.257   2.597  0.00  0.00    +0.260 A 
ATOM      8  O   UNL     1       0.014   0.942   2.821  0.00  0.00    -0.267 OA
ATOM      9  N   UNL     1       0.051  -1.142   3.611  0.00  0.00    -0.309 N 
ATOM     10  H   UNL     1       0.054  -0.817   4.525  0.00  0.00    +0.170 HD
ATOM     11  C   UNL     1       0.067  -2.480   3.380  0.00  0.00    +0.124 A 
ATOM     12  N   UNL     1       0.053  -2.956   2.163  0.00  0.00    -0.225 NA
ATOM     13  C   UNL     1      -0.009  -0.122  -2.561  0.00  0.00    +0.052 C 
ENDROOT
BRANCH  11  14
ATOM     14  C   UNL     1       0.090  -3.432   4.547  0.00  0.00    +0.113 C 
ATOM     15  C   UNL     1      -1.088  -3.129   5.476  0.00  0.00    +0.027 C 
BRANCH  14  16
ATOM     16  S   UNL     1      -0.041  -5.136   3.940  0.00  0.00    -0.107 S 
BRANCH  16  17
ATOM     17  C   UNL     1       0.153  -6.150   5.432  0.00  0.00    +0.237 C 
ATOM     18  N   UNL     1      -0.853  -5.781   6.443  0.00  0.00    -0.238 N 
ATOM     19  N   UNL     1      -0.135  -5.327   7.557  0.00  0.00    -0.177 NA
ATOM     20  C   UNL     1       1.131  -5.373   7.354  0.00  0.00    +0.206 C 
ATOM     21  N   UNL     1       1.439  -5.861   6.090  0.00  0.00    -0.289 N 
ATOM     22  H   UNL     1      -1.817  -5.840   6.356  0.00  0.00    +0.171 HD
BRANCH  21  23
ATOM     23  C   UNL     1       2.776  -6.050   5.522  0.00  0.00    +0.077 C 
ATOM     24  C   UNL     1       3.973  -5.873   6.458  0.00  0.00    +0.024 C 
ATOM     25  C   UNL     1       3.671  -4.816   5.394  0.00  0.00    +0.024 C 
ENDBRANCH  21  23
ENDBRANCH  16  17
ENDBRANCH  14  16
ENDBRANCH  11  14
TORSDOF 4
