REMARK  Name = ZINC39545652
REMARK  6 active torsions:
REMARK  status: ('A' for Active; 'I' for Inactive)
REMARK    1  A    between atoms: C_4  and  O_7
REMARK    2  A    between atoms: O_7  and  S_8
REMARK    3  A    between atoms: S_8  and  N_11
REMARK    4  A    between atoms: N_11  and  C_12
REMARK    5  A    between atoms: C_17  and  O_18
REMARK    6  A    between atoms: C_19  and  C_21
REMARK                            x       y       z     vdW  Elec       q    Type
REMARK                         _______ _______ _______ _____ _____    ______ ____
ROOT
ATOM      1  N   UNL     1       3.414  -2.128   2.010  0.00  0.00    -0.106 N 
ATOM      2  C   UNL     1       2.266  -1.944   2.692  0.00  0.00    +0.261 C 
ATOM      3  O   UNL     1       1.669  -2.898   3.144  0.00  0.00    -0.272 OA
ENDROOT
BRANCH   2   4
ATOM      4  C   UNL     1       1.725  -0.551   2.894  0.00  0.00    +0.151 C 
ATOM      5  C   UNL     1       0.217  -0.598   3.204  0.00  0.00    +0.081 C 
ATOM      6  C   UNL     1       0.109  -0.018   4.597  0.00  0.00    +0.055 C 
ATOM      7  C   UNL     1       1.301   0.314   5.023  0.00  0.00    +0.090 C 
ATOM      8  N   UNL     1       1.608   0.852   6.289  0.00  0.00    -0.303 N 
ATOM      9  C   UNL     1       2.824   0.410   6.839  0.00  0.00    +0.037 A 
ATOM     10  C   UNL     1       3.174   0.784   8.129  0.00  0.00    +0.023 A 
ATOM     11  C   UNL     1       4.373   0.358   8.666  0.00  0.00    +0.002 A 
ATOM     12  C   UNL     1       5.218  -0.438   7.915  0.00  0.00    +0.000 A 
ATOM     13  C   UNL     1       4.868  -0.815   6.633  0.00  0.00    +0.007 A 
ATOM     14  C   UNL     1       3.665  -0.397   6.087  0.00  0.00    -0.010 A 
ATOM     15  C   UNL     1       3.300  -0.844   4.696  0.00  0.00    +0.124 C 
ATOM     16  N   UNL     1       2.321   0.065   4.090  0.00  0.00    -0.369 NA
ATOM     17 CL   UNL     1      -1.366   0.176   5.490  0.00  0.00    -0.085 Cl
ATOM     18  H   UNL     1       1.026   1.479   6.746  0.00  0.00    +0.153 HD
ATOM     19  H   UNL     1       2.772   0.932   3.837  0.00  0.00    +0.129 HD
ENDBRANCH   2   4
BRANCH   1  20
ATOM     20  C   UNL     1       3.971  -3.410   1.911  0.00  0.00    +0.104 A 
ATOM     21  C   UNL     1       3.547  -4.277   0.914  0.00  0.00    +0.029 A 
ATOM     22  C   UNL     1       4.098  -5.541   0.818  0.00  0.00    +0.002 A 
ATOM     23  C   UNL     1       5.072  -5.945   1.713  0.00  0.00    +0.004 A 
ATOM     24  C   UNL     1       5.499  -5.086   2.709  0.00  0.00    +0.047 A 
ATOM     25  C   UNL     1       4.956  -3.815   2.808  0.00  0.00    +0.140 A 
BRANCH  25  26
ATOM     26  O   UNL     1       5.380  -2.968   3.783  0.00  0.00    -0.505 OA
ATOM     27  H   UNL     1       4.880  -3.035   4.608  0.00  0.00    +0.292 HD
ENDBRANCH  25  26
ENDBRANCH   1  20
BRANCH   1  28
ATOM     28  S   UNL     1       4.166  -0.841   1.290  0.00  0.00    +0.217 S 
ATOM     29  O   UNL     1       5.529  -1.206   1.125  0.00  0.00    -0.115 OA
ATOM     30  O   UNL     1       3.770   0.317   2.013  0.00  0.00    -0.115 OA
BRANCH  28  31
ATOM     31  O   UNL     1       3.580  -0.702  -0.108  0.00  0.00    -0.331 OA
BRANCH  31  35
ATOM     32  C   UNL     1      -0.207   0.933  -0.187  0.00  0.00    +0.000 A 
ATOM     33  C   UNL     1       0.901   1.760  -0.149  0.00  0.00    +0.004 A 
ATOM     34  C   UNL     1       2.170   1.215  -0.122  0.00  0.00    +0.048 A 
ATOM     35  C   UNL     1       2.333  -0.163  -0.133  0.00  0.00    +0.158 A 
ATOM     36  C   UNL     1       1.220  -0.990  -0.171  0.00  0.00    +0.048 A 
ATOM     37  C   UNL     1      -0.048  -0.440  -0.198  0.00  0.00    +0.004 A 
ENDBRANCH  31  35
ENDBRANCH  28  31
ENDBRANCH   1  28
TORSDOF 6
