REMARK  Name = ZINC54216505
REMARK  6 active torsions:
REMARK  status: ('A' for Active; 'I' for Inactive)
REMARK    1  A    between atoms: C_1  and  C_2
REMARK    2  A    between atoms: C_2  and  C_4
REMARK    3  A    between atoms: C_2  and  O_14
REMARK    4  A    between atoms: N_6  and  C_7
REMARK    5  A    between atoms: O_14  and  C_15
REMARK    6  A    between atoms: C_18  and  N_22
REMARK                            x       y       z     vdW  Elec       q    Type
REMARK                         _______ _______ _______ _____ _____    ______ ____
ROOT
ATOM      1  C   UNL     1       0.208   1.482  -0.704  0.00  0.00    +0.062 C 
ATOM      2  C   UNL     1       0.163   0.184   0.104  0.00  0.00    +0.256 C 
ENDROOT
BRANCH   2   3
ATOM      3  C   UNL     1      -1.258  -0.103   0.515  0.00  0.00    +0.258 C 
ATOM      4  O   UNL     1      -1.564  -0.094   1.688  0.00  0.00    -0.271 OA
ATOM      5  N   UNL     1      -2.190  -0.371  -0.422  0.00  0.00    -0.280 N 
ATOM      6  H   UNL     1      -1.929  -0.468  -1.352  0.00  0.00    +0.155 HD
BRANCH   5   7
ATOM      7  C   UNL     1      -3.534  -0.508  -0.054  0.00  0.00    +0.069 A 
ATOM      8  C   UNL     1      -3.980   0.007   1.155  0.00  0.00    +0.026 A 
ATOM      9  C   UNL     1      -5.307  -0.129   1.515  0.00  0.00    +0.002 A 
ATOM     10  C   UNL     1      -6.191  -0.779   0.673  0.00  0.00    +0.003 A 
ATOM     11  C   UNL     1      -5.751  -1.295  -0.532  0.00  0.00    +0.040 A 
ATOM     12  C   UNL     1      -4.426  -1.157  -0.902  0.00  0.00    +0.144 A 
ATOM     13  F   UNL     1      -3.997  -1.655  -2.082  0.00  0.00    -0.204 F 
ENDBRANCH   5   7
ENDBRANCH   2   3
BRANCH   2  14
ATOM     14  O   UNL     1       0.977   0.320   1.270  0.00  0.00    -0.477 OA
BRANCH  14  15
ATOM     15  C   UNL     1       2.308   0.084   1.125  0.00  0.00    +0.157 A 
ATOM     16  C   UNL     1       2.837  -0.160  -0.134  0.00  0.00    +0.051 A 
ATOM     17  C   UNL     1       4.190  -0.400  -0.279  0.00  0.00    +0.036 A 
ATOM     18  C   UNL     1       5.018  -0.398   0.828  0.00  0.00    +0.129 A 
ATOM     19  C   UNL     1       4.495  -0.156   2.085  0.00  0.00    +0.074 A 
ATOM     20  C   UNL     1       3.142   0.091   2.236  0.00  0.00    +0.167 A 
ATOM     21  F   UNL     1       2.631   0.334   3.463  0.00  0.00    -0.202 F 
BRANCH  18  22
ATOM     22  N   UNL     1       6.466  -0.656   0.668  0.00  0.00    +0.057 N 
ATOM     23  O   UNL     1       6.925  -0.868  -0.430  0.00  0.00    -0.126 OA
ATOM     24  O   UNL     1       7.191  -0.654   1.636  0.00  0.00    -0.126 OA
ENDBRANCH  18  22
ENDBRANCH  14  15
ENDBRANCH   2  14
TORSDOF 5
