REMARK  Name = ZINC67049917
REMARK  5 active torsions:
REMARK  status: ('A' for Active; 'I' for Inactive)
REMARK    1  A    between atoms: C_1  and  C_2
REMARK    2  A    between atoms: C_5  and  C_7
REMARK    3  A    between atoms: C_10  and  C_12
REMARK    4  A    between atoms: N_14  and  C_15
REMARK    5  A    between atoms: N_18  and  C_21
REMARK                            x       y       z     vdW  Elec       q    Type
REMARK                         _______ _______ _______ _____ _____    ______ ____
ROOT
ATOM      1  C   UNL     1      -3.049  -7.795   2.337  0.00  0.00    +0.076 C 
ATOM      2  C   UNL     1      -2.186  -8.679   3.241  0.00  0.00    +0.041 C 
ATOM      3  C   UNL     1      -2.617 -10.140   3.081  0.00  0.00    +0.108 C 
ATOM      4  N   UNL     1      -4.059 -10.239   3.340  0.00  0.00    -0.313 N 
ATOM      5  C   UNL     1      -4.973  -9.368   2.589  0.00  0.00    +0.108 C 
ATOM      6  C   UNL     1      -4.516  -7.915   2.755  0.00  0.00    +0.041 C 
ENDROOT
BRANCH   4   7
ATOM      7  C   UNL     1      -4.548 -11.137   4.272  0.00  0.00    +0.152 A 
ATOM      8  C   UNL     1      -3.693 -12.058   4.901  0.00  0.00    +0.147 A 
ATOM      9  N   UNL     1      -2.369 -12.332   4.828  0.00  0.00    -0.231 NA
ATOM     10  C   UNL     1      -2.082 -13.306   5.641  0.00  0.00    +0.198 A 
ATOM     11  N   UNL     1      -3.208 -13.719   6.289  0.00  0.00    -0.329 N 
ATOM     12  C   UNL     1      -4.248 -12.945   5.840  0.00  0.00    +0.163 A 
ATOM     13  N   UNL     1      -5.550 -12.881   6.097  0.00  0.00    -0.216 NA
ATOM     14  C   UNL     1      -6.313 -12.001   5.484  0.00  0.00    +0.225 A 
ATOM     15  N   UNL     1      -5.837 -11.145   4.599  0.00  0.00    -0.218 NA
ATOM     16  H   UNL     1      -3.264 -14.430   6.947  0.00  0.00    +0.168 HD
ENDBRANCH   4   7
BRANCH   1  19
ATOM     17  C   UNL     1      -1.593  -5.942   1.718  0.00  0.00    +0.217 C 
ATOM     18  O   UNL     1      -1.028  -6.684   0.942  0.00  0.00    -0.275 OA
ATOM     19  N   UNL     1      -2.618  -6.401   2.463  0.00  0.00    -0.312 N 
ATOM     20  H   UNL     1      -3.070  -5.807   3.083  0.00  0.00    +0.149 HD
BRANCH  17  23
ATOM     21  C   UNL     1       0.019  -4.048   0.974  0.00  0.00    +0.038 C 
ATOM     22  C   UNL     1       0.221  -4.246   2.477  0.00  0.00    +0.022 C 
ATOM     23  C   UNL     1      -1.150  -4.508   1.847  0.00  0.00    +0.083 C 
BRANCH  21  28
ATOM     24  C   UNL     1      -0.116   1.528  -0.016  0.00  0.00    +0.051 C 
ATOM     25  C   UNL     1      -0.078   0.022  -0.015  0.00  0.00    -0.013 A 
ATOM     26  C   UNL     1      -0.049  -0.832  -1.067  0.00  0.00    +0.011 A 
ATOM     27  C   UNL     1      -0.016  -2.193  -0.826  0.00  0.00    +0.012 A 
ATOM     28  C   UNL     1      -0.013  -2.633   0.456  0.00  0.00    -0.006 A 
ATOM     29  S   UNL     1      -0.052  -1.101   1.373  0.00  0.00    -0.098 S 
ENDBRANCH  21  28
ENDBRANCH  17  23
ENDBRANCH   1  19
TORSDOF 4
