REMARK  Name = ZINC63452072
REMARK  11 active torsions:
REMARK  status: ('A' for Active; 'I' for Inactive)
REMARK    1  A    between atoms: C_1  and  C_2
REMARK    2  A    between atoms: C_2  and  C_3
REMARK    3  A    between atoms: C_2  and  C_4
REMARK    4  A    between atoms: C_4  and  N_5
REMARK    5  A    between atoms: C_6  and  N_26
REMARK    6  A    between atoms: C_7  and  N_14
REMARK    7  A    between atoms: N_14  and  C_15
REMARK    8  A    between atoms: C_15  and  C_16
REMARK    9  A    between atoms: C_16  and  C_17
REMARK   10  A    between atoms: C_16  and  C_18
REMARK   11  A    between atoms: C_19  and  C_21
REMARK                            x       y       z     vdW  Elec       q    Type
REMARK                         _______ _______ _______ _____ _____    ______ ____
ROOT
ATOM      1  N   UNL     1      -2.396  -0.268  -1.834  0.00  0.00    -0.280 N 
ATOM      2  C   UNL     1      -3.007   0.960  -1.726  0.00  0.00    +0.127 A 
ATOM      3  C   UNL     1      -3.647   1.493  -2.826  0.00  0.00    +0.140 A 
ATOM      4  C   UNL     1      -3.657   0.760  -4.028  0.00  0.00    +0.277 A 
ATOM      5  O   UNL     1      -4.215   1.208  -5.015  0.00  0.00    -0.266 OA
ATOM      6  N   UNL     1      -3.044  -0.438  -4.081  0.00  0.00    -0.273 N 
ATOM      7  H   UNL     1      -3.050  -0.944  -4.908  0.00  0.00    +0.173 HD
ATOM      8  C   UNL     1      -2.420  -0.940  -3.000  0.00  0.00    +0.331 A 
ATOM      9  O   UNL     1      -1.870  -2.022  -3.076  0.00  0.00    -0.246 OA
ENDROOT
BRANCH   3  10
ATOM     10  N   UNL     1      -4.283   2.750  -2.747  0.00  0.00    -0.259 N 
ATOM     11  C   UNL     1      -5.626   2.822  -2.669  0.00  0.00    +0.270 C 
ATOM     12  O   UNL     1      -6.170   3.900  -2.517  0.00  0.00    -0.268 OA
BRANCH  11  13
ATOM     13  C   UNL     1      -6.437   1.597  -2.767  0.00  0.00    +0.133 A 
ATOM     14  C   UNL     1      -7.805   1.633  -2.795  0.00  0.00    +0.079 A 
ATOM     15  S   UNL     1      -8.208   0.006  -2.911  0.00  0.00    -0.083 S 
ATOM     16  C   UNL     1      -6.665  -0.656  -2.921  0.00  0.00    +0.156 A 
ATOM     17  N   UNL     1      -5.879   0.384  -2.841  0.00  0.00    -0.243 NA
ENDBRANCH  11  13
BRANCH  10  18
ATOM     18  C   UNL     1      -3.482   3.977  -2.750  0.00  0.00    +0.117 C 
BRANCH  18  19
ATOM     19  C   UNL     1      -3.169   4.378  -4.193  0.00  0.00    +0.001 C 
ATOM     20  C   UNL     1      -4.463   4.779  -4.904  0.00  0.00    +0.009 C 
ATOM     21  C   UNL     1      -2.198   5.560  -4.194  0.00  0.00    +0.009 C 
ENDBRANCH  18  19
ENDBRANCH  10  18
ENDBRANCH   3  10
BRANCH   2  22
ATOM     22  N   UNL     1      -2.979   1.648  -0.537  0.00  0.00    -0.343 N 
ATOM     23  H   UNL     1      -2.610   1.230   0.257  0.00  0.00    +0.144 HD
ATOM     24  H   UNL     1      -3.328   2.552  -0.491  0.00  0.00    +0.144 HD
ENDBRANCH   2  22
BRANCH   1  25
ATOM     25  C   UNL     1      -1.712  -0.846  -0.675  0.00  0.00    +0.131 C 
BRANCH  25  27
ATOM     26  C   UNL     1      -0.182   1.119  -0.467  0.00  0.00    +0.009 C 
ATOM     27  C   UNL     1      -0.249  -0.397  -0.670  0.00  0.00    +0.003 C 
ATOM     28  C   UNL     1       0.496  -1.097   0.468  0.00  0.00    +0.009 C 
ENDBRANCH  25  27
ENDBRANCH   1  25
TORSDOF 7
