REMARK  Name = ZINC40290614
REMARK  6 active torsions:
REMARK  status: ('A' for Active; 'I' for Inactive)
REMARK    1  A    between atoms: C_1  and  C_2
REMARK    2  A    between atoms: C_3  and  C_18
REMARK    3  A    between atoms: C_6  and  O_10
REMARK    4  A    between atoms: C_7  and  C_8
REMARK    5  A    between atoms: C_8  and  N_9
REMARK    6  A    between atoms: O_10  and  C_11
REMARK                            x       y       z     vdW  Elec       q    Type
REMARK                         _______ _______ _______ _____ _____    ______ ____
ROOT
ATOM      1  C   UNL     1       0.588   1.465   0.000  0.00  0.00    +0.046 C 
ATOM      2  C   UNL     1       0.382  -0.028  -0.004  0.00  0.00    -0.018 A 
ATOM      3  C   UNL     1       0.253  -0.728  -1.196  0.00  0.00    +0.064 A 
ATOM      4  N   UNL     1       0.073  -2.033  -1.176  0.00  0.00    -0.151 NA
ATOM      5  N   UNL     1       0.011  -2.700  -0.082  0.00  0.00    -0.111 NA
ATOM      6  C   UNL     1       0.123  -2.120   1.103  0.00  0.00    +0.244 A 
ATOM      7  C   UNL     1       0.321  -0.744   1.181  0.00  0.00    +0.034 A 
ATOM      8  C   UNL     1       0.318   0.005  -2.511  0.00  0.00    +0.068 C 
ENDROOT
BRANCH   7   9
ATOM      9  C   UNL     1       0.460  -0.053   2.514  0.00  0.00    +0.119 C 
BRANCH   9  10
ATOM     10  N   UNL     1      -0.866   0.361   2.991  0.00  0.00    -0.326 NA
ATOM     11  H   UNL     1      -0.800   0.827   3.884  0.00  0.00    +0.119 HD
ATOM     12  H   UNL     1      -1.329   0.946   2.312  0.00  0.00    +0.119 HD
ENDBRANCH   9  10
ENDBRANCH   7   9
BRANCH   6  13
ATOM     13  O   UNL     1       0.051  -2.864   2.235  0.00  0.00    -0.435 OA
BRANCH  13  14
ATOM     14  C   UNL     1      -0.036  -4.214   2.107  0.00  0.00    +0.149 A 
ATOM     15  C   UNL     1      -1.277  -4.834   2.106  0.00  0.00    +0.048 A 
ATOM     16  C   UNL     1      -1.363  -6.206   1.975  0.00  0.00    +0.004 A 
ATOM     17  C   UNL     1      -0.213  -6.963   1.848  0.00  0.00    +0.002 A 
ATOM     18  C   UNL     1       1.026  -6.350   1.849  0.00  0.00    +0.024 A 
ATOM     19  C   UNL     1       1.117  -4.976   1.973  0.00  0.00    +0.083 A 
ATOM     20 CL   UNL     1       2.672  -4.204   1.968  0.00  0.00    -0.080 Cl
ENDBRANCH  13  14
ENDBRANCH   6  13
TORSDOF 4
