REMARK  Name = ZINC19831327
REMARK  11 active torsions:
REMARK  status: ('A' for Active; 'I' for Inactive)
REMARK    1  A    between atoms: C_1  and  C_2
REMARK    2  A    between atoms: C_2  and  C_3
REMARK    3  A    between atoms: C_8  and  N_9
REMARK    4  A    between atoms: C_10  and  C_12
REMARK    5  A    between atoms: C_12  and  S_13
REMARK    6  A    between atoms: S_13  and  C_14
REMARK    7  A    between atoms: C_15  and  C_36
REMARK    8  A    between atoms: C_16  and  C_31
REMARK    9  A    between atoms: C_18  and  C_22
REMARK   10  A    between atoms: C_19  and  C_21
REMARK   11  A    between atoms: N_24  and  C_25
REMARK                            x       y       z     vdW  Elec       q    Type
REMARK                         _______ _______ _______ _____ _____    ______ ____
ROOT
ATOM      1  C   UNL     1      -2.799   2.847   2.470  0.00  0.00    +0.080 C 
ATOM      2  C   UNL     1      -2.286   2.787   3.728  0.00  0.00    +0.072 C 
ATOM      3  C   UNL     1      -0.963   2.128   3.999  0.00  0.00    +0.134 C 
ATOM      4  C   UNL     1      -0.187   1.945   2.727  0.00  0.00    +0.047 C 
ATOM      5  C   UNL     1      -0.773   2.035   1.522  0.00  0.00    +0.015 C 
ATOM      6  N   UNL     1      -2.108   2.313   1.407  0.00  0.00    -0.312 N 
ATOM      7  C   UNL     1       0.052   1.832   0.278  0.00  0.00    +0.061 C 
ATOM      8  H   UNL     1      -2.628   2.108   0.460  0.00  0.00    +0.152 HD
ENDROOT
BRANCH   3   9
ATOM      9  C   UNL     1      -1.200   0.782   4.634  0.00  0.00    +0.118 A 
ATOM     10  C   UNL     1      -0.784   0.404   5.856  0.00  0.00    +0.045 A 
ATOM     11  C   UNL     1      -1.222  -0.927   6.044  0.00  0.00    +0.041 A 
ATOM     12  C   UNL     1      -1.879  -1.282   4.926  0.00  0.00    +0.195 A 
ATOM     13  O   UNL     1      -1.868  -0.241   4.077  0.00  0.00    -0.467 OA
ENDBRANCH   3   9
BRANCH   4  14
ATOM     14  C   UNL     1       1.200   1.669   2.799  0.00  0.00    +0.247 C 
ATOM     15  O   UNL     1       1.864   1.613   1.780  0.00  0.00    -0.270 OA
ATOM     16  N   UNL     1       1.786   1.469   3.997  0.00  0.00    -0.282 N 
ATOM     17  H   UNL     1       1.174   1.446   4.911  0.00  0.00    +0.155 HD
BRANCH  16  18
ATOM     18  C   UNL     1       3.170   1.291   4.077  0.00  0.00    +0.034 A 
ATOM     19  C   UNL     1       3.841   0.596   3.079  0.00  0.00    +0.023 A 
ATOM     20  C   UNL     1       5.210   0.427   3.158  0.00  0.00    +0.002 A 
ATOM     21  C   UNL     1       5.910   0.940   4.235  0.00  0.00    +0.000 A 
ATOM     22  C   UNL     1       5.244   1.628   5.232  0.00  0.00    +0.002 A 
ATOM     23  C   UNL     1       3.877   1.805   5.157  0.00  0.00    +0.023 A 
ENDBRANCH  16  18
ENDBRANCH   4  14
BRANCH   2  24
ATOM     24  C   UNL     1      -3.020   3.362   4.814  0.00  0.00    +0.098 C 
ATOM     25  N   UNL     1      -3.602   3.819   5.676  0.00  0.00    -0.191 NA
ENDBRANCH   2  24
BRANCH   1  26
ATOM     26  S   UNL     1      -4.359   3.620   2.198  0.00  0.00    -0.100 S 
BRANCH  26  27
ATOM     27  C   UNL     1      -4.510   3.402   0.407  0.00  0.00    +0.171 C 
BRANCH  27  29
ATOM     28  N   UNL     1      -6.137   3.960  -1.371  0.00  0.00    -0.285 N 
ATOM     29  C   UNL     1      -5.808   4.005  -0.064  0.00  0.00    +0.227 C 
ATOM     30  O   UNL     1      -6.558   4.530   0.732  0.00  0.00    -0.275 OA
ATOM     31  H   UNL     1      -5.494   3.419  -2.081  0.00  0.00    +0.155 HD
BRANCH  28  37
ATOM     32  C   UNL     1      -7.331   5.155  -3.096  0.00  0.00    -0.026 A 
ATOM     33  C   UNL     1      -8.476   5.788  -3.540  0.00  0.00    +0.005 A 
ATOM     34  C   UNL     1      -9.585   5.871  -2.719  0.00  0.00    +0.000 A 
ATOM     35  C   UNL     1      -9.552   5.321  -1.450  0.00  0.00    +0.002 A 
ATOM     36  C   UNL     1      -8.412   4.682  -1.002  0.00  0.00    +0.023 A 
ATOM     37  C   UNL     1      -7.295   4.602  -1.823  0.00  0.00    +0.037 A 
BRANCH  32  39
ATOM     38  C   UNL     1      -6.137   3.727  -4.734  0.00  0.00    +0.009 C 
ATOM     39  C   UNL     1      -6.123   5.065  -3.993  0.00  0.00    +0.033 C 
ENDBRANCH  32  39
ENDBRANCH  28  37
ENDBRANCH  27  29
ENDBRANCH  26  27
ENDBRANCH   1  26
TORSDOF 9
