REMARK  Name = ZINC53111780
REMARK  6 active torsions:
REMARK  status: ('A' for Active; 'I' for Inactive)
REMARK    1  A    between atoms: C_1  and  C_2
REMARK    2  A    between atoms: C_3  and  C_9
REMARK    3  A    between atoms: C_5  and  N_8
REMARK    4  A    between atoms: N_11  and  C_12
REMARK    5  A    between atoms: C_12  and  C_18
REMARK    6  A    between atoms: C_18  and  O_19
REMARK                            x       y       z     vdW  Elec       q    Type
REMARK                         _______ _______ _______ _____ _____    ______ ____
ROOT
ATOM      1  C   UNL     1       1.248  -1.472  -3.638  0.00  0.00    +0.246 C 
ATOM      2  O   UNL     1       2.037  -1.527  -4.561  0.00  0.00    -0.270 OA
ATOM      3  N   UNL     1       0.315  -0.501  -3.605  0.00  0.00    -0.304 N 
ATOM      4  H   UNL     1      -0.272  -0.418  -2.837  0.00  0.00    +0.150 HD
ENDROOT
BRANCH   1   7
ATOM      5  C   UNL     1       3.370  -3.438  -3.618  0.00  0.00    +0.066 C 
ATOM      6  C   UNL     1       2.332  -3.427  -2.525  0.00  0.00    +0.050 A 
ATOM      7  C   UNL     1       1.315  -2.471  -2.550  0.00  0.00    +0.059 A 
ATOM      8  C   UNL     1       0.359  -2.474  -1.528  0.00  0.00    +0.039 A 
ATOM      9  C   UNL     1       0.467  -3.435  -0.529  0.00  0.00    +0.044 A 
ATOM     10  C   UNL     1       1.511  -4.350  -0.580  0.00  0.00    +0.133 A 
ATOM     11  N   UNL     1       2.392  -4.321  -1.561  0.00  0.00    -0.258 NA
BRANCH   9  12
ATOM     12  N   UNL     1      -0.463  -3.479   0.514  0.00  0.00    -0.357 N 
ATOM     13  H   UNL     1      -1.189  -2.837   0.543  0.00  0.00    +0.142 HD
ATOM     14  H   UNL     1      -0.382  -4.152   1.208  0.00  0.00    +0.142 HD
ENDBRANCH   9  12
ENDBRANCH   1   7
BRANCH   3  15
ATOM     15  C   UNL     1       0.185   0.428  -4.730  0.00  0.00    +0.058 C 
ATOM     16  C   UNL     1      -0.986   1.379  -4.473  0.00  0.00    +0.028 C 
ATOM     17  C   UNL     1      -2.277   0.571  -4.328  0.00  0.00    +0.002 C 
ATOM     18  C   UNL     1      -2.533  -0.217  -5.614  0.00  0.00    +0.000 C 
ATOM     19  C   UNL     1      -1.362  -1.168  -5.871  0.00  0.00    +0.002 C 
ATOM     20  C   UNL     1      -0.071  -0.360  -6.016  0.00  0.00    +0.028 C 
BRANCH  15  21
ATOM     21  C   UNL     1       1.476   1.236  -4.875  0.00  0.00    +0.181 C 
BRANCH  21  22
ATOM     22  O   UNL     1       1.708   1.982  -3.678  0.00  0.00    -0.393 OA
ATOM     23  H   UNL     1       2.512   2.519  -3.700  0.00  0.00    +0.209 HD
ENDBRANCH  21  22
ENDBRANCH  15  21
ENDBRANCH   3  15
TORSDOF 5
