REMARK  Name = ZINC05741120
REMARK  3 active torsions:
REMARK  status: ('A' for Active; 'I' for Inactive)
REMARK    1  A    between atoms: C_4  and  N_7
REMARK    2  A    between atoms: N_7  and  C_8
REMARK    3  A    between atoms: N_13  and  C_16
REMARK                            x       y       z     vdW  Elec       q    Type
REMARK                         _______ _______ _______ _____ _____    ______ ____
ROOT
ATOM      1  C   UNL     1       3.641  -2.114  -0.044  0.00  0.00    +0.166 C 
ATOM      2  C   UNL     1       4.985  -2.640   0.500  0.00  0.00    +0.128 C 
ATOM      3  C   UNL     1       5.565  -3.407  -0.668  0.00  0.00    +0.228 C 
ATOM      4  O   UNL     1       6.629  -3.989  -0.667  0.00  0.00    -0.275 OA
ATOM      5  N   UNL     1       4.718  -3.341  -1.702  0.00  0.00    -0.208 N 
ATOM      6  C   UNL     1       3.599  -2.639  -1.463  0.00  0.00    +0.247 C 
ATOM      7  O   UNL     1       2.700  -2.454  -2.254  0.00  0.00    -0.273 OA
ENDROOT
BRANCH   5   8
ATOM      8  C   UNL     1       4.976  -3.958  -2.935  0.00  0.00    +0.058 A 
ATOM      9  C   UNL     1       4.553  -5.260  -3.164  0.00  0.00    +0.025 A 
ATOM     10  C   UNL     1       4.808  -5.864  -4.380  0.00  0.00    +0.002 A 
ATOM     11  C   UNL     1       5.486  -5.173  -5.368  0.00  0.00    +0.001 A 
ATOM     12  C   UNL     1       5.909  -3.877  -5.144  0.00  0.00    +0.017 A 
ATOM     13  C   UNL     1       5.652  -3.265  -3.931  0.00  0.00    +0.040 A 
ATOM     14 BR   UNL     1       6.225  -1.489  -3.627  0.00  0.00    -0.048 Br
ENDBRANCH   5   8
BRANCH   1  15
ATOM     15  N   UNL     1       3.620  -0.649  -0.036  0.00  0.00    -0.333 N 
ATOM     16  H   UNL     1       4.452  -0.152  -0.042  0.00  0.00    +0.147 HD
BRANCH  15  20
ATOM     17  C   UNL     1      -0.017   1.379   0.010  0.00  0.00    +0.000 A 
ATOM     18  C   UNL     1       1.169   2.089   0.002  0.00  0.00    +0.002 A 
ATOM     19  C   UNL     1       2.377   1.420  -0.013  0.00  0.00    +0.023 A 
ATOM     20  C   UNL     1       2.400   0.031  -0.021  0.00  0.00    +0.028 A 
ATOM     21  C   UNL     1       1.206  -0.680  -0.013  0.00  0.00    +0.023 A 
ATOM     22  C   UNL     1       0.002  -0.004   0.002  0.00  0.00    +0.002 A 
ENDBRANCH  15  20
ENDBRANCH   1  15
TORSDOF 3
