REMARK  Name = ZINC21126014
REMARK  10 active torsions:
REMARK  status: ('A' for Active; 'I' for Inactive)
REMARK    1  A    between atoms: C_1  and  C_2
REMARK    2  A    between atoms: C_2  and  C_4
REMARK    3  A    between atoms: C_2  and  O_17
REMARK    4  A    between atoms: N_6  and  C_7
REMARK    5  A    between atoms: C_11  and  N_13
REMARK    6  A    between atoms: O_17  and  C_18
REMARK    7  A    between atoms: C_18  and  C_20
REMARK    8  A    between atoms: C_20  and  C_21
REMARK    9  A    between atoms: C_21  and  C_23
REMARK   10  A    between atoms: C_21  and  N_30
REMARK                            x       y       z     vdW  Elec       q    Type
REMARK                         _______ _______ _______ _____ _____    ______ ____
ROOT
ATOM      1  C   UNL     1      -2.716   0.508  -2.546  0.00  0.00    +0.310 C 
ATOM      2  O   UNL     1      -2.765   1.715  -2.555  0.00  0.00    -0.251 OA
ENDROOT
BRANCH   1   3
ATOM      3  O   UNL     1      -2.757  -0.173  -3.701  0.00  0.00    -0.452 OA
BRANCH   3   5
ATOM      4  C   UNL     1      -4.335   0.821  -5.267  0.00  0.00    +0.062 C 
ATOM      5  C   UNL     1      -2.860   0.605  -4.923  0.00  0.00    +0.259 C 
BRANCH   5   6
ATOM      6  C   UNL     1      -2.184  -0.135  -6.049  0.00  0.00    +0.258 C 
ATOM      7  O   UNL     1      -1.746  -1.251  -5.864  0.00  0.00    -0.271 OA
ATOM      8  N   UNL     1      -2.066   0.444  -7.260  0.00  0.00    -0.282 N 
ATOM      9  H   UNL     1      -2.525   1.426  -7.448  0.00  0.00    +0.155 HD
BRANCH   8  10
ATOM     10  C   UNL     1      -1.359  -0.205  -8.280  0.00  0.00    +0.036 A 
ATOM     11  C   UNL     1      -0.617   0.535  -9.191  0.00  0.00    +0.026 A 
ATOM     12  C   UNL     1       0.085  -0.107 -10.192  0.00  0.00    +0.042 A 
ATOM     13  C   UNL     1       0.039  -1.487 -10.296  0.00  0.00    +0.154 A 
ATOM     14  C   UNL     1      -0.705  -2.226  -9.392  0.00  0.00    +0.163 A 
ATOM     15  C   UNL     1      -1.403  -1.588  -8.385  0.00  0.00    +0.059 A 
ATOM     16  F   UNL     1       0.721  -2.113 -11.280  0.00  0.00    -0.203 F 
BRANCH  14  17
ATOM     17  N   UNL     1      -0.752  -3.702  -9.504  0.00  0.00    +0.059 N 
ATOM     18  O   UNL     1      -1.406  -4.352  -8.709  0.00  0.00    -0.126 OA
ATOM     19  O   UNL     1      -0.137  -4.265 -10.392  0.00  0.00    -0.126 OA
ENDBRANCH  14  17
ENDBRANCH   8  10
ENDBRANCH   5   6
ENDBRANCH   3   5
ENDBRANCH   1   3
BRANCH   1  20
ATOM     20  C   UNL     1      -2.610  -0.232  -1.238  0.00  0.00    +0.147 C 
BRANCH  20  21
ATOM     21  C   UNL     1      -2.582   0.772  -0.084  0.00  0.00    +0.115 C 
BRANCH  21  22
ATOM     22  C   UNL     1      -2.600   0.031   1.228  0.00  0.00    -0.027 A 
ATOM     23  C   UNL     1      -1.419  -0.445   1.769  0.00  0.00    +0.007 A 
ATOM     24  C   UNL     1      -1.434  -1.120   2.975  0.00  0.00    +0.020 A 
ATOM     25  C   UNL     1      -2.631  -1.329   3.635  0.00  0.00    +0.041 A 
ATOM     26  C   UNL     1      -3.813  -0.858   3.091  0.00  0.00    +0.020 A 
ATOM     27  C   UNL     1      -3.796  -0.178   1.888  0.00  0.00    +0.007 A 
ATOM     28 CL   UNL     1      -2.652  -2.184   5.146  0.00  0.00    -0.084 Cl
ENDBRANCH  21  22
BRANCH  21  29
ATOM     29  N   UNL     1      -1.365   1.583  -0.171  0.00  0.00    -0.292 N 
ATOM     30  C   UNL     1      -1.302   2.773   0.457  0.00  0.00    +0.298 C 
ATOM     31  O   UNL     1      -2.285   3.218   1.018  0.00  0.00    -0.253 OA
ATOM     32  N   UNL     1      -0.148   3.470   0.467  0.00  0.00    -0.313 N 
ATOM     33  H   UNL     1      -0.502   1.219  -0.749  0.00  0.00    +0.151 HD
ATOM     34  H   UNL     1      -0.096   4.442   0.979  0.00  0.00    +0.146 HD
ATOM     35  H   UNL     1       0.743   3.066  -0.037  0.00  0.00    +0.146 HD
ENDBRANCH  21  29
ENDBRANCH  20  21
ENDBRANCH   1  20
TORSDOF 9
