REMARK  Name = ZINC51143682
REMARK  10 active torsions:
REMARK  status: ('A' for Active; 'I' for Inactive)
REMARK    1  A    between atoms: C_1  and  C_2
REMARK    2  A    between atoms: C_2  and  C_4
REMARK    3  A    between atoms: C_2  and  N_7
REMARK    4  A    between atoms: C_4  and  C_5
REMARK    5  A    between atoms: C_4  and  C_6
REMARK    6  A    between atoms: N_7  and  C_8
REMARK    7  A    between atoms: C_9  and  C_11
REMARK    8  A    between atoms: C_13  and  N_20
REMARK    9  A    between atoms: C_14  and  N_18
REMARK   10  A    between atoms: N_18  and  N_19
REMARK                            x       y       z     vdW  Elec       q    Type
REMARK                         _______ _______ _______ _____ _____    ______ ____
ROOT
ATOM      1  C   UNL     1       0.472  -1.687  -3.408  0.00  0.00    +0.041 A 
ATOM      2  C   UNL     1       1.716  -2.318  -3.329  0.00  0.00    +0.047 A 
ATOM      3  C   UNL     1       2.283  -2.865  -4.457  0.00  0.00    +0.150 A 
ATOM      4  C   UNL     1       1.619  -2.789  -5.678  0.00  0.00    +0.090 A 
ATOM      5  C   UNL     1       0.378  -2.161  -5.761  0.00  0.00    +0.066 A 
ATOM      6  C   UNL     1      -0.197  -1.618  -4.634  0.00  0.00    +0.035 A 
ATOM      7 CL   UNL     1      -0.447  -2.069  -7.286  0.00  0.00    -0.081 Cl
ENDROOT
BRANCH   1  10
ATOM      8  N   UNL     1       0.641  -0.527  -1.262  0.00  0.00    -0.298 N 
ATOM      9  C   UNL     1       2.078  -0.368  -1.501  0.00  0.00    +0.132 C 
ATOM     10  C   UNL     1      -0.138  -1.101  -2.200  0.00  0.00    +0.247 C 
ATOM     11  O   UNL     1      -1.344  -1.135  -2.050  0.00  0.00    -0.270 OA
BRANCH   8  13
ATOM     12  C   UNL     1       0.177   1.460   0.086  0.00  0.00    +0.028 C 
ATOM     13  C   UNL     1       0.052  -0.062  -0.004  0.00  0.00    +0.076 C 
BRANCH  13  14
ATOM     14  C   UNL     1       0.790  -0.704   1.173  0.00  0.00    +0.003 C 
ATOM     15  C   UNL     1       0.255  -0.129   2.485  0.00  0.00    +0.009 C 
ATOM     16  C   UNL     1       0.567  -2.217   1.150  0.00  0.00    +0.009 C 
ENDBRANCH  13  14
ENDBRANCH   8  13
ENDBRANCH   1  10
BRANCH   3  17
ATOM     17  N   UNL     1       3.602  -3.533  -4.374  0.00  0.00    +0.058 N 
ATOM     18  O   UNL     1       4.136  -3.682  -3.300  0.00  0.00    -0.126 OA
ATOM     19  O   UNL     1       4.144  -3.929  -5.379  0.00  0.00    -0.126 OA
ENDBRANCH   3  17
BRANCH   4  20
ATOM     20  N   UNL     1       2.194  -3.343  -6.817  0.00  0.00    -0.280 N 
ATOM     21  H   UNL     1       2.713  -4.160  -6.751  0.00  0.00    +0.166 HD
BRANCH  20  22
ATOM     22  N   UNL     1       2.029  -2.736  -8.030  0.00  0.00    -0.256 NA
ATOM     23  H   UNL     1       2.418  -1.805  -8.024  0.00  0.00    +0.140 HD
ATOM     24  H   UNL     1       2.431  -3.291  -8.770  0.00  0.00    +0.140 HD
ENDBRANCH  20  22
ENDBRANCH   4  20
TORSDOF 6
