REMARK  Name = ZINC35378968
REMARK  7 active torsions:
REMARK  status: ('A' for Active; 'I' for Inactive)
REMARK    1  A    between atoms: C_1  and  C_2
REMARK    2  A    between atoms: C_7  and  S_8
REMARK    3  A    between atoms: S_8  and  N_11
REMARK    4  A    between atoms: C_15  and  C_18
REMARK    5  A    between atoms: N_20  and  C_21
REMARK    6  A    between atoms: C_21  and  C_22
REMARK    7  A    between atoms: C_22  and  N_23
REMARK                            x       y       z     vdW  Elec       q    Type
REMARK                         _______ _______ _______ _____ _____    ______ ____
ROOT
ATOM      1  N   UNL     1       1.617   1.132   2.607  0.00  0.00    -0.176 NA
ATOM      2  C   UNL     1       2.940   0.585   2.934  0.00  0.00    +0.109 C 
ATOM      3  C   UNL     1       3.884   0.841   1.755  0.00  0.00    +0.018 C 
ATOM      4  C   UNL     1       3.886   2.335   1.423  0.00  0.00    +0.015 C 
ATOM      5  C   UNL     1       2.476   2.771   1.017  0.00  0.00    +0.091 C 
ATOM      6  C   UNL     1       1.517   2.535   2.182  0.00  0.00    +0.122 C 
ENDROOT
BRANCH   5   7
ATOM      7  C   UNL     1       2.486   4.234   0.659  0.00  0.00    +0.217 C 
ATOM      8  O   UNL     1       1.791   5.014   1.276  0.00  0.00    -0.275 OA
ATOM      9  N   UNL     1       3.265   4.677  -0.348  0.00  0.00    -0.317 N 
ATOM     10  H   UNL     1       3.821   4.053  -0.841  0.00  0.00    +0.149 HD
BRANCH   9  11
ATOM     11  C   UNL     1       3.275   6.100  -0.696  0.00  0.00    +0.085 C 
BRANCH  11  12
ATOM     12  C   UNL     1       4.236   6.333  -1.863  0.00  0.00    -0.059 C 
BRANCH  12  13
ATOM     13  N   UNL     1       4.245   7.760  -2.212  0.00  0.00    +0.384 N 
ATOM     14  C   UNL     1       5.085   7.970  -3.401  0.00  0.00    -0.074 C 
ATOM     15  C   UNL     1       4.840   9.385  -3.928  0.00  0.00    +0.017 C 
ATOM     16  C   UNL     1       4.983  10.379  -2.804  0.00  0.00    -0.048 A 
ATOM     17  C   UNL     1       5.143  11.720  -3.118  0.00  0.00    +0.004 A 
ATOM     18  C   UNL     1       5.274  12.659  -2.115  0.00  0.00    +0.000 A 
ATOM     19  C   UNL     1       5.246  12.261  -0.791  0.00  0.00    +0.000 A 
ATOM     20  C   UNL     1       5.088  10.926  -0.478  0.00  0.00    +0.002 A 
ATOM     21  C   UNL     1       4.958   9.981  -1.484  0.00  0.00    -0.061 A 
ATOM     22  C   UNL     1       4.796   8.534  -1.096  0.00  0.00    -0.043 C 
ATOM     23  H   UNL     1       3.303   8.067  -2.404  0.00  0.00    -0.081 HD
ENDBRANCH  12  13
ENDBRANCH  11  12
ENDBRANCH   9  11
ENDBRANCH   5   7
BRANCH   1  24
ATOM     24  S   UNL     1       0.263   0.183   2.711  0.00  0.00    +0.061 S 
ATOM     25  O   UNL     1      -0.848   1.067   2.780  0.00  0.00    -0.153 OA
ATOM     26  O   UNL     1       0.525  -0.791   3.712  0.00  0.00    -0.153 OA
BRANCH  24  33
ATOM     27  C   UNL     1      -0.435   1.486   0.078  0.00  0.00    +0.046 C 
ATOM     28  C   UNL     1      -0.205  -0.003   0.029  0.00  0.00    -0.022 A 
ATOM     29  C   UNL     1      -0.313  -0.679  -1.173  0.00  0.00    +0.032 A 
ATOM     30  C   UNL     1      -0.101  -2.046  -1.215  0.00  0.00    +0.076 A 
ATOM     31  C   UNL     1       0.220  -2.738  -0.048  0.00  0.00    +0.144 A 
ATOM     32  C   UNL     1       0.328  -2.055   1.151  0.00  0.00    +0.076 A 
ATOM     33  C   UNL     1       0.120  -0.688   1.186  0.00  0.00    +0.112 A 
ATOM     34  O   UNL     1       0.422  -4.082  -0.101  0.00  0.00    -0.481 OA
ATOM     35  C   UNL     1      -0.348  -4.811  -1.060  0.00  0.00    +0.325 C 
ATOM     36  C   UNL     1      -0.309  -4.098  -2.388  0.00  0.00    +0.255 C 
ATOM     37  O   UNL     1      -0.370  -4.730  -3.421  0.00  0.00    -0.272 OA
ATOM     38  N   UNL     1      -0.206  -2.751  -2.422  0.00  0.00    -0.280 N 
ATOM     39  H   UNL     1      -0.205  -2.279  -3.270  0.00  0.00    +0.155 HD
ENDBRANCH  24  33
ENDBRANCH   1  24
TORSDOF 6
