REMARK  Name = ZINC55477641
REMARK  6 active torsions:
REMARK  status: ('A' for Active; 'I' for Inactive)
REMARK    1  A    between atoms: C_1  and  C_2
REMARK    2  A    between atoms: C_3  and  C_12
REMARK    3  A    between atoms: C_12  and  C_13
REMARK    4  A    between atoms: C_13  and  C_14
REMARK    5  A    between atoms: N_16  and  C_17
REMARK    6  A    between atoms: N_26  and  C_28
REMARK                            x       y       z     vdW  Elec       q    Type
REMARK                         _______ _______ _______ _____ _____    ______ ____
ROOT
ATOM      1  C   UNL     1      -4.317   0.888  -1.407  0.00  0.00    +0.214 C 
ATOM      2  O   UNL     1      -4.800   1.253  -0.356  0.00  0.00    -0.276 OA
ATOM      3  N   UNL     1      -4.963   1.129  -2.566  0.00  0.00    -0.312 N 
ATOM      4  H   UNL     1      -4.577   0.837  -3.406  0.00  0.00    +0.149 HD
ENDROOT
BRANCH   3   5
ATOM      5  C   UNL     1      -6.246   1.829  -2.555  0.00  0.00    +0.076 C 
ATOM      6  C   UNL     1      -7.394   0.840  -2.340  0.00  0.00    -0.007 C 
ATOM      7  C   UNL     1      -7.375  -0.228  -3.425  0.00  0.00    +0.003 C 
ATOM      8  C   UNL     1      -7.410   0.353  -4.830  0.00  0.00    +0.001 C 
ATOM      9  C   UNL     1      -6.443   1.508  -5.029  0.00  0.00    +0.003 C 
ATOM     10  C   UNL     1      -6.488   2.524  -3.897  0.00  0.00    -0.007 C 
ATOM     11  C   UNL     1      -7.820   3.261  -3.856  0.00  0.00    -0.073 C 
ATOM     12  N   UNL     1      -8.943   2.393  -3.515  0.00  0.00    +0.382 N 
ATOM     13  C   UNL     1      -8.717   1.593  -2.316  0.00  0.00    -0.073 C 
ATOM     14  H   UNL     1      -9.174   1.798  -4.295  0.00  0.00    -0.081 HD
BRANCH  12  15
ATOM     15  C   UNL     1     -10.119   3.242  -3.281  0.00  0.00    -0.069 C 
ATOM     16  C   UNL     1     -11.405   2.891  -4.031  0.00  0.00    -0.017 C 
ATOM     17  C   UNL     1     -10.596   4.124  -4.437  0.00  0.00    -0.017 C 
ENDBRANCH  12  15
ENDBRANCH   3   5
BRANCH   1  18
ATOM     18  C   UNL     1      -2.994   0.166  -1.419  0.00  0.00    +0.100 C 
BRANCH  18  19
ATOM     19  C   UNL     1      -2.479   0.024   0.015  0.00  0.00    +0.051 C 
BRANCH  19  22
ATOM     20  C   UNL     1      -0.018   1.503   0.010  0.00  0.00    +0.064 C 
ATOM     21  C   UNL     1       0.002  -0.004   0.002  0.00  0.00    +0.026 A 
ATOM     22  C   UNL     1      -1.156  -0.698   0.004  0.00  0.00    +0.036 A 
ATOM     23  C   UNL     1      -1.111  -2.113  -0.005  0.00  0.00    +0.257 A 
ATOM     24  O   UNL     1      -2.142  -2.761  -0.004  0.00  0.00    -0.267 OA
ATOM     25  N   UNL     1       0.084  -2.737  -0.014  0.00  0.00    -0.275 N 
ATOM     26  H   UNL     1       0.123  -3.706  -0.020  0.00  0.00    +0.173 HD
ATOM     27  C   UNL     1       1.224  -2.020  -0.016  0.00  0.00    +0.327 A 
ATOM     28  O   UNL     1       2.294  -2.597  -0.024  0.00  0.00    -0.247 OA
ATOM     29  N   UNL     1       1.194  -0.675  -0.013  0.00  0.00    -0.311 N 
ATOM     30  H   UNL     1       2.026  -0.177  -0.018  0.00  0.00    +0.170 HD
ENDBRANCH  19  22
ENDBRANCH  18  19
ENDBRANCH   1  18
TORSDOF 5
