REMARK  Name = ZINC57873621
REMARK  5 active torsions:
REMARK  status: ('A' for Active; 'I' for Inactive)
REMARK    1  A    between atoms: C_1  and  C_2
REMARK    2  A    between atoms: N_8  and  C_18
REMARK    3  A    between atoms: C_9  and  C_11
REMARK    4  A    between atoms: C_18  and  C_19
REMARK    5  A    between atoms: C_19  and  N_21
REMARK                            x       y       z     vdW  Elec       q    Type
REMARK                         _______ _______ _______ _____ _____    ______ ____
ROOT
ATOM      1  C   UNL     1      -0.176   1.409   0.370  0.00  0.00    +0.045 C 
ATOM      2  C   UNL     1      -0.088  -0.090   0.245  0.00  0.00    -0.030 A 
ATOM      3  C   UNL     1      -0.120  -0.688  -1.000  0.00  0.00    +0.036 A 
ATOM      4  C   UNL     1      -0.036  -2.083  -1.066  0.00  0.00    +0.109 A 
ATOM      5  C   UNL     1       0.077  -2.816   0.131  0.00  0.00    +0.161 A 
ATOM      6  N   UNL     1       0.103  -2.191   1.297  0.00  0.00    -0.235 NA
ATOM      7  C   UNL     1       0.031  -0.878   1.379  0.00  0.00    +0.116 A 
ATOM      8  N   UNL     1       0.140  -4.142  -0.240  0.00  0.00    -0.302 N 
ATOM      9  C   UNL     1       0.067  -4.188  -1.607  0.00  0.00    +0.143 A 
ATOM     10  N   UNL     1      -0.037  -2.973  -2.086  0.00  0.00    -0.226 NA
ENDROOT
BRANCH   9  11
ATOM     11  C   UNL     1       0.100  -5.423  -2.419  0.00  0.00    +0.018 A 
ATOM     12  C   UNL     1      -0.282  -6.642  -1.856  0.00  0.00    +0.013 A 
ATOM     13  C   UNL     1      -0.249  -7.791  -2.619  0.00  0.00    +0.021 A 
ATOM     14  C   UNL     1       0.162  -7.737  -3.940  0.00  0.00    +0.041 A 
ATOM     15  C   UNL     1       0.542  -6.530  -4.503  0.00  0.00    +0.021 A 
ATOM     16  C   UNL     1       0.508  -5.374  -3.753  0.00  0.00    +0.013 A 
ATOM     17 CL   UNL     1       0.201  -9.187  -4.894  0.00  0.00    -0.084 Cl
ENDBRANCH   9  11
BRANCH   8  18
ATOM     18  C   UNL     1       0.263  -5.290   0.662  0.00  0.00    +0.183 C 
BRANCH  18  19
ATOM     19  C   UNL     1      -1.104  -5.691   1.154  0.00  0.00    +0.066 C 
ATOM     20  S   UNL     1      -2.396  -4.883   0.671  0.00  0.00    -0.039 S 
BRANCH  19  21
ATOM     21  N   UNL     1      -1.237  -6.730   2.002  0.00  0.00    -0.354 N 
ATOM     22  H   UNL     1      -0.453  -7.221   2.295  0.00  0.00    +0.143 HD
ATOM     23  H   UNL     1      -2.117  -6.988   2.318  0.00  0.00    +0.143 HD
ENDBRANCH  19  21
ENDBRANCH  18  19
ENDBRANCH   8  18
TORSDOF 4
