REMARK  Name = ZINC17448534
REMARK  7 active torsions:
REMARK  status: ('A' for Active; 'I' for Inactive)
REMARK    1  A    between atoms: C_1  and  C_2
REMARK    2  A    between atoms: C_10  and  C_11
REMARK    3  A    between atoms: N_13  and  N_14
REMARK    4  A    between atoms: C_15  and  C_17
REMARK    5  A    between atoms: C_20  and  N_23
REMARK    6  A    between atoms: C_24  and  C_30
REMARK    7  A    between atoms: C_26  and  C_28
REMARK                            x       y       z     vdW  Elec       q    Type
REMARK                         _______ _______ _______ _____ _____    ______ ____
ROOT
ATOM      1  N   UNL     1      -4.487  -4.556  -0.652  0.00  0.00    -0.230 N 
ATOM      2  C   UNL     1      -4.515  -3.391   0.025  0.00  0.00    +0.260 C 
ATOM      3  O   UNL     1      -5.513  -3.069   0.639  0.00  0.00    -0.269 OA
ATOM      4  H   UNL     1      -3.691  -4.813  -1.143  0.00  0.00    +0.173 HD
ENDROOT
BRANCH   2   5
ATOM      5  C   UNL     1      -3.333  -2.506   0.019  0.00  0.00    +0.038 A 
ATOM      6  C   UNL     1      -3.361  -1.297   0.720  0.00  0.00    +0.015 A 
ATOM      7  C   UNL     1      -2.257  -0.474   0.713  0.00  0.00    +0.028 A 
ATOM      8  C   UNL     1      -1.116  -0.843   0.008  0.00  0.00    +0.066 A 
ATOM      9  C   UNL     1      -1.087  -2.042  -0.695  0.00  0.00    +0.028 A 
ATOM     10  C   UNL     1      -2.186  -2.874  -0.687  0.00  0.00    +0.015 A 
BRANCH   8  11
ATOM     11  N   UNL     1       0.002  -0.004   0.002  0.00  0.00    -0.235 N 
ATOM     12  C   UNL     1       1.302  -0.402  -0.013  0.00  0.00    +0.060 A 
ATOM     13  C   UNL     1       2.071   0.712  -0.014  0.00  0.00    +0.085 A 
ATOM     14  C   UNL     1       1.220   1.824   0.000  0.00  0.00    +0.079 A 
ATOM     15  N   UNL     1      -0.017   1.397   0.010  0.00  0.00    -0.170 NA
ATOM     16  C   UNL     1       1.654   3.267   0.003  0.00  0.00    +0.069 C 
ATOM     17 CL   UNL     1       3.806   0.755  -0.030  0.00  0.00    -0.080 Cl
ATOM     18  C   UNL     1       1.797  -1.825  -0.025  0.00  0.00    +0.067 C 
ENDBRANCH   8  11
ENDBRANCH   2   5
BRANCH   1  21
ATOM     19  C   UNL     1      -5.580  -6.562  -1.324  0.00  0.00    +0.296 C 
ATOM     20  O   UNL     1      -4.581  -6.884  -1.939  0.00  0.00    -0.265 OA
ATOM     21  N   UNL     1      -5.608  -5.396  -0.647  0.00  0.00    -0.228 N 
ATOM     22  H   UNL     1      -6.404  -5.140  -0.157  0.00  0.00    +0.173 HD
BRANCH  19  32
ATOM     23  C   UNL     1      -5.778  -9.287  -2.808  0.00  0.00    +0.048 C 
ATOM     24  C   UNL     1      -6.844  -8.633  -1.967  0.00  0.00    +0.008 A 
ATOM     25  C   UNL     1      -8.180  -9.154  -1.679  0.00  0.00    +0.024 A 
ATOM     26  C   UNL     1      -8.872 -10.312  -2.040  0.00  0.00    +0.012 A 
ATOM     27  C   UNL     1     -10.150 -10.503  -1.597  0.00  0.00    +0.001 A 
ATOM     28  C   UNL     1     -10.764  -9.554  -0.791  0.00  0.00    +0.004 A 
ATOM     29  C   UNL     1     -10.099  -8.405  -0.423  0.00  0.00    +0.047 A 
ATOM     30  C   UNL     1      -8.797  -8.188  -0.862  0.00  0.00    +0.136 A 
ATOM     31  O   UNL     1      -7.914  -7.189  -0.674  0.00  0.00    -0.450 OA
ATOM     32  C   UNL     1      -6.756  -7.443  -1.319  0.00  0.00    +0.195 A 
ENDBRANCH  19  32
ENDBRANCH   1  21
TORSDOF 4
