REMARK  Name = ZINC19557549
REMARK  3 active torsions:
REMARK  status: ('A' for Active; 'I' for Inactive)
REMARK    1  A    between atoms: C_1  and  C_2
REMARK    2  A    between atoms: C_3  and  C_21
REMARK    3  A    between atoms: C_10  and  O_11
REMARK                            x       y       z     vdW  Elec       q    Type
REMARK                         _______ _______ _______ _____ _____    ______ ____
ROOT
ATOM      1  C   UNL     1      -0.018   1.503   0.010  0.00  0.00    +0.049 C 
ATOM      2  C   UNL     1       0.002  -0.004   0.002  0.00  0.00    +0.018 A 
ATOM      3  C   UNL     1       0.009  -0.827  -1.140  0.00  0.00    +0.105 A 
ATOM      4  N   UNL     1       0.027  -2.085  -0.744  0.00  0.00    -0.161 NA
ATOM      5  N   UNL     1       0.033  -2.106   0.657  0.00  0.00    -0.185 N 
ATOM      6  C   UNL     1       0.023  -0.811   1.097  0.00  0.00    +0.133 A 
ATOM      7  N   UNL     1       0.033  -0.534   2.451  0.00  0.00    -0.297 N 
ATOM      8  C   UNL     1       0.055  -1.556   3.358  0.00  0.00    +0.065 C 
ATOM      9  C   UNL     1       0.069  -2.877   2.911  0.00  0.00    +0.092 C 
ATOM     10  C   UNL     1       0.051  -3.140   1.558  0.00  0.00    +0.217 C 
ATOM     11  C   UNL     1       0.065  -1.264   4.796  0.00  0.00    +0.110 C 
ATOM     12  C   UNL     1       0.048   0.004   5.398  0.00  0.00    +0.002 C 
ATOM     13  C   UNL     1       0.067  -0.225   6.745  0.00  0.00    +0.040 C 
ATOM     14  N   UNL     1       0.093  -1.542   6.923  0.00  0.00    -0.281 N 
ATOM     15  H   UNL     1       0.110  -1.981   7.788  0.00  0.00    +0.189 HD
ATOM     16  N   UNL     1       0.086  -2.155   5.794  0.00  0.00    -0.172 NA
ATOM     17  C   UNL     1       0.050   1.091   7.490  0.00  0.00    +0.055 C 
ATOM     18  C   UNL     1       0.454   2.152   6.444  0.00  0.00    +0.011 C 
ATOM     19  C   UNL     1       0.018   1.487   5.119  0.00  0.00    +0.039 C 
ATOM     20  H   UNL     1       0.023   0.386   2.757  0.00  0.00    +0.154 HD
ENDROOT
BRANCH   3  21
ATOM     21  C   UNL     1      -0.004  -0.361  -2.542  0.00  0.00    +0.040 A 
ATOM     22  C   UNL     1       0.604  -0.910  -3.640  0.00  0.00    +0.018 A 
ATOM     23  C   UNL     1       0.450  -0.292  -4.861  0.00  0.00    +0.008 A 
ATOM     24  C   UNL     1      -0.298   0.838  -4.941  0.00  0.00    +0.046 A 
ATOM     25  S   UNL     1      -0.822   1.060  -3.249  0.00  0.00    -0.095 S 
ENDBRANCH   3  21
BRANCH  10  26
ATOM     26  O   UNL     1       0.067  -4.416   1.120  0.00  0.00    -0.492 OA
ATOM     27  H   UNL     1       0.078  -5.075   1.827  0.00  0.00    +0.294 HD
ENDBRANCH  10  26
TORSDOF 2
