REMARK  Name = ZINC08700600
REMARK  9 active torsions:
REMARK  status: ('A' for Active; 'I' for Inactive)
REMARK    1  A    between atoms: C_13  and  C_14
REMARK    2  A    between atoms: C_14  and  O_15
REMARK    3  A    between atoms: O_15  and  C_16
REMARK    4  A    between atoms: N_18  and  C_19
REMARK    5  A    between atoms: C_19  and  C_21
REMARK    6  A    between atoms: C_19  and  C_31
REMARK    7  A    between atoms: C_26  and  C_27
REMARK    8  A    between atoms: C_31  and  C_33
REMARK    9  A    between atoms: C_31  and  O_35
REMARK                            x       y       z     vdW  Elec       q    Type
REMARK                         _______ _______ _______ _____ _____    ______ ____
ROOT
ATOM      1  C   UNL     1      -2.474   6.546  -2.106  0.00  0.00    +0.401 C 
ATOM      2  O   UNL     1      -1.827   6.808  -3.101  0.00  0.00    -0.226 OA
ATOM      3  N   UNL     1      -3.816   6.671  -2.123  0.00  0.00    -0.271 N 
ATOM      4  H   UNL     1      -4.332   6.462  -1.329  0.00  0.00    +0.153 HD
ENDROOT
BRANCH   1   5
ATOM      5  O   UNL     1      -1.850   6.131  -0.988  0.00  0.00    -0.449 OA
BRANCH   5   6
ATOM      6  C   UNL     1      -0.404   6.020  -1.042  0.00  0.00    +0.246 C 
BRANCH   6  19
ATOM      7  C   UNL     1      -0.491   1.387   1.014  0.00  0.00    +0.001 A 
ATOM      8  C   UNL     1      -1.636   2.152   0.880  0.00  0.00    +0.000 A 
ATOM      9  C   UNL     1      -1.538   3.514   0.655  0.00  0.00    +0.005 A 
ATOM     10  C   UNL     1      -0.299   4.109   0.554  0.00  0.00    -0.029 A 
ATOM     11  C   UNL     1       0.859   3.348   0.682  0.00  0.00    -0.014 A 
ATOM     12  C   UNL     1       0.753   1.975   0.915  0.00  0.00    +0.009 A 
ATOM     13  C   UNL     1       2.047   4.224   0.533  0.00  0.00    -0.014 A 
ATOM     14  C   UNL     1       3.413   3.939   0.580  0.00  0.00    +0.009 A 
ATOM     15  C   UNL     1       4.335   4.950   0.408  0.00  0.00    +0.001 A 
ATOM     16  C   UNL     1       3.912   6.249   0.189  0.00  0.00    +0.000 A 
ATOM     17  C   UNL     1       2.560   6.539   0.141  0.00  0.00    +0.005 A 
ATOM     18  C   UNL     1       1.631   5.534   0.311  0.00  0.00    -0.029 A 
ATOM     19  C   UNL     1       0.122   5.538   0.312  0.00  0.00    +0.088 C 
ENDBRANCH   6  19
ENDBRANCH   5   6
ENDBRANCH   1   5
BRANCH   3  20
ATOM     20  C   UNL     1      -4.495   7.122  -3.340  0.00  0.00    +0.147 C 
BRANCH  20  21
ATOM     21  C   UNL     1      -5.914   6.616  -3.341  0.00  0.00    -0.012 A 
ATOM     22  C   UNL     1      -6.952   7.467  -3.009  0.00  0.00    +0.006 A 
ATOM     23  C   UNL     1      -8.253   7.003  -3.010  0.00  0.00    +0.000 A 
ATOM     24  C   UNL     1      -8.518   5.688  -3.344  0.00  0.00    +0.001 A 
ATOM     25  C   UNL     1      -7.481   4.837  -3.676  0.00  0.00    +0.013 A 
ATOM     26  C   UNL     1      -6.179   5.302  -3.680  0.00  0.00    +0.060 A 
BRANCH  26  27
ATOM     27  C   UNL     1      -5.048   4.376  -4.048  0.00  0.00    +0.418 C 
ATOM     28  F   UNL     1      -5.553   3.091  -4.273  0.00  0.00    -0.166 F 
ATOM     29  F   UNL     1      -4.423   4.842  -5.209  0.00  0.00    -0.166 F 
ATOM     30  F   UNL     1      -4.120   4.336  -3.002  0.00  0.00    -0.166 F 
ENDBRANCH  26  27
ENDBRANCH  20  21
BRANCH  20  31
ATOM     31  C   UNL     1      -4.498   8.652  -3.385  0.00  0.00    +0.252 C 
BRANCH  31  32
ATOM     32  C   UNL     1      -3.088   9.162  -3.242  0.00  0.00    +0.386 C 
ATOM     33  O   UNL     1      -2.564   9.755  -4.155  0.00  0.00    -0.243 OA
ATOM     34  O   UNL     1      -2.413   8.957  -2.100  0.00  0.00    -0.243 OA
ENDBRANCH  31  32
BRANCH  31  35
ATOM     35  O   UNL     1      -5.040   9.091  -4.632  0.00  0.00    -0.379 OA
ATOM     36  H   UNL     1      -5.971   8.864  -4.758  0.00  0.00    +0.211 HD
ENDBRANCH  31  35
ENDBRANCH  20  31
ENDBRANCH   3  20
TORSDOF 9
