REMARK  Name = ZINC64950237
REMARK  8 active torsions:
REMARK  status: ('A' for Active; 'I' for Inactive)
REMARK    1  A    between atoms: C_1  and  N_2
REMARK    2  A    between atoms: C_7  and  C_14
REMARK    3  A    between atoms: N_10  and  C_13
REMARK    4  A    between atoms: N_16  and  C_17
REMARK    5  A    between atoms: C_20  and  O_25
REMARK    6  A    between atoms: C_22  and  O_23
REMARK    7  A    between atoms: O_23  and  C_24
REMARK    8  A    between atoms: O_25  and  C_26
REMARK                            x       y       z     vdW  Elec       q    Type
REMARK                         _______ _______ _______ _____ _____    ______ ____
ROOT
ATOM      1  C   UNL     1       0.071  -5.458  -2.971  0.00  0.00    +0.255 C 
ATOM      2  O   UNL     1       0.058  -5.242  -4.169  0.00  0.00    -0.269 OA
ATOM      3  N   UNL     1       0.085  -6.727  -2.515  0.00  0.00    -0.278 N 
ATOM      4  H   UNL     1       0.160  -6.899  -1.564  0.00  0.00    +0.155 HD
ENDROOT
BRANCH   1  11
ATOM      5  C   UNL     1       0.049   1.462   0.006  0.00  0.00    +0.157 C 
ATOM      6  N   UNL     1       0.059  -0.002  -0.001  0.00  0.00    -0.263 N 
ATOM      7  C   UNL     1       0.053  -0.650  -1.179  0.00  0.00    +0.265 A 
ATOM      8  O   UNL     1       0.039  -0.028  -2.225  0.00  0.00    -0.267 OA
ATOM      9  C   UNL     1       0.063  -2.134  -1.189  0.00  0.00    +0.071 A 
ATOM     10  C   UNL     1       0.060  -3.001  -2.289  0.00  0.00    +0.036 A 
ATOM     11  C   UNL     1       0.072  -4.340  -2.025  0.00  0.00    +0.077 A 
ATOM     12  S   UNL     1       0.088  -4.389  -0.245  0.00  0.00    -0.066 S 
ATOM     13  C   UNL     1       0.079  -2.748   0.071  0.00  0.00    +0.097 A 
ATOM     14  N   UNL     1       0.084  -2.006   1.218  0.00  0.00    -0.290 N 
ATOM     15  C   UNL     1       0.080  -0.661   1.169  0.00  0.00    +0.332 A 
ATOM     16  O   UNL     1       0.089  -0.028   2.207  0.00  0.00    -0.246 OA
ATOM     17  C   UNL     1       0.101  -2.682   2.518  0.00  0.00    +0.154 C 
ENDBRANCH   1  11
BRANCH   3  18
ATOM     18  C   UNL     1      -0.011  -7.797  -3.417  0.00  0.00    +0.077 A 
ATOM     19  C   UNL     1       0.573  -7.702  -4.672  0.00  0.00    +0.050 A 
ATOM     20  C   UNL     1       0.478  -8.757  -5.560  0.00  0.00    +0.084 A 
ATOM     21  C   UNL     1      -0.200  -9.913  -5.198  0.00  0.00    +0.142 A 
ATOM     22  C   UNL     1      -0.784 -10.012  -3.945  0.00  0.00    +0.094 A 
ATOM     23  C   UNL     1      -0.686  -8.959  -3.050  0.00  0.00    +0.145 A 
ATOM     24 CL   UNL     1       1.208  -8.636  -7.130  0.00  0.00    -0.080 Cl
BRANCH  23  25
ATOM     25  O   UNL     1      -1.254  -9.057  -1.818  0.00  0.00    -0.493 OA
ATOM     26  C   UNL     1      -1.930 -10.277  -1.511  0.00  0.00    +0.277 C 
ENDBRANCH  23  25
BRANCH  21  27
ATOM     27  O   UNL     1      -0.291 -10.949  -6.074  0.00  0.00    -0.494 OA
ATOM     28  C   UNL     1      -1.003 -12.108  -5.636  0.00  0.00    +0.277 C 
ENDBRANCH  21  27
ENDBRANCH   3  18
TORSDOF 4
