REMARK  Name = ZINC09873945
REMARK  11 active torsions:
REMARK  status: ('A' for Active; 'I' for Inactive)
REMARK    1  A    between atoms: C_1  and  C_2
REMARK    2  A    between atoms: C_2  and  C_4
REMARK    3  A    between atoms: C_2  and  S_17
REMARK    4  A    between atoms: C_4  and  C_6
REMARK    5  A    between atoms: C_7  and  N_16
REMARK    6  A    between atoms: N_8  and  C_15
REMARK    7  A    between atoms: N_11  and  C_14
REMARK    8  A    between atoms: S_17  and  C_18
REMARK    9  A    between atoms: C_21  and  C_29
REMARK   10  A    between atoms: N_22  and  C_23
REMARK   11  A    between atoms: C_29  and  N_60
REMARK                            x       y       z     vdW  Elec       q    Type
REMARK                         _______ _______ _______ _____ _____    ______ ____
ROOT
ATOM      1  S   UNL     1      -4.067   2.535   3.710  0.00  0.00    -0.075 S 
ENDROOT
BRANCH   1   2
ATOM      2  C   UNL     1      -2.888   2.927   2.461  0.00  0.00    +0.197 A 
ATOM      3  N   UNL     1      -1.949   3.842   2.533  0.00  0.00    -0.122 NA
ATOM      4  N   UNL     1      -1.265   3.854   1.444  0.00  0.00    -0.135 NA
ATOM      5  C   UNL     1      -1.727   2.962   0.615  0.00  0.00    +0.122 A 
ATOM      6  N   UNL     1      -2.776   2.334   1.233  0.00  0.00    -0.276 N 
BRANCH   6   7
ATOM      7  C   UNL     1      -3.570   1.301   0.715  0.00  0.00    +0.050 A 
ATOM      8  C   UNL     1      -4.383   1.533  -0.385  0.00  0.00    +0.026 A 
ATOM      9  C   UNL     1      -5.160   0.511  -0.897  0.00  0.00    +0.002 A 
ATOM     10  C   UNL     1      -5.136  -0.739  -0.306  0.00  0.00    +0.000 A 
ATOM     11  C   UNL     1      -4.331  -0.972   0.794  0.00  0.00    +0.002 A 
ATOM     12  C   UNL     1      -3.548   0.045   1.306  0.00  0.00    +0.026 A 
ENDBRANCH   6   7
BRANCH   5  13
ATOM     13  C   UNL     1      -1.200   2.669  -0.767  0.00  0.00    -0.001 C 
BRANCH  13  18
ATOM     14  C   UNL     1      -1.845   4.942  -1.355  0.00  0.00    -0.078 C 
ATOM     15  C   UNL     1      -2.131   5.684  -2.685  0.00  0.00    -0.020 C 
ATOM     16  C   UNL     1      -1.397   4.814  -3.731  0.00  0.00    -0.020 C 
ATOM     17  C   UNL     1      -1.254   3.429  -3.074  0.00  0.00    -0.078 C 
ATOM     18  N   UNL     1      -1.903   3.530  -1.766  0.00  0.00    +0.384 N 
ATOM     19  H   UNL     1      -2.882   3.230  -1.839  0.00  0.00    -0.081 HD
ENDBRANCH  13  18
ENDBRANCH   5  13
ENDBRANCH   1   2
BRANCH   1  21
ATOM     20  C   UNL     1      -3.816   5.143   4.485  0.00  0.00    +0.028 C 
ATOM     21  C   UNL     1      -3.575   3.719   4.989  0.00  0.00    +0.122 C 
BRANCH  21  22
ATOM     22  C   UNL     1      -4.391   3.481   6.233  0.00  0.00    +0.185 C 
ATOM     23  O   UNL     1      -5.484   2.957   6.153  0.00  0.00    -0.291 OA
BRANCH  22  24
ATOM     24  C   UNL     1      -3.885   3.867   7.493  0.00  0.00    +0.121 A 
ATOM     25  C   UNL     1      -4.567   3.544   8.679  0.00  0.00    +0.116 A 
ATOM     26  N   UNL     1      -4.035   3.935   9.874  0.00  0.00    -0.284 N 
ATOM     27  C   UNL     1      -2.886   4.626   9.934  0.00  0.00    +0.333 A 
ATOM     28  O   UNL     1      -2.456   4.955  11.022  0.00  0.00    -0.246 OA
ATOM     29  N   UNL     1      -2.193   4.967   8.835  0.00  0.00    -0.263 N 
ATOM     30  C   UNL     1      -2.631   4.624   7.606  0.00  0.00    +0.269 A 
ATOM     31  O   UNL     1      -2.001   4.935   6.612  0.00  0.00    -0.267 OA
ATOM     32  C   UNL     1      -0.945   5.723   8.973  0.00  0.00    +0.157 C 
ATOM     33  C   UNL     1      -4.736   3.599  11.116  0.00  0.00    +0.155 C 
BRANCH  25  34
ATOM     34  N   UNL     1      -5.736   2.849   8.636  0.00  0.00    -0.344 N 
ATOM     35  H   UNL     1      -5.939   2.287   7.872  0.00  0.00    +0.144 HD
ATOM     36  H   UNL     1      -6.367   2.916   9.370  0.00  0.00    +0.144 HD
ENDBRANCH  25  34
ENDBRANCH  22  24
ENDBRANCH  21  22
ENDBRANCH   1  21
TORSDOF 8
