REMARK  Name = ZINC49979321
REMARK  7 active torsions:
REMARK  status: ('A' for Active; 'I' for Inactive)
REMARK    1  A    between atoms: C_1  and  C_2
REMARK    2  A    between atoms: C_2  and  C_3
REMARK    3  A    between atoms: C_6  and  N_9
REMARK    4  A    between atoms: N_9  and  C_10
REMARK    5  A    between atoms: C_14  and  N_19
REMARK    6  A    between atoms: C_15  and  O_17
REMARK    7  A    between atoms: O_17  and  C_18
REMARK                            x       y       z     vdW  Elec       q    Type
REMARK                         _______ _______ _______ _____ _____    ______ ____
ROOT
ATOM      1  N   UNL     1       2.745  -1.884   4.596  0.00  0.00    -0.288 N 
ATOM      2  C   UNL     1       4.171  -2.208   4.516  0.00  0.00    +0.137 C 
ATOM      3  C   UNL     1       2.062  -2.038   5.801  0.00  0.00    +0.129 A 
ATOM      4  C   UNL     1       1.540  -3.280   6.140  0.00  0.00    +0.046 A 
ATOM      5  C   UNL     1       0.862  -3.426   7.339  0.00  0.00    +0.031 A 
ATOM      6  C   UNL     1       0.728  -2.316   8.165  0.00  0.00    +0.087 A 
ATOM      7  C   UNL     1       1.277  -1.100   7.762  0.00  0.00    +0.238 A 
ATOM      8  N   UNL     1       1.922  -1.000   6.612  0.00  0.00    -0.196 NA
ENDROOT
BRANCH   1  12
ATOM      9  C   UNL     1       0.731  -0.504   1.223  0.00  0.00    -0.048 A 
ATOM     10  C   UNL     1       2.099  -0.699   1.177  0.00  0.00    +0.005 A 
ATOM     11  C   UNL     1       2.770  -1.157   2.294  0.00  0.00    +0.024 A 
ATOM     12  C   UNL     1       2.069  -1.421   3.464  0.00  0.00    +0.035 A 
ATOM     13  C   UNL     1       0.695  -1.223   3.506  0.00  0.00    +0.024 A 
ATOM     14  C   UNL     1       0.031  -0.760   2.388  0.00  0.00    +0.005 A 
BRANCH   9  16
ATOM     15  C   UNL     1      -0.030   1.525   0.017  0.00  0.00    +0.009 C 
ATOM     16  C   UNL     1       0.002  -0.005   0.002  0.00  0.00    +0.032 C 
ENDBRANCH   9  16
ENDBRANCH   1  12
BRANCH   6  17
ATOM     17  N   UNL     1       0.049  -2.418   9.389  0.00  0.00    -0.354 N 
ATOM     18  H   UNL     1      -0.331  -3.267   9.663  0.00  0.00    +0.142 HD
ATOM     19  H   UNL     1      -0.040  -1.639   9.960  0.00  0.00    +0.142 HD
ENDBRANCH   6  17
BRANCH   7  20
ATOM     20  O   UNL     1       1.153  -0.009   8.561  0.00  0.00    -0.478 OA
ATOM     21  C   UNL     1       1.737   1.208   8.092  0.00  0.00    +0.279 C 
ENDBRANCH   7  20
TORSDOF 4
