REMARK  Name = ZINC20804686
REMARK  6 active torsions:
REMARK  status: ('A' for Active; 'I' for Inactive)
REMARK    1  A    between atoms: C_1  and  C_2
REMARK    2  A    between atoms: C_7  and  N_8
REMARK    3  A    between atoms: C_9  and  C_11
REMARK    4  A    between atoms: C_12  and  C_29
REMARK    5  A    between atoms: C_16  and  C_28
REMARK    6  A    between atoms: C_19  and  C_21
REMARK                            x       y       z     vdW  Elec       q    Type
REMARK                         _______ _______ _______ _____ _____    ______ ____
ROOT
ATOM      1  C   UNL     1      -0.747   1.595  -1.204  0.00  0.00    +0.060 C 
ATOM      2  C   UNL     1      -0.267   2.562  -1.998  0.00  0.00    +0.018 C 
ATOM      3  N   UNL     1       0.939   3.176  -1.757  0.00  0.00    -0.287 N 
ATOM      4  C   UNL     1       1.777   2.591  -0.817  0.00  0.00    +0.219 A 
ATOM      5  N   UNL     1       3.035   2.817  -0.555  0.00  0.00    -0.198 NA
ATOM      6  C   UNL     1       3.438   2.009   0.431  0.00  0.00    +0.150 A 
ATOM      7  N   UNL     1       2.434   1.257   0.809  0.00  0.00    -0.153 NA
ATOM      8  N   UNL     1       1.343   1.615   0.019  0.00  0.00    -0.221 N 
ATOM      9  C   UNL     1      -0.024   1.102   0.021  0.00  0.00    +0.177 C 
ATOM     10  C   UNL     1       4.827   1.970   1.014  0.00  0.00    +0.090 C 
ATOM     11  C   UNL     1      -1.076   2.991  -3.194  0.00  0.00    +0.061 C 
ATOM     12  H   UNL     1       1.207   4.094  -2.301  0.00  0.00    +0.155 HD
ENDROOT
BRANCH   9  13
ATOM     13  C   UNL     1      -0.740   1.585   1.256  0.00  0.00    -0.016 A 
ATOM     14  C   UNL     1      -0.886   2.941   1.484  0.00  0.00    +0.006 A 
ATOM     15  C   UNL     1      -1.547   3.386   2.613  0.00  0.00    +0.003 A 
ATOM     16  C   UNL     1      -2.052   2.476   3.522  0.00  0.00    +0.038 A 
ATOM     17  C   UNL     1      -1.901   1.118   3.299  0.00  0.00    +0.124 A 
ATOM     18  C   UNL     1      -1.244   0.673   2.164  0.00  0.00    +0.044 A 
ATOM     19  F   UNL     1      -2.394   0.228   4.187  0.00  0.00    -0.205 F 
ENDBRANCH   9  13
BRANCH   1  21
ATOM     20  N   UNL     1      -2.504   0.033  -0.756  0.00  0.00    -0.281 N 
ATOM     21  C   UNL     1      -1.992   1.009  -1.532  0.00  0.00    +0.248 C 
ATOM     22  O   UNL     1      -2.601   1.386  -2.517  0.00  0.00    -0.270 OA
ATOM     23  H   UNL     1      -1.914  -0.371   0.080  0.00  0.00    +0.155 HD
BRANCH  20  30
ATOM     24  C   UNL     1      -3.121  -2.603   0.120  0.00  0.00    +0.045 C 
ATOM     25  C   UNL     1      -4.129  -1.746  -0.602  0.00  0.00    -0.029 A 
ATOM     26  C   UNL     1      -5.395  -2.235  -0.858  0.00  0.00    +0.005 A 
ATOM     27  C   UNL     1      -6.320  -1.450  -1.521  0.00  0.00    +0.000 A 
ATOM     28  C   UNL     1      -5.981  -0.174  -1.931  0.00  0.00    +0.002 A 
ATOM     29  C   UNL     1      -4.719   0.323  -1.674  0.00  0.00    +0.023 A 
ATOM     30  C   UNL     1      -3.785  -0.465  -1.013  0.00  0.00    +0.037 A 
ENDBRANCH  20  30
ENDBRANCH   1  21
TORSDOF 3
