REMARK  Name = ZINC39315449
REMARK  4 active torsions:
REMARK  status: ('A' for Active; 'I' for Inactive)
REMARK    1  A    between atoms: C_4  and  C_27
REMARK    2  A    between atoms: C_5  and  C_7
REMARK    3  A    between atoms: C_22  and  N_26
REMARK    4  A    between atoms: C_23  and  C_24
REMARK                            x       y       z     vdW  Elec       q    Type
REMARK                         _______ _______ _______ _____ _____    ______ ____
ROOT
ATOM      1  C   UNL     1       1.229  -2.186  -0.020  0.00  0.00    +0.084 C 
ATOM      2  C   UNL     1       0.529  -2.712   1.237  0.00  0.00    +0.154 C 
ATOM      3  C   UNL     1      -0.957  -2.532   0.976  0.00  0.00    +0.129 C 
ATOM      4  C   UNL     1      -1.681  -1.737   1.852  0.00  0.00    +0.035 A 
ATOM      5  C   UNL     1      -3.067  -1.538   1.687  0.00  0.00    +0.013 A 
ATOM      6  C   UNL     1      -3.744  -0.756   2.571  0.00  0.00    +0.001 A 
ATOM      7  C   UNL     1      -3.097  -0.144   3.640  0.00  0.00    +0.002 A 
ATOM      8  C   UNL     1      -1.759  -0.296   3.851  0.00  0.00    +0.024 A 
ATOM      9  C   UNL     1      -0.996  -1.088   2.977  0.00  0.00    +0.044 A 
ATOM     10  N   UNL     1       0.320  -1.230   3.180  0.00  0.00    -0.284 N 
ATOM     11  C   UNL     1       1.121  -1.979   2.420  0.00  0.00    +0.229 C 
ATOM     12  O   UNL     1       2.311  -2.070   2.660  0.00  0.00    -0.275 OA
ATOM     13  O   UNL     1      -1.495  -3.132  -0.087  0.00  0.00    -0.444 OA
ATOM     14  C   UNL     1      -0.764  -3.114  -1.228  0.00  0.00    +0.198 C 
ATOM     15  C   UNL     1       0.516  -2.689  -1.246  0.00  0.00    +0.095 C 
ATOM     16  H   UNL     1       0.719  -0.765   3.932  0.00  0.00    +0.155 HD
ENDROOT
BRANCH   1  21
ATOM     17  C   UNL     1      -0.017   1.378   0.010  0.00  0.00    +0.000 A 
ATOM     18  C   UNL     1       1.171   2.085   0.002  0.00  0.00    +0.001 A 
ATOM     19  C   UNL     1       2.377   1.411  -0.013  0.00  0.00    +0.012 A 
ATOM     20  C   UNL     1       2.396   0.028  -0.020  0.00  0.00    +0.059 A 
ATOM     21  C   UNL     1       1.209  -0.679  -0.012  0.00  0.00    -0.026 A 
ATOM     22  C   UNL     1       0.002  -0.004   0.002  0.00  0.00    +0.005 A 
BRANCH  20  23
ATOM     23  C   UNL     1       3.711  -0.707  -0.038  0.00  0.00    +0.418 C 
ATOM     24  F   UNL     1       4.762   0.216  -0.044  0.00  0.00    -0.166 F 
ATOM     25  F   UNL     1       3.808  -1.516   1.100  0.00  0.00    -0.166 F 
ATOM     26  F   UNL     1       3.784  -1.505  -1.185  0.00  0.00    -0.166 F 
ENDBRANCH  20  23
ENDBRANCH   1  21
BRANCH  14  27
ATOM     27  N   UNL     1      -1.343  -3.541  -2.397  0.00  0.00    -0.328 N 
ATOM     28  H   UNL     1      -2.262  -3.850  -2.399  0.00  0.00    +0.145 HD
ATOM     29  H   UNL     1      -0.832  -3.534  -3.222  0.00  0.00    +0.145 HD
ENDBRANCH  14  27
BRANCH  15  30
ATOM     30  C   UNL     1       1.228  -2.717  -2.488  0.00  0.00    +0.100 C 
ATOM     31  N   UNL     1       1.792  -2.740  -3.474  0.00  0.00    -0.191 NA
ENDBRANCH  15  30
TORSDOF 4
