REMARK  Name = ZINC28462387
REMARK  10 active torsions:
REMARK  status: ('A' for Active; 'I' for Inactive)
REMARK    1  A    between atoms: C_1  and  C_2
REMARK    2  A    between atoms: C_2  and  C_3
REMARK    3  A    between atoms: C_3  and  O_4
REMARK    4  A    between atoms: O_4  and  C_5
REMARK    5  A    between atoms: C_8  and  C_13
REMARK    6  A    between atoms: C_9  and  O_12
REMARK    7  A    between atoms: C_10  and  C_11
REMARK    8  A    between atoms: C_16  and  C_25
REMARK    9  A    between atoms: C_17  and  C_19
REMARK   10  A    between atoms: C_22  and  C_24
REMARK                            x       y       z     vdW  Elec       q    Type
REMARK                         _______ _______ _______ _____ _____    ______ ____
ROOT
ATOM      1  C   UNL     1       1.341  -2.529  -2.321  0.00  0.00    +0.127 A 
ATOM      2  C   UNL     1       1.908  -1.754  -3.329  0.00  0.00    +0.047 A 
ATOM      3  C   UNL     1       2.521  -2.356  -4.403  0.00  0.00    +0.017 A 
ATOM      4  C   UNL     1       2.575  -3.753  -4.485  0.00  0.00    +0.041 A 
ATOM      5  C   UNL     1       2.002  -4.532  -3.466  0.00  0.00    +0.132 A 
ATOM      6  C   UNL     1       1.393  -3.913  -2.389  0.00  0.00    +0.033 A 
ATOM      7  C   UNL     1       0.782  -4.745  -1.290  0.00  0.00    +0.051 C 
ENDROOT
BRANCH   4   8
ATOM      8  C   UNL     1       3.227  -4.399  -5.630  0.00  0.00    +0.089 C 
ATOM      9  N   UNL     1       3.350  -5.682  -5.846  0.00  0.00    -0.153 NA
ATOM     10  N   UNL     1       4.025  -5.952  -7.032  0.00  0.00    -0.158 NA
ATOM     11  C   UNL     1       4.380  -4.876  -7.656  0.00  0.00    +0.053 C 
ATOM     12  C   UNL     1       3.892  -3.717  -6.809  0.00  0.00    +0.135 C 
ATOM     13  C   UNL     1       5.125  -4.792  -8.963  0.00  0.00    +0.064 C 
BRANCH  12  14
ATOM     14  C   UNL     1       2.895  -2.883  -7.572  0.00  0.00    +0.063 A 
ATOM     15  C   UNL     1       2.099  -3.426  -8.528  0.00  0.00    +0.071 A 
ATOM     16  S   UNL     1       1.174  -1.988  -9.042  0.00  0.00    -0.081 S 
ATOM     17  C   UNL     1       1.887  -0.872  -8.004  0.00  0.00    +0.076 A 
ATOM     18  N   UNL     1       2.752  -1.594  -7.336  0.00  0.00    -0.248 NA
ATOM     19  C   UNL     1       1.597   0.601  -7.870  0.00  0.00    +0.073 C 
ENDBRANCH  12  14
ENDBRANCH   4   8
BRANCH   5  20
ATOM     20  O   UNL     1       2.049  -5.887  -3.537  0.00  0.00    -0.506 OA
ATOM     21  H   UNL     1       2.831  -6.275  -3.122  0.00  0.00    +0.292 HD
ENDBRANCH   5  20
BRANCH   1  22
ATOM     22  O   UNL     1       0.738  -1.926  -1.265  0.00  0.00    -0.492 OA
BRANCH  22  23
ATOM     23  C   UNL     1       0.718  -0.497  -1.257  0.00  0.00    +0.229 C 
BRANCH  23  25
ATOM     24  C   UNL     1      -0.019   1.526   0.010  0.00  0.00    +0.007 C 
ATOM     25  C   UNL     1       0.002  -0.004   0.002  0.00  0.00    +0.038 C 
ENDBRANCH  23  25
ENDBRANCH  22  23
ENDBRANCH   1  22
TORSDOF 6
