REMARK  Name = ZINC56762490
REMARK  10 active torsions:
REMARK  status: ('A' for Active; 'I' for Inactive)
REMARK    1  A    between atoms: C_1  and  C_2
REMARK    2  A    between atoms: C_2  and  C_4
REMARK    3  A    between atoms: C_2  and  N_12
REMARK    4  A    between atoms: C_4  and  C_5
REMARK    5  A    between atoms: C_8  and  O_11
REMARK    6  A    between atoms: N_15  and  N_16
REMARK    7  A    between atoms: C_17  and  C_19
REMARK    8  A    between atoms: C_19  and  C_20
REMARK    9  A    between atoms: C_20  and  S_21
REMARK   10  A    between atoms: S_21  and  C_22
REMARK                            x       y       z     vdW  Elec       q    Type
REMARK                         _______ _______ _______ _____ _____    ______ ____
ROOT
ATOM      1  N   UNL     1      -1.372  -0.511   0.012  0.00  0.00    -0.295 N 
ATOM      2  C   UNL     1      -2.051  -0.643  -1.145  0.00  0.00    +0.316 C 
ATOM      3  O   UNL     1      -1.522  -0.341  -2.197  0.00  0.00    -0.251 OA
ATOM      4  N   UNL     1      -3.315  -1.109  -1.135  0.00  0.00    -0.218 N 
ATOM      5  H   UNL     1      -1.794  -0.752   0.852  0.00  0.00    +0.151 HD
ATOM      6  H   UNL     1      -3.804  -1.204  -1.968  0.00  0.00    +0.174 HD
ENDROOT
BRANCH   4   7
ATOM      7  N   UNL     1      -3.924  -1.457   0.078  0.00  0.00    -0.233 N 
ATOM      8  C   UNL     1      -5.189  -1.924   0.087  0.00  0.00    +0.230 C 
ATOM      9  O   UNL     1      -5.799  -2.042  -0.954  0.00  0.00    -0.274 OA
ATOM     10  H   UNL     1      -3.436  -1.363   0.910  0.00  0.00    +0.173 HD
BRANCH   8  11
ATOM     11  C   UNL     1      -5.844  -2.298   1.392  0.00  0.00    +0.108 C 
BRANCH  11  12
ATOM     12  C   UNL     1      -7.266  -2.795   1.124  0.00  0.00    +0.083 C 
BRANCH  12  13
ATOM     13  S   UNL     1      -8.055  -3.245   2.694  0.00  0.00    -0.125 S 
BRANCH  13  14
ATOM     14  C   UNL     1      -9.663  -3.789   2.223  0.00  0.00    +0.008 A 
ATOM     15  C   UNL     1     -10.031  -3.794   0.883  0.00  0.00    +0.017 A 
ATOM     16  C   UNL     1     -11.292  -4.221   0.516  0.00  0.00    +0.039 A 
ATOM     17  C   UNL     1     -12.189  -4.645   1.482  0.00  0.00    +0.123 A 
ATOM     18  C   UNL     1     -11.825  -4.641   2.818  0.00  0.00    +0.039 A 
ATOM     19  C   UNL     1     -10.563  -4.220   3.190  0.00  0.00    +0.017 A 
ATOM     20  F   UNL     1     -13.422  -5.062   1.121  0.00  0.00    -0.205 F 
ENDBRANCH  13  14
ENDBRANCH  12  13
ENDBRANCH  11  12
ENDBRANCH   8  11
ENDBRANCH   4   7
BRANCH   1  22
ATOM     21  C   UNL     1      -0.019   1.526   0.010  0.00  0.00    +0.028 C 
ATOM     22  C   UNL     1       0.002  -0.004   0.002  0.00  0.00    +0.076 C 
BRANCH  22  23
ATOM     23  C   UNL     1       0.742  -0.511   1.242  0.00  0.00    +0.057 C 
BRANCH  23  24
ATOM     24  C   UNL     1       0.870  -2.011   1.172  0.00  0.00    -0.045 A 
ATOM     25  C   UNL     1      -0.118  -2.814   1.711  0.00  0.00    +0.007 A 
ATOM     26  C   UNL     1      -0.003  -4.189   1.649  0.00  0.00    +0.045 A 
ATOM     27  C   UNL     1       1.105  -4.764   1.044  0.00  0.00    +0.117 A 
ATOM     28  C   UNL     1       2.095  -3.957   0.504  0.00  0.00    +0.045 A 
ATOM     29  C   UNL     1       1.973  -2.582   0.564  0.00  0.00    +0.007 A 
BRANCH  27  30
ATOM     30  O   UNL     1       1.221  -6.117   0.983  0.00  0.00    -0.507 OA
ATOM     31  H   UNL     1       0.831  -6.509   0.189  0.00  0.00    +0.292 HD
ENDBRANCH  27  30
ENDBRANCH  23  24
ENDBRANCH  22  23
ENDBRANCH   1  22
TORSDOF 9
