REMARK  Name = ZINC12859963
REMARK  10 active torsions:
REMARK  status: ('A' for Active; 'I' for Inactive)
REMARK    1  A    between atoms: C_1  and  C_2
REMARK    2  A    between atoms: C_2  and  C_3
REMARK    3  A    between atoms: C_6  and  C_9
REMARK    4  A    between atoms: C_11  and  C_14
REMARK    5  A    between atoms: C_14  and  N_49
REMARK    6  A    between atoms: C_15  and  C_17
REMARK    7  A    between atoms: C_15  and  C_24
REMARK    8  A    between atoms: C_15  and  N_49
REMARK    9  A    between atoms: C_24  and  C_25
REMARK   10  A    between atoms: C_24  and  C_26
REMARK                            x       y       z     vdW  Elec       q    Type
REMARK                         _______ _______ _______ _____ _____    ______ ____
ROOT
ATOM      1  C   UNL     1      -4.592   0.739   1.196  0.00  0.00    +0.019 C 
ENDROOT
BRANCH   1   4
ATOM      2  C   UNL     1      -7.341   2.645   2.512  0.00  0.00    +0.202 A 
ATOM      3  N   UNL     1      -6.682   2.116   1.456  0.00  0.00    -0.193 NA
ATOM      4  C   UNL     1      -5.645   1.497   1.963  0.00  0.00    +0.211 A 
ATOM      5  O   UNL     1      -5.692   1.670   3.287  0.00  0.00    -0.340 OA
ATOM      6  N   UNL     1      -6.667   2.328   3.586  0.00  0.00    -0.056 NA
BRANCH   2  10
ATOM      7  C   UNL     1     -10.925   4.930   2.364  0.00  0.00    -0.048 A 
ATOM      8  C   UNL     1     -10.322   4.672   3.582  0.00  0.00    +0.004 A 
ATOM      9  C   UNL     1      -9.158   3.932   3.635  0.00  0.00    +0.012 A 
ATOM     10  C   UNL     1      -8.592   3.442   2.460  0.00  0.00    +0.022 A 
ATOM     11  C   UNL     1      -9.201   3.709   1.236  0.00  0.00    +0.012 A 
ATOM     12  C   UNL     1     -10.367   4.447   1.194  0.00  0.00    +0.004 A 
BRANCH   7  14
ATOM     13  C   UNL     1     -11.848   7.223   2.165  0.00  0.00    +0.009 C 
ATOM     14  C   UNL     1     -12.195   5.739   2.311  0.00  0.00    +0.032 C 
ENDBRANCH   7  14
ENDBRANCH   2  10
ENDBRANCH   1   4
BRANCH   1  15
ATOM     15  N   UNL     1      -3.504   1.664   0.826  0.00  0.00    +0.390 N 
ATOM     16  H   UNL     1      -3.037   1.996   1.678  0.00  0.00    -0.084 HD
ATOM     17  H   UNL     1      -3.898   2.464   0.317  0.00  0.00    -0.084 HD
BRANCH  15  18
ATOM     18  C   UNL     1      -2.519   0.979  -0.033  0.00  0.00    -0.038 C 
BRANCH  18  19
ATOM     19  C   UNL     1      -1.563   0.192   0.827  0.00  0.00    -0.061 A 
ATOM     20  C   UNL     1      -1.141  -1.060   0.421  0.00  0.00    +0.005 A 
ATOM     21  C   UNL     1      -0.260  -1.780   1.206  0.00  0.00    +0.038 A 
ATOM     22  C   UNL     1       0.195  -1.249   2.401  0.00  0.00    +0.123 A 
ATOM     23  C   UNL     1      -0.234   0.003   2.809  0.00  0.00    +0.038 A 
ATOM     24  C   UNL     1      -1.114   0.721   2.022  0.00  0.00    +0.005 A 
ATOM     25  F   UNL     1       1.056  -1.952   3.169  0.00  0.00    -0.205 F 
ENDBRANCH  18  19
BRANCH  18  26
ATOM     26  C   UNL     1      -1.742   2.022  -0.837  0.00  0.00    -0.027 C 
ATOM     27  C   UNL     1      -0.790   1.316  -1.804  0.00  0.00    +0.006 C 
ATOM     28  C   UNL     1      -2.722   2.890  -1.628  0.00  0.00    +0.006 C 
ENDBRANCH  18  26
ENDBRANCH  15  18
ENDBRANCH   1  15
TORSDOF 7
