REMARK  Name = ZINC40612608
REMARK  3 active torsions:
REMARK  status: ('A' for Active; 'I' for Inactive)
REMARK    1  A    between atoms: C_1  and  C_2
REMARK    2  A    between atoms: C_10  and  N_21
REMARK    3  A    between atoms: C_11  and  N_15
REMARK                            x       y       z     vdW  Elec       q    Type
REMARK                         _______ _______ _______ _____ _____    ______ ____
ROOT
ATOM      1  C   UNL     1       2.648  -0.162  -0.220  0.00  0.00    +0.028 C 
ATOM      2  C   UNL     1       1.344  -0.938  -0.026  0.00  0.00    +0.072 C 
ATOM      3  C   UNL     1       0.360  -0.576  -1.143  0.00  0.00    +0.022 C 
ATOM      4  C   UNL     1      -0.988  -1.247  -0.867  0.00  0.00    +0.003 C 
ATOM      5  C   UNL     1      -1.552  -0.733   0.460  0.00  0.00    +0.019 C 
ATOM      6  C   UNL     1      -0.590  -1.097   1.595  0.00  0.00    +0.107 C 
ATOM      7  N   UNL     1       0.747  -0.582   1.268  0.00  0.00    -0.310 N 
ATOM      8  C   UNL     1       1.430   0.228   2.162  0.00  0.00    +0.157 A 
ATOM      9  C   UNL     1       2.225  -0.332   3.158  0.00  0.00    +0.206 A 
ATOM     10  C   UNL     1       2.890   0.523   4.030  0.00  0.00    +0.160 A 
ATOM     11  N   UNL     1       2.743   1.839   3.882  0.00  0.00    -0.218 NA
ATOM     12  C   UNL     1       1.982   2.331   2.926  0.00  0.00    +0.225 A 
ATOM     13  N   UNL     1       1.341   1.554   2.077  0.00  0.00    -0.218 NA
ENDROOT
BRANCH  10  14
ATOM     14  N   UNL     1       3.694   0.014   5.040  0.00  0.00    -0.277 N 
ATOM     15  C   UNL     1       4.353   0.877   5.905  0.00  0.00    +0.163 A 
ATOM     16  N   UNL     1       4.329   2.192   5.922  0.00  0.00    -0.233 NA
ATOM     17  C   UNL     1       5.018   2.875   6.819  0.00  0.00    +0.120 A 
ATOM     18  C   UNL     1       5.744   2.160   7.712  0.00  0.00    +0.068 A 
ATOM     19  S   UNL     1       5.369   0.495   7.190  0.00  0.00    -0.061 S 
ATOM     20  H   UNL     1       3.795  -0.946   5.142  0.00  0.00    +0.156 HD
ENDBRANCH  10  14
BRANCH   9  21
ATOM     21  N   UNL     1       2.358  -1.801   3.286  0.00  0.00    +0.063 N 
ATOM     22  O   UNL     1       3.291  -2.371   2.768  0.00  0.00    -0.126 OA
ATOM     23  O   UNL     1       1.535  -2.431   3.908  0.00  0.00    -0.126 OA
ENDBRANCH   9  21
TORSDOF 2
