REMARK  Name = ZINC35506980
REMARK  3 active torsions:
REMARK  status: ('A' for Active; 'I' for Inactive)
REMARK    1  A    between atoms: C_1  and  C_2
REMARK    2  A    between atoms: C_4  and  N_9
REMARK    3  A    between atoms: C_10  and  C_12
REMARK                            x       y       z     vdW  Elec       q    Type
REMARK                         _______ _______ _______ _____ _____    ______ ____
ROOT
ATOM      1  C   UNL     1       0.033  -4.678  -3.836  0.00  0.00    +0.247 C 
ATOM      2  N   UNL     1       1.372  -4.612  -4.417  0.00  0.00    -0.319 N 
ATOM      3  C   UNL     1       2.452  -5.347  -3.936  0.00  0.00    +0.055 A 
ATOM      4  C   UNL     1       3.744  -4.907  -4.219  0.00  0.00    +0.025 A 
ATOM      5  C   UNL     1       4.835  -5.623  -3.771  0.00  0.00    +0.002 A 
ATOM      6  C   UNL     1       4.655  -6.782  -3.039  0.00  0.00    +0.002 A 
ATOM      7  C   UNL     1       3.377  -7.222  -2.749  0.00  0.00    +0.030 A 
ATOM      8  C   UNL     1       2.284  -6.505  -3.188  0.00  0.00    +0.126 A 
ATOM      9  S   UNL     1       0.652  -7.048  -2.781  0.00  0.00    +0.062 S 
ATOM     10  O   UNL     1       0.423  -6.696  -1.423  0.00  0.00    -0.153 OA
ATOM     11  O   UNL     1       0.526  -8.380  -3.261  0.00  0.00    -0.153 OA
ATOM     12  N   UNL     1      -0.361  -6.096  -3.708  0.00  0.00    -0.161 NA
ATOM     13  H   UNL     1       1.516  -4.026  -5.176  0.00  0.00    +0.148 HD
ATOM     14  H   UNL     1      -1.155  -6.450  -4.138  0.00  0.00    +0.151 HD
ENDROOT
BRANCH   1  16
ATOM     15  N   UNL     1      -1.125  -3.735  -1.865  0.00  0.00    -0.283 N 
ATOM     16  C   UNL     1       0.040  -4.030  -2.476  0.00  0.00    +0.254 C 
ATOM     17  O   UNL     1       1.093  -3.775  -1.931  0.00  0.00    -0.272 OA
ATOM     18  H   UNL     1      -1.965  -4.006  -2.266  0.00  0.00    +0.155 HD
BRANCH  15  22
ATOM     19  C   UNL     1       0.923  -0.366   1.073  0.00  0.00    +0.045 C 
ATOM     20  C   UNL     1      -0.140  -1.398   0.799  0.00  0.00    -0.035 A 
ATOM     21  C   UNL     1      -0.141  -2.086  -0.399  0.00  0.00    +0.027 A 
ATOM     22  C   UNL     1      -1.121  -3.037  -0.652  0.00  0.00    +0.034 A 
ATOM     23  C   UNL     1      -2.098  -3.294   0.302  0.00  0.00    +0.024 A 
ATOM     24  C   UNL     1      -2.092  -2.603   1.498  0.00  0.00    +0.017 A 
ATOM     25  C   UNL     1      -1.111  -1.660   1.749  0.00  0.00    +0.021 A 
ATOM     26 BR   UNL     1      -1.102  -0.723   3.391  0.00  0.00    -0.050 Br
ENDBRANCH  15  22
ENDBRANCH   1  16
TORSDOF 2
