REMARK  Name = ZINC49779719
REMARK  8 active torsions:
REMARK  status: ('A' for Active; 'I' for Inactive)
REMARK    1  A    between atoms: C_1  and  N_2
REMARK    2  A    between atoms: N_2  and  C_3
REMARK    3  A    between atoms: N_2  and  C_4
REMARK    4  A    between atoms: C_4  and  C_6
REMARK    5  A    between atoms: C_4  and  C_23
REMARK    6  A    between atoms: C_6  and  N_7
REMARK    7  A    between atoms: N_10  and  N_11
REMARK    8  A    between atoms: N_11  and  C_12
REMARK                            x       y       z     vdW  Elec       q    Type
REMARK                         _______ _______ _______ _____ _____    ______ ____
ROOT
ATOM      1  N   UNL     1      -0.176  -2.586  -1.619  0.00  0.00    -0.299 N 
ATOM      2  C   UNL     1      -0.283  -3.906  -1.868  0.00  0.00    +0.316 C 
ATOM      3  O   UNL     1       0.708  -4.554  -2.147  0.00  0.00    -0.251 OA
ATOM      4  N   UNL     1      -1.487  -4.508  -1.808  0.00  0.00    -0.220 N 
ATOM      5  H   UNL     1      -0.966  -2.068  -1.397  0.00  0.00    +0.150 HD
ATOM      6  H   UNL     1      -1.564  -5.458  -1.987  0.00  0.00    +0.174 HD
ENDROOT
BRANCH   4   7
ATOM      7  N   UNL     1      -2.628  -3.761  -1.487  0.00  0.00    -0.258 N 
ATOM      8  H   UNL     1      -2.567  -2.797  -1.394  0.00  0.00    +0.170 HD
BRANCH   7   9
ATOM      9  C   UNL     1      -3.858  -4.406  -1.299  0.00  0.00    +0.121 A 
ATOM     10  C   UNL     1      -3.901  -5.667  -0.717  0.00  0.00    +0.186 A 
ATOM     11  C   UNL     1      -5.117  -6.303  -0.532  0.00  0.00    +0.198 A 
ATOM     12  C   UNL     1      -6.292  -5.682  -0.928  0.00  0.00    +0.199 A 
ATOM     13  C   UNL     1      -6.251  -4.425  -1.508  0.00  0.00    +0.198 A 
ATOM     14  C   UNL     1      -5.037  -3.783  -1.690  0.00  0.00    +0.186 A 
ATOM     15  F   UNL     1      -4.999  -2.555  -2.252  0.00  0.00    -0.200 F 
ATOM     16  F   UNL     1      -7.397  -3.821  -1.893  0.00  0.00    -0.199 F 
ATOM     17  F   UNL     1      -7.477  -6.304  -0.747  0.00  0.00    -0.199 F 
ATOM     18  F   UNL     1      -5.159  -7.529   0.033  0.00  0.00    -0.199 F 
ATOM     19  F   UNL     1      -2.756  -6.273  -0.332  0.00  0.00    -0.200 F 
ENDBRANCH   7   9
ENDBRANCH   4   7
BRANCH   1  20
ATOM     20  C   UNL     1       1.133  -1.931  -1.685  0.00  0.00    +0.098 C 
BRANCH  20  21
ATOM     21  C   UNL     1       0.960  -0.424  -1.489  0.00  0.00    +0.016 C 
BRANCH  21  22
ATOM     22  C   UNL     1       0.462  -0.152  -0.093  0.00  0.00    +0.093 A 
ATOM     23  C   UNL     1       1.214   0.253   0.946  0.00  0.00    +0.043 A 
ATOM     24  C   UNL     1       0.346   0.383   2.054  0.00  0.00    +0.041 A 
ATOM     25  C   UNL     1      -0.885   0.051   1.626  0.00  0.00    +0.195 A 
ATOM     26  O   UNL     1      -0.810  -0.266   0.323  0.00  0.00    -0.469 OA
ENDBRANCH  21  22
BRANCH  21  28
ATOM     27  C   UNL     1      -0.142   1.543  -2.309  0.00  0.00    -0.096 C 
ATOM     28  N   UNL     1      -0.012   0.088  -2.465  0.00  0.00    +0.384 N 
ATOM     29  C   UNL     1       0.450  -0.220  -3.825  0.00  0.00    -0.096 C 
ATOM     30  H   UNL     1      -0.908  -0.348  -2.307  0.00  0.00    -0.082 HD
ENDBRANCH  21  28
ENDBRANCH  20  21
ENDBRANCH   1  20
TORSDOF 6
