REMARK  Name = ZINC64098512
REMARK  4 active torsions:
REMARK  status: ('A' for Active; 'I' for Inactive)
REMARK    1  A    between atoms: N_9  and  C_13
REMARK    2  A    between atoms: C_13  and  C_14
REMARK    3  A    between atoms: C_14  and  C_15
REMARK    4  A    between atoms: N_17  and  C_18
REMARK                            x       y       z     vdW  Elec       q    Type
REMARK                         _______ _______ _______ _____ _____    ______ ____
ROOT
ATOM      1  C   UNL     1       4.891  -1.845  -2.897  0.00  0.00    +0.127 C 
ENDROOT
BRANCH   1  10
ATOM      2  C   UNL     1      -0.019   1.526   0.010  0.00  0.00    +0.000 C 
ATOM      3  C   UNL     1       1.416   2.058  -0.000  0.00  0.00    +0.003 C 
ATOM      4  C   UNL     1       2.129   1.573  -1.265  0.00  0.00    +0.035 C 
ATOM      5  C   UNL     1       2.134   0.048  -1.295  0.00  0.00    +0.113 C 
ATOM      6  C   UNL     1       0.710  -0.496  -1.263  0.00  0.00    +0.035 C 
ATOM      7  C   UNL     1       0.002  -0.004   0.002  0.00  0.00    +0.003 C 
ATOM      8  C   UNL     1       2.864  -0.454  -2.519  0.00  0.00    +0.247 C 
ATOM      9  O   UNL     1       2.574  -0.256  -3.679  0.00  0.00    -0.273 OA
ATOM     10  N   UNL     1       3.907  -1.169  -2.049  0.00  0.00    -0.224 N 
ATOM     11  C   UNL     1       3.931  -1.183  -0.710  0.00  0.00    +0.309 C 
ATOM     12  O   UNL     1       4.776  -1.762  -0.056  0.00  0.00    -0.252 OA
ATOM     13  N   UNL     1       2.914  -0.485  -0.171  0.00  0.00    -0.285 N 
ATOM     14  H   UNL     1       2.732  -0.359   0.774  0.00  0.00    +0.151 HD
ENDBRANCH   1  10
BRANCH   1  15
ATOM     15  C   UNL     1       6.050  -0.891  -3.195  0.00  0.00    +0.115 C 
BRANCH  15  16
ATOM     16  C   UNL     1       7.062  -1.587  -4.068  0.00  0.00    +0.215 C 
ATOM     17  O   UNL     1       6.875  -2.733  -4.418  0.00  0.00    -0.276 OA
ATOM     18  N   UNL     1       8.175  -0.936  -4.460  0.00  0.00    -0.304 N 
ATOM     19  H   UNL     1       8.324  -0.019  -4.181  0.00  0.00    +0.149 HD
BRANCH  18  20
ATOM     20  C   UNL     1       9.159  -1.613  -5.309  0.00  0.00    +0.159 C 
ATOM     21  C   UNL     1       9.941  -0.570  -6.111  0.00  0.00    +0.033 C 
ATOM     22  C   UNL     1      11.136  -1.265  -6.775  0.00  0.00    +0.021 C 
ATOM     23  C   UNL     1      12.114  -1.705  -5.685  0.00  0.00    +0.104 C 
ATOM     24  N   UNL     1      11.417  -2.451  -4.645  0.00  0.00    -0.314 N 
ATOM     25  C   UNL     1      10.099  -2.406  -4.448  0.00  0.00    +0.233 C 
ATOM     26  O   UNL     1       9.635  -3.039  -3.523  0.00  0.00    -0.274 OA
ATOM     27  H   UNL     1      11.945  -3.016  -4.059  0.00  0.00    +0.149 HD
ENDBRANCH  18  20
ENDBRANCH  15  16
ENDBRANCH   1  15
TORSDOF 4
