REMARK  Name = ZINC36689109
REMARK  10 active torsions:
REMARK  status: ('A' for Active; 'I' for Inactive)
REMARK    1  A    between atoms: C_1  and  C_2
REMARK    2  A    between atoms: C_2  and  C_3
REMARK    3  A    between atoms: C_6  and  C_9
REMARK    4  A    between atoms: C_9  and  C_11
REMARK    5  A    between atoms: C_9  and  N_12
REMARK    6  A    between atoms: C_13  and  C_15
REMARK    7  A    between atoms: C_15  and  N_16
REMARK    8  A    between atoms: C_19  and  C_23
REMARK    9  A    between atoms: C_19  and  C_25
REMARK   10  A    between atoms: C_23  and  C_24
REMARK                            x       y       z     vdW  Elec       q    Type
REMARK                         _______ _______ _______ _____ _____    ______ ____
ROOT
ATOM      1  N   UNL     1       3.483  -0.456   9.263  0.00  0.00    -0.215 N 
ATOM      2  C   UNL     1       3.637  -1.436  10.175  0.00  0.00    +0.251 C 
ATOM      3  O   UNL     1       2.984  -2.453  10.274  0.00  0.00    -0.272 OA
ATOM      4  C   UNL     1       4.796  -1.004  11.051  0.00  0.00    +0.138 C 
ATOM      5  N   UNL     1       5.199   0.292  10.477  0.00  0.00    -0.281 N 
ATOM      6  C   UNL     1       4.378   0.524   9.436  0.00  0.00    +0.310 C 
ATOM      7  O   UNL     1       4.441   1.514   8.734  0.00  0.00    -0.252 OA
ATOM      8  H   UNL     1       5.917   0.865  10.787  0.00  0.00    +0.152 HD
ENDROOT
BRANCH   4   9
ATOM      9  C   UNL     1       4.347  -0.834  12.479  0.00  0.00    -0.015 A 
ATOM     10  C   UNL     1       4.423  -1.899  13.358  0.00  0.00    +0.007 A 
ATOM     11  C   UNL     1       4.011  -1.744  14.668  0.00  0.00    +0.020 A 
ATOM     12  C   UNL     1       3.523  -0.523  15.100  0.00  0.00    +0.041 A 
ATOM     13  C   UNL     1       3.447   0.541  14.220  0.00  0.00    +0.020 A 
ATOM     14  C   UNL     1       3.864   0.387  12.912  0.00  0.00    +0.007 A 
ATOM     15 CL   UNL     1       3.005  -0.328  16.746  0.00  0.00    -0.084 Cl
ENDBRANCH   4   9
BRANCH   4  16
ATOM     16  C   UNL     1       5.943  -2.012  10.962  0.00  0.00    +0.037 C 
ATOM     17  C   UNL     1       6.497  -2.030   9.535  0.00  0.00    +0.007 C 
ENDBRANCH   4  16
BRANCH   1  18
ATOM     18  C   UNL     1       2.466  -0.464   8.209  0.00  0.00    +0.213 C 
BRANCH  18  20
ATOM     19  N   UNL     1       2.257  -1.263   5.877  0.00  0.00    -0.307 N 
ATOM     20  C   UNL     1       3.021  -1.139   6.981  0.00  0.00    +0.231 C 
ATOM     21  O   UNL     1       4.154  -1.570   6.986  0.00  0.00    -0.274 OA
ATOM     22  H   UNL     1       1.351  -0.918   5.873  0.00  0.00    +0.149 HD
BRANCH  19  23
ATOM     23  C   UNL     1       2.797  -1.919   4.683  0.00  0.00    +0.100 C 
ATOM     24  C   UNL     1       2.610  -3.433   4.805  0.00  0.00    +0.033 C 
BRANCH  23  28
ATOM     25  C   UNL     1       0.731  -0.503   1.223  0.00  0.00    -0.048 A 
ATOM     26  C   UNL     1       2.097  -0.710   1.176  0.00  0.00    +0.004 A 
ATOM     27  C   UNL     1       2.766  -1.167   2.296  0.00  0.00    +0.006 A 
ATOM     28  C   UNL     1       2.068  -1.419   3.463  0.00  0.00    -0.027 A 
ATOM     29  C   UNL     1       0.702  -1.212   3.510  0.00  0.00    +0.006 A 
ATOM     30  C   UNL     1       0.034  -0.750   2.391  0.00  0.00    +0.004 A 
BRANCH  25  32
ATOM     31  C   UNL     1      -0.019   1.526   0.010  0.00  0.00    +0.009 C 
ATOM     32  C   UNL     1       0.002  -0.004   0.002  0.00  0.00    +0.032 C 
ENDBRANCH  25  32
ENDBRANCH  23  28
ENDBRANCH  19  23
ENDBRANCH  18  20
ENDBRANCH   1  18
TORSDOF 7
