REMARK  Name = ZINC22079264
REMARK  5 active torsions:
REMARK  status: ('A' for Active; 'I' for Inactive)
REMARK    1  A    between atoms: C_1  and  N_2
REMARK    2  A    between atoms: C_16  and  C_19
REMARK    3  A    between atoms: C_19  and  C_20
REMARK    4  A    between atoms: C_20  and  C_21
REMARK    5  A    between atoms: N_26  and  C_29
REMARK                            x       y       z     vdW  Elec       q    Type
REMARK                         _______ _______ _______ _____ _____    ______ ____
ROOT
ATOM      1  C   UNL     1      -0.018   1.461   0.010  0.00  0.00    +0.138 C 
ATOM      2  N   UNL     1       0.002  -0.004   0.002  0.00  0.00    -0.272 N 
ATOM      3  C   UNL     1       0.008  -0.777  -1.161  0.00  0.00    +0.041 A 
ATOM      4  C   UNL     1      -0.004  -0.403  -2.503  0.00  0.00    +0.024 A 
ATOM      5  C   UNL     1       0.005  -1.365  -3.492  0.00  0.00    +0.002 A 
ATOM      6  C   UNL     1       0.026  -2.707  -3.160  0.00  0.00    +0.000 A 
ATOM      7  C   UNL     1       0.037  -3.088  -1.830  0.00  0.00    +0.008 A 
ATOM      8  C   UNL     1       0.028  -2.131  -0.839  0.00  0.00    +0.004 A 
ATOM      9  C   UNL     1       0.033  -2.195   0.661  0.00  0.00    +0.136 C 
ATOM     10  C   UNL     1       0.023  -0.762   1.116  0.00  0.00    +0.245 C 
ATOM     11  O   UNL     1       0.030  -0.366   2.262  0.00  0.00    -0.273 OA
ATOM     12  C   UNL     1       1.208  -2.974   1.213  0.00  0.00    +0.123 C 
ATOM     13  C   UNL     1       0.626  -3.197   2.663  0.00  0.00    +0.107 C 
ATOM     14  C   UNL     1      -0.748  -3.657   2.418  0.00  0.00    +0.068 C 
ATOM     15  N   UNL     1      -1.164  -2.922   1.165  0.00  0.00    -0.295 NA
ATOM     16  C   UNL     1       1.804  -3.577   3.404  0.00  0.00    +0.232 C 
ATOM     17  O   UNL     1       1.875  -4.355   4.331  0.00  0.00    -0.274 OA
ATOM     18  N   UNL     1       2.827  -2.864   2.830  0.00  0.00    -0.210 N 
ATOM     19  C   UNL     1       2.478  -2.294   1.623  0.00  0.00    +0.233 C 
ATOM     20  O   UNL     1       3.066  -1.423   1.019  0.00  0.00    -0.274 OA
ATOM     21  H   UNL     1      -1.925  -2.284   1.347  0.00  0.00    +0.123 HD
ENDROOT
BRANCH  18  22
ATOM     22  C   UNL     1       4.100  -2.735   3.402  0.00  0.00    +0.044 A 
ATOM     23  C   UNL     1       5.080  -1.990   2.760  0.00  0.00    +0.024 A 
ATOM     24  C   UNL     1       6.333  -1.865   3.326  0.00  0.00    +0.002 A 
ATOM     25  C   UNL     1       6.613  -2.482   4.532  0.00  0.00    +0.000 A 
ATOM     26  C   UNL     1       5.639  -3.224   5.175  0.00  0.00    +0.002 A 
ATOM     27  C   UNL     1       4.382  -3.348   4.616  0.00  0.00    +0.024 A 
ENDBRANCH  18  22
BRANCH  14  28
ATOM     28  C   UNL     1      -0.775  -5.173   2.212  0.00  0.00    +0.031 C 
BRANCH  28  29
ATOM     29  C   UNL     1      -2.225  -5.645   2.084  0.00  0.00    +0.126 C 
BRANCH  29  30
ATOM     30  C   UNL     1      -2.251  -7.138   1.881  0.00  0.00    +0.356 C 
ATOM     31  O   UNL     1      -1.207  -7.766   1.843  0.00  0.00    -0.246 OA
ATOM     32  O   UNL     1      -3.317  -7.717   1.755  0.00  0.00    -0.246 OA
ENDBRANCH  29  30
ENDBRANCH  28  29
ENDBRANCH  14  28
TORSDOF 4
