REMARK  Name = ZINC37650433
REMARK  5 active torsions:
REMARK  status: ('A' for Active; 'I' for Inactive)
REMARK    1  A    between atoms: C_1  and  O_2
REMARK    2  A    between atoms: O_2  and  C_3
REMARK    3  A    between atoms: C_4  and  C_9
REMARK    4  A    between atoms: C_9  and  N_10
REMARK    5  A    between atoms: N_10  and  C_11
REMARK                            x       y       z     vdW  Elec       q    Type
REMARK                         _______ _______ _______ _____ _____    ______ ____
ROOT
ATOM      1  N   UNL     1      -1.416  -2.910  -0.231  0.00  0.00    +0.392 N 
ATOM      2  H   UNL     1      -1.810  -1.982  -0.204  0.00  0.00    -0.084 HD
ATOM      3  H   UNL     1      -1.609  -3.332  -1.127  0.00  0.00    -0.084 HD
ENDROOT
BRANCH   1   4
ATOM      4  C   UNL     1      -2.015  -3.727   0.833  0.00  0.00    +0.050 C 
ATOM      5  C   UNL     1      -3.500  -3.887   0.606  0.00  0.00    -0.018 A 
ATOM      6  C   UNL     1      -4.128  -3.316   1.706  0.00  0.00    +0.036 A 
ATOM      7  C   UNL     1      -5.520  -3.321   1.767  0.00  0.00    +0.023 A 
ATOM      8  C   UNL     1      -6.256  -3.885   0.745  0.00  0.00    +0.003 A 
ATOM      9  C   UNL     1      -5.621  -4.449  -0.345  0.00  0.00    +0.015 A 
ATOM     10  C   UNL     1      -4.237  -4.449  -0.413  0.00  0.00    +0.022 A 
ATOM     11 BR   UNL     1      -3.361  -5.221  -1.901  0.00  0.00    -0.050 Br
ATOM     12  N   UNL     1      -3.178  -2.816   2.598  0.00  0.00    -0.286 N 
ATOM     13  C   UNL     1      -1.918  -3.015   2.166  0.00  0.00    +0.208 C 
ATOM     14  O   UNL     1      -0.898  -2.688   2.735  0.00  0.00    -0.277 OA
ATOM     15  H   UNL     1      -3.399  -2.376   3.433  0.00  0.00    +0.155 HD
ENDBRANCH   1   4
BRANCH   1  16
ATOM     16  C   UNL     1       0.037  -2.831  -0.029  0.00  0.00    -0.040 C 
BRANCH  16  18
ATOM     17  C   UNL     1       0.605  -0.606  -1.054  0.00  0.00    +0.216 A 
ATOM     18  C   UNL     1       0.651  -1.993  -1.121  0.00  0.00    -0.003 A 
ATOM     19  C   UNL     1       1.268  -2.595  -2.204  0.00  0.00    +0.008 A 
ATOM     20  C   UNL     1       1.820  -1.784  -3.186  0.00  0.00    +0.020 A 
ATOM     21  C   UNL     1       1.738  -0.412  -3.054  0.00  0.00    +0.114 A 
ATOM     22  N   UNL     1       1.138   0.133  -2.012  0.00  0.00    -0.221 NA
BRANCH  17  24
ATOM     23  C   UNL     1      -0.017   1.425   0.010  0.00  0.00    +0.279 C 
ATOM     24  O   UNL     1       0.002  -0.004   0.002  0.00  0.00    -0.480 OA
ENDBRANCH  17  24
ENDBRANCH  16  18
ENDBRANCH   1  16
TORSDOF 4
