REMARK  Name = ZINC14706921
REMARK  6 active torsions:
REMARK  status: ('A' for Active; 'I' for Inactive)
REMARK    1  A    between atoms: C_4  and  C_7
REMARK    2  A    between atoms: C_7  and  N_8
REMARK    3  A    between atoms: N_8  and  C_9
REMARK    4  A    between atoms: C_9  and  C_10
REMARK    5  A    between atoms: C_22  and  C_24
REMARK    6  A    between atoms: C_24  and  N_25
REMARK                            x       y       z     vdW  Elec       q    Type
REMARK                         _______ _______ _______ _____ _____    ______ ____
ROOT
ATOM      1  N   UNL     1       4.298  -0.882   1.293  0.00  0.00    -0.289 N 
ATOM      2  C   UNL     1       4.923   0.149   1.895  0.00  0.00    +0.234 C 
ATOM      3  O   UNL     1       5.335   0.029   3.030  0.00  0.00    -0.274 OA
ENDROOT
BRANCH   1   4
ATOM      4  C   UNL     1       3.898  -0.776  -0.113  0.00  0.00    +0.143 C 
BRANCH   4   8
ATOM      5  C   UNL     1      -0.183   0.461  -0.347  0.00  0.00    +0.000 A 
ATOM      6  C   UNL     1       0.829   1.399  -0.425  0.00  0.00    +0.000 A 
ATOM      7  C   UNL     1       2.150   0.999  -0.349  0.00  0.00    +0.005 A 
ATOM      8  C   UNL     1       2.458  -0.340  -0.194  0.00  0.00    -0.030 A 
ATOM      9  C   UNL     1       1.446  -1.278  -0.116  0.00  0.00    +0.005 A 
ATOM     10  C   UNL     1       0.125  -0.877  -0.193  0.00  0.00    +0.000 A 
ENDBRANCH   4   8
ENDBRANCH   1   4
BRANCH   1  11
ATOM     11  C   UNL     1       4.017  -2.108   2.044  0.00  0.00    +0.182 C 
BRANCH  11  12
ATOM     12  C   UNL     1       5.178  -3.059   1.905  0.00  0.00    +0.128 A 
ATOM     13  N   UNL     1       5.104  -4.263   2.530  0.00  0.00    -0.309 N 
ATOM     14  H   UNL     1       4.315  -4.487   3.049  0.00  0.00    +0.170 HD
ATOM     15  C   UNL     1       6.120  -5.152   2.436  0.00  0.00    +0.259 A 
ATOM     16  O   UNL     1       6.066  -6.235   2.990  0.00  0.00    -0.267 OA
ATOM     17  C   UNL     1       7.290  -4.761   1.637  0.00  0.00    +0.065 A 
ATOM     18  C   UNL     1       8.389  -5.603   1.477  0.00  0.00    +0.015 A 
ATOM     19  C   UNL     1       9.460  -5.184   0.718  0.00  0.00    +0.001 A 
ATOM     20  C   UNL     1       9.452  -3.934   0.113  0.00  0.00    +0.002 A 
ATOM     21  C   UNL     1       8.376  -3.087   0.259  0.00  0.00    +0.028 A 
ATOM     22  C   UNL     1       7.279  -3.488   1.024  0.00  0.00    +0.078 A 
ATOM     23  N   UNL     1       6.196  -2.688   1.189  0.00  0.00    -0.232 NA
ENDBRANCH  11  12
ENDBRANCH   1  11
BRANCH   2  24
ATOM     24  C   UNL     1       5.110   1.450   1.159  0.00  0.00    +0.212 C 
BRANCH  24  25
ATOM     25  N   UNL     1       5.811   2.404   2.023  0.00  0.00    -0.233 N 
ATOM     26  C   UNL     1       5.171   3.254   2.867  0.00  0.00    +0.226 C 
ATOM     27  O   UNL     1       3.986   3.505   2.886  0.00  0.00    -0.275 OA
ATOM     28  C   UNL     1       6.225   3.819   3.771  0.00  0.00    +0.091 C 
ATOM     29  C   UNL     1       6.078   5.252   4.236  0.00  0.00    +0.040 C 
ATOM     30  C   UNL     1       7.413   5.665   4.820  0.00  0.00    -0.030 C 
ATOM     31  C   UNL     1       8.534   5.049   4.593  0.00  0.00    -0.030 C 
ATOM     32  C   UNL     1       8.679   3.842   3.689  0.00  0.00    +0.040 C 
ATOM     33  C   UNL     1       7.455   3.783   2.812  0.00  0.00    +0.091 C 
ATOM     34  C   UNL     1       7.164   2.518   2.062  0.00  0.00    +0.226 C 
ATOM     35  O   UNL     1       7.973   1.753   1.583  0.00  0.00    -0.275 OA
ENDBRANCH  24  25
ENDBRANCH   2  24
TORSDOF 6
