REMARK  Name = ZINC05273993
REMARK  7 active torsions:
REMARK  status: ('A' for Active; 'I' for Inactive)
REMARK    1  A    between atoms: C_4  and  C_29
REMARK    2  A    between atoms: C_11  and  O_12
REMARK    3  A    between atoms: O_12  and  C_13
REMARK    4  A    between atoms: C_15  and  O_28
REMARK    5  A    between atoms: C_17  and  O_27
REMARK    6  A    between atoms: C_19  and  O_26
REMARK    7  A    between atoms: C_21  and  C_24
REMARK                            x       y       z     vdW  Elec       q    Type
REMARK                         _______ _______ _______ _____ _____    ______ ____
ROOT
ATOM      1  O   UNL     1       4.146   5.251  -0.307  0.00  0.00    -0.461 OA
ENDROOT
BRANCH   1  12
ATOM      2  C   UNL     1       3.934   4.409  -2.522  0.00  0.00    +0.046 A 
ATOM      3  C   UNL     1       4.485   4.125  -3.738  0.00  0.00    +0.016 A 
ATOM      4  C   UNL     1       5.836   4.402  -3.971  0.00  0.00    +0.029 A 
ATOM      5  C   UNL     1       6.454   4.107  -5.266  0.00  0.00    +0.072 A 
ATOM      6  C   UNL     1       7.771   4.399  -5.430  0.00  0.00    +0.105 A 
ATOM      7  C   UNL     1       8.500   4.970  -4.367  0.00  0.00    +0.338 A 
ATOM      8  O   UNL     1       9.680   5.226  -4.527  0.00  0.00    -0.245 OA
ATOM      9  O   UNL     1       7.928   5.238  -3.183  0.00  0.00    -0.422 OA
ATOM     10  C   UNL     1       6.624   4.972  -2.954  0.00  0.00    +0.143 A 
ATOM     11  C   UNL     1       6.047   5.260  -1.727  0.00  0.00    +0.092 A 
ATOM     12  C   UNL     1       4.709   4.974  -1.511  0.00  0.00    +0.128 A 
BRANCH   5  13
ATOM     13  C   UNL     1       5.651   3.497  -6.386  0.00  0.00    +0.418 C 
ATOM     14  F   UNL     1       6.472   3.318  -7.504  0.00  0.00    -0.166 F 
ATOM     15  F   UNL     1       5.145   2.258  -5.976  0.00  0.00    -0.166 F 
ATOM     16  F   UNL     1       4.591   4.347  -6.716  0.00  0.00    -0.166 F 
ENDBRANCH   5  13
ENDBRANCH   1  12
BRANCH   1  17
ATOM     17  C   UNL     1       2.761   4.938  -0.151  0.00  0.00    +0.340 C 
ATOM     18  C   UNL     1       2.246   5.539   1.160  0.00  0.00    +0.214 C 
ATOM     19  C   UNL     1       0.777   5.148   1.349  0.00  0.00    +0.180 C 
ATOM     20  C   UNL     1       0.659   3.621   1.324  0.00  0.00    +0.186 C 
ATOM     21  C   UNL     1       1.235   3.094   0.007  0.00  0.00    +0.266 C 
ATOM     22  O   UNL     1       2.593   3.519  -0.121  0.00  0.00    -0.322 OA
BRANCH  21  23
ATOM     23  C   UNL     1       1.177   1.588  -0.001  0.00  0.00    +0.387 C 
ATOM     24  O   UNL     1       2.199   0.944  -0.014  0.00  0.00    -0.243 OA
ATOM     25  O   UNL     1      -0.011   0.963   0.007  0.00  0.00    -0.243 OA
ENDBRANCH  21  23
BRANCH  20  26
ATOM     26  O   UNL     1       1.390   3.067   2.420  0.00  0.00    -0.386 OA
ATOM     27  H   UNL     1       1.363   2.102   2.463  0.00  0.00    +0.210 HD
ENDBRANCH  20  26
BRANCH  19  28
ATOM     28  O   UNL     1       0.309   5.643   2.606  0.00  0.00    -0.386 OA
ATOM     29  H   UNL     1       0.362   6.604   2.694  0.00  0.00    +0.210 HD
ENDBRANCH  19  28
BRANCH  18  30
ATOM     30  O   UNL     1       3.019   5.036   2.251  0.00  0.00    -0.383 OA
ATOM     31  H   UNL     1       3.962   5.243   2.194  0.00  0.00    +0.210 HD
ENDBRANCH  18  30
ENDBRANCH   1  17
TORSDOF 7
