REMARK  Name = ZINC67413101
REMARK  4 active torsions:
REMARK  status: ('A' for Active; 'I' for Inactive)
REMARK    1  A    between atoms: C_3  and  C_11
REMARK    2  A    between atoms: N_19  and  C_20
REMARK    3  A    between atoms: N_23  and  C_26
REMARK    4  A    between atoms: C_26  and  C_27
REMARK                            x       y       z     vdW  Elec       q    Type
REMARK                         _______ _______ _______ _____ _____    ______ ____
ROOT
ATOM      1  C   UNL     1       3.760   3.734  -0.879  0.00  0.00    +0.111 C 
ATOM      2  C   UNL     1       4.263   4.220  -2.254  0.00  0.00    +0.029 C 
ATOM      3  C   UNL     1       4.844   5.623  -1.937  0.00  0.00    +0.021 C 
ATOM      4  C   UNL     1       3.865   6.125  -0.846  0.00  0.00    +0.110 C 
ATOM      5  N   UNL     1       3.546   4.925  -0.044  0.00  0.00    -0.278 N 
ATOM      6  C   UNL     1       3.127   4.922   1.237  0.00  0.00    +0.303 C 
ATOM      7  O   UNL     1       2.892   3.868   1.797  0.00  0.00    -0.253 OA
ATOM      8  N   UNL     1       2.968   6.086   1.898  0.00  0.00    -0.297 N 
ATOM      9  H   UNL     1       3.156   6.926   1.451  0.00  0.00    +0.151 HD
ENDROOT
BRANCH   1  12
ATOM     10  C   UNL     1       0.068   2.964  -1.064  0.00  0.00    +0.004 A 
ATOM     11  C   UNL     1       1.259   3.650  -0.913  0.00  0.00    +0.009 A 
ATOM     12  C   UNL     1       2.463   2.984  -1.043  0.00  0.00    +0.018 A 
ATOM     13  C   UNL     1       2.480   1.626  -1.325  0.00  0.00    +0.167 A 
ATOM     14  C   UNL     1       1.282   0.936  -1.474  0.00  0.00    +0.162 A 
ATOM     15  C   UNL     1       0.077   1.611  -1.344  0.00  0.00    +0.049 A 
ATOM     16  O   UNL     1       1.276  -0.398  -1.743  0.00  0.00    -0.485 OA
ATOM     17  C   UNL     1       2.497  -0.961  -2.234  0.00  0.00    +0.270 C 
ATOM     18  C   UNL     1       3.650  -0.444  -1.363  0.00  0.00    +0.270 C 
ATOM     19  O   UNL     1       3.673   0.985  -1.454  0.00  0.00    -0.485 OA
ENDBRANCH   1  12
BRANCH   8  20
ATOM     20  C   UNL     1       2.513   6.082   3.290  0.00  0.00    +0.071 C 
ATOM     21  C   UNL     1       3.714   5.897   4.222  0.00  0.00    +0.004 C 
ATOM     22  C   UNL     1       3.243   5.973   5.675  0.00  0.00    -0.077 C 
ATOM     23  N   UNL     1       2.624   7.281   5.925  0.00  0.00    +0.383 N 
ATOM     24  C   UNL     1       1.430   7.436   5.087  0.00  0.00    -0.077 C 
ATOM     25  C   UNL     1       1.832   7.415   3.610  0.00  0.00    +0.004 C 
ATOM     26  H   UNL     1       3.285   8.011   5.705  0.00  0.00    -0.082 HD
BRANCH  23  27
ATOM     27  C   UNL     1       2.244   7.379   7.340  0.00  0.00    -0.006 C 
BRANCH  27  28
ATOM     28  C   UNL     1       3.505   7.412   8.207  0.00  0.00    +0.325 C 
ATOM     29  F   UNL     1       4.164   6.181   8.117  0.00  0.00    -0.211 F 
ATOM     30  F   UNL     1       4.353   8.429   7.757  0.00  0.00    -0.211 F 
ENDBRANCH  27  28
ENDBRANCH  23  27
ENDBRANCH   8  20
TORSDOF 4
