REMARK  Name = ZINC52603800
REMARK  9 active torsions:
REMARK  status: ('A' for Active; 'I' for Inactive)
REMARK    1  A    between atoms: C_4  and  C_32
REMARK    2  A    between atoms: C_5  and  C_7
REMARK    3  A    between atoms: C_7  and  N_8
REMARK    4  A    between atoms: C_9  and  C_11
REMARK    5  A    between atoms: C_11  and  N_12
REMARK    6  A    between atoms: C_16  and  N_20
REMARK    7  A    between atoms: N_20  and  C_21
REMARK    8  A    between atoms: C_21  and  C_22
REMARK    9  A    between atoms: C_22  and  C_23
REMARK                            x       y       z     vdW  Elec       q    Type
REMARK                         _______ _______ _______ _____ _____    ______ ____
ROOT
ATOM      1  N   UNL     1       1.830  -5.978   2.953  0.00  0.00    -0.269 N 
ATOM      2  C   UNL     1       0.584  -6.702   3.176  0.00  0.00    +0.210 C 
ATOM      3  C   UNL     1       0.847  -8.118   3.591  0.00  0.00    +0.118 C 
ATOM      4  N   UNL     1       1.941  -8.717   3.385  0.00  0.00    -0.265 NA
ATOM      5  C   UNL     1       3.083  -8.110   2.718  0.00  0.00    +0.259 C 
ATOM      6  C   UNL     1       2.990  -6.612   2.734  0.00  0.00    +0.257 C 
ATOM      7  O   UNL     1       3.993  -5.957   2.547  0.00  0.00    -0.272 OA
ATOM      8 CL   UNL     1      -0.357  -5.872   4.471  0.00  0.00    -0.095 Cl
ENDROOT
BRANCH   5   9
ATOM      9  N   UNL     1       3.127  -8.569   1.323  0.00  0.00    -0.282 NA
ATOM     10  H   UNL     1       2.232  -8.935   1.035  0.00  0.00    +0.125 HD
BRANCH   9  11
ATOM     11  C   UNL     1       4.190  -9.564   1.130  0.00  0.00    +0.165 C 
BRANCH  11  12
ATOM     12  C   UNL     1       4.205 -10.018  -0.332  0.00  0.00    +0.302 C 
ATOM     13  F   UNL     1       2.969 -10.587  -0.655  0.00  0.00    -0.197 F 
ATOM     14  F   UNL     1       4.442  -8.915  -1.160  0.00  0.00    -0.197 F 
BRANCH  12  15
ATOM     15  C   UNL     1       5.295 -11.039  -0.530  0.00  0.00    +0.111 A 
ATOM     16  C   UNL     1       5.498 -11.587  -1.783  0.00  0.00    +0.029 A 
ATOM     17  C   UNL     1       6.504 -12.525  -1.954  0.00  0.00    +0.003 A 
ATOM     18  C   UNL     1       7.272 -12.878  -0.855  0.00  0.00    +0.020 A 
ATOM     19  C   UNL     1       7.011 -12.287   0.366  0.00  0.00    +0.111 A 
ATOM     20  N   UNL     1       6.049 -11.394   0.492  0.00  0.00    -0.254 NA
ENDBRANCH  12  15
ENDBRANCH  11  12
ENDBRANCH   9  11
ENDBRANCH   5   9
BRANCH   1  21
ATOM     21  C   UNL     1       1.812  -4.513   2.961  0.00  0.00    +0.205 C 
BRANCH  21  23
ATOM     22  N   UNL     1       1.483  -2.680   1.333  0.00  0.00    -0.310 N 
ATOM     23  C   UNL     1       1.545  -4.006   1.567  0.00  0.00    +0.231 C 
ATOM     24  O   UNL     1       1.385  -4.791   0.657  0.00  0.00    -0.274 OA
ATOM     25  H   UNL     1       1.611  -2.053   2.061  0.00  0.00    +0.149 HD
BRANCH  22  26
ATOM     26  C   UNL     1       1.224  -2.188  -0.022  0.00  0.00    +0.140 C 
BRANCH  26  31
ATOM     27  C   UNL     1      -0.017   1.379   0.010  0.00  0.00    +0.000 A 
ATOM     28  C   UNL     1       1.169   2.093   0.002  0.00  0.00    +0.001 A 
ATOM     29  C   UNL     1       2.377   1.428  -0.013  0.00  0.00    +0.012 A 
ATOM     30  C   UNL     1       2.403   0.033  -0.021  0.00  0.00    +0.027 A 
ATOM     31  C   UNL     1       1.205  -0.681  -0.013  0.00  0.00    -0.020 A 
ATOM     32  C   UNL     1       0.002  -0.004   0.002  0.00  0.00    +0.006 A 
BRANCH  30  33
ATOM     33  C   UNL     1       3.696  -0.686  -0.038  0.00  0.00    +0.207 A 
ATOM     34  N   UNL     1       3.874  -2.009  -0.053  0.00  0.00    -0.106 NA
ATOM     35  N   UNL     1       5.144  -2.228  -0.065  0.00  0.00    -0.021 NA
ATOM     36  N   UNL     1       5.770  -1.104  -0.059  0.00  0.00    -0.021 NA
ATOM     37  N   UNL     1       4.913  -0.140  -0.048  0.00  0.00    -0.106 NA
ENDBRANCH  30  33
ENDBRANCH  26  31
ENDBRANCH  22  26
ENDBRANCH  21  23
ENDBRANCH   1  21
TORSDOF 9
