REMARK  Name = ZINC39596038
REMARK  10 active torsions:
REMARK  status: ('A' for Active; 'I' for Inactive)
REMARK    1  A    between atoms: C_1  and  C_2
REMARK    2  A    between atoms: C_2  and  O_3
REMARK    3  A    between atoms: O_3  and  C_4
REMARK    4  A    between atoms: C_9  and  C_10
REMARK    5  A    between atoms: C_14  and  C_23
REMARK    6  A    between atoms: N_25  and  C_26
REMARK    7  A    between atoms: C_26  and  C_27
REMARK    8  A    between atoms: C_27  and  C_29
REMARK    9  A    between atoms: C_27  and  O_30
REMARK   10  A    between atoms: O_30  and  C_31
REMARK                            x       y       z     vdW  Elec       q    Type
REMARK                         _______ _______ _______ _____ _____    ______ ____
ROOT
ATOM      1  C   UNL     1      -4.194  -1.236  -0.179  0.00  0.00    +0.250 C 
ATOM      2  O   UNL     1      -4.114  -0.024  -0.138  0.00  0.00    -0.270 OA
ATOM      3  N   UNL     1      -5.402  -1.830  -0.250  0.00  0.00    -0.296 N 
ATOM      4  C   UNL     1      -5.706  -3.280  -0.202  0.00  0.00    +0.121 C 
ATOM      5  C   UNL     1      -6.992  -3.381   0.648  0.00  0.00    +0.100 C 
ATOM      6  C   UNL     1      -7.659  -2.001   0.517  0.00  0.00    -0.004 C 
ATOM      7  C   UNL     1      -6.727  -1.180  -0.386  0.00  0.00    +0.115 C 
ATOM      8  C   UNL     1      -7.774  -1.338   1.887  0.00  0.00    -0.010 C 
ATOM      9  C   UNL     1      -8.491   0.007   1.738  0.00  0.00    -0.082 C 
ATOM     10  N   UNL     1      -9.824  -0.208   1.162  0.00  0.00    +0.379 N 
ATOM     11  C   UNL     1      -9.701  -0.760  -0.193  0.00  0.00    -0.082 C 
ATOM     12  C   UNL     1      -9.035  -2.137  -0.126  0.00  0.00    -0.010 C 
ATOM     13  H   UNL     1     -10.339  -0.853   1.741  0.00  0.00    -0.086 HD
ATOM     14  H   UNL     1     -10.317   0.671   1.121  0.00  0.00    -0.086 HD
ENDROOT
BRANCH   1  20
ATOM     15  C   UNL     1      -1.860  -1.645   0.600  0.00  0.00    +0.133 A 
ATOM     16  C   UNL     1      -0.715  -2.428   0.623  0.00  0.00    +0.046 A 
ATOM     17  C   UNL     1      -0.668  -3.605  -0.096  0.00  0.00    +0.004 A 
ATOM     18  C   UNL     1      -1.760  -4.014  -0.845  0.00  0.00    +0.001 A 
ATOM     19  C   UNL     1      -2.905  -3.249  -0.879  0.00  0.00    +0.017 A 
ATOM     20  C   UNL     1      -2.969  -2.058  -0.151  0.00  0.00    +0.078 A 
BRANCH  15  21
ATOM     21  O   UNL     1      -1.908  -0.487   1.305  0.00  0.00    -0.491 OA
BRANCH  21  23
ATOM     22  C   UNL     1      -0.981   1.195   2.772  0.00  0.00    +0.048 C 
ATOM     23  C   UNL     1      -0.740  -0.130   2.047  0.00  0.00    +0.226 C 
ENDBRANCH  21  23
ENDBRANCH  15  21
ENDBRANCH   1  20
BRANCH   5  24
ATOM     24  C   UNL     1      -7.897  -4.457   0.104  0.00  0.00    +0.218 C 
ATOM     25  O   UNL     1      -7.840  -4.761  -1.068  0.00  0.00    -0.275 OA
ATOM     26  N   UNL     1      -8.769  -5.080   0.921  0.00  0.00    -0.312 N 
ATOM     27  H   UNL     1      -8.814  -4.837   1.859  0.00  0.00    +0.149 HD
BRANCH  26  28
ATOM     28  C   UNL     1      -9.648  -6.126   0.393  0.00  0.00    +0.148 C 
BRANCH  28  29
ATOM     29  C   UNL     1     -10.532  -6.667   1.518  0.00  0.00    +0.187 C 
ATOM     30  C   UNL     1     -11.361  -7.842   0.997  0.00  0.00    +0.053 C 
BRANCH  29  31
ATOM     31  O   UNL     1     -11.406  -5.633   1.976  0.00  0.00    -0.488 OA
BRANCH  31  32
ATOM     32  C   UNL     1     -11.890  -5.749   3.241  0.00  0.00    +0.121 A 
ATOM     33  C   UNL     1     -11.491  -6.808   4.043  0.00  0.00    +0.048 A 
ATOM     34  C   UNL     1     -11.983  -6.924   5.328  0.00  0.00    +0.042 A 
ATOM     35  C   UNL     1     -12.876  -5.985   5.816  0.00  0.00    +0.124 A 
ATOM     36  C   UNL     1     -13.276  -4.928   5.016  0.00  0.00    +0.042 A 
ATOM     37  C   UNL     1     -12.780  -4.805   3.733  0.00  0.00    +0.048 A 
ATOM     38  F   UNL     1     -13.358  -6.101   7.073  0.00  0.00    -0.205 F 
ENDBRANCH  31  32
ENDBRANCH  29  31
ENDBRANCH  28  29
ENDBRANCH  26  28
ENDBRANCH   5  24
TORSDOF 8
