REMARK  Name = ZINC39639383
REMARK  6 active torsions:
REMARK  status: ('A' for Active; 'I' for Inactive)
REMARK    1  A    between atoms: C_1  and  C_2
REMARK    2  A    between atoms: C_5  and  C_8
REMARK    3  A    between atoms: C_8  and  C_10
REMARK    4  A    between atoms: C_8  and  N_11
REMARK    5  A    between atoms: C_12  and  C_14
REMARK    6  A    between atoms: C_25  and  C_27
REMARK                            x       y       z     vdW  Elec       q    Type
REMARK                         _______ _______ _______ _____ _____    ______ ____
ROOT
ATOM      1  C   UNL     1       2.503  -6.437   1.874  0.00  0.00    +0.100 C 
ATOM      2  C   UNL     1       3.798  -5.598   1.972  0.00  0.00    +0.121 C 
ATOM      3  N   UNL     1       4.859  -6.584   2.282  0.00  0.00    -0.297 N 
ATOM      4  C   UNL     1       4.516  -7.768   1.458  0.00  0.00    +0.115 C 
ATOM      5  C   UNL     1       2.979  -7.859   1.535  0.00  0.00    -0.004 C 
ATOM      6  C   UNL     1       2.409  -8.301   0.191  0.00  0.00    -0.010 C 
ATOM      7  C   UNL     1       2.848  -9.740  -0.097  0.00  0.00    -0.082 C 
ATOM      8  N   UNL     1       2.370 -10.623   0.974  0.00  0.00    +0.379 N 
ATOM      9  C   UNL     1       2.995 -10.248   2.248  0.00  0.00    -0.082 C 
ATOM     10  C   UNL     1       2.563  -8.832   2.635  0.00  0.00    -0.010 C 
ATOM     11  C   UNL     1       5.902  -6.439   3.124  0.00  0.00    +0.260 C 
ATOM     12  O   UNL     1       5.999  -5.438   3.802  0.00  0.00    -0.271 OA
ATOM     13  H   UNL     1       1.367 -10.538   1.055  0.00  0.00    -0.086 HD
ATOM     14  H   UNL     1       2.607 -11.578   0.752  0.00  0.00    -0.086 HD
ENDROOT
BRANCH  11  15
ATOM     15  C   UNL     1       6.948  -7.519   3.222  0.00  0.00    +0.296 C 
ATOM     16  C   UNL     1       7.738  -7.596   1.909  0.00  0.00    +0.283 C 
ATOM     17  O   UNL     1       8.730  -8.620   2.042  0.00  0.00    -0.484 OA
ATOM     18  C   UNL     1       9.460  -8.620   3.191  0.00  0.00    +0.162 A 
ATOM     19  C   UNL     1      10.651  -9.327   3.241  0.00  0.00    +0.049 A 
ATOM     20  C   UNL     1      11.402  -9.339   4.401  0.00  0.00    +0.004 A 
ATOM     21  C   UNL     1      10.967  -8.645   5.515  0.00  0.00    +0.004 A 
ATOM     22  C   UNL     1       9.781  -7.936   5.472  0.00  0.00    +0.049 A 
ATOM     23  C   UNL     1       9.024  -7.920   4.310  0.00  0.00    +0.163 A 
ATOM     24  O   UNL     1       7.862  -7.211   4.280  0.00  0.00    -0.473 OA
ENDBRANCH  11  15
BRANCH   1  26
ATOM     25  N   UNL     1       0.293  -6.163   0.797  0.00  0.00    -0.308 N 
ATOM     26  C   UNL     1       1.616  -5.905   0.778  0.00  0.00    +0.219 C 
ATOM     27  O   UNL     1       2.092  -5.245  -0.122  0.00  0.00    -0.275 OA
ATOM     28  H   UNL     1      -0.087  -6.691   1.516  0.00  0.00    +0.149 HD
BRANCH  25  29
ATOM     29  C   UNL     1      -0.569  -5.647  -0.269  0.00  0.00    +0.100 C 
ATOM     30  C   UNL     1      -0.547  -6.612  -1.456  0.00  0.00    +0.033 C 
BRANCH  29  35
ATOM     31  C   UNL     1      -5.979  -5.146   1.702  0.00  0.00    +0.044 C 
ATOM     32  C   UNL     1      -4.568  -5.277   1.188  0.00  0.00    -0.050 A 
ATOM     33  C   UNL     1      -4.040  -4.301   0.362  0.00  0.00    +0.004 A 
ATOM     34  C   UNL     1      -2.746  -4.421  -0.109  0.00  0.00    +0.006 A 
ATOM     35  C   UNL     1      -1.980  -5.516   0.246  0.00  0.00    -0.027 A 
ATOM     36  C   UNL     1      -2.507  -6.490   1.072  0.00  0.00    +0.006 A 
ATOM     37  C   UNL     1      -3.800  -6.369   1.546  0.00  0.00    +0.004 A 
ENDBRANCH  29  35
ENDBRANCH  25  29
ENDBRANCH   1  26
TORSDOF 4
