REMARK  Name = ZINC43266390
REMARK  4 active torsions:
REMARK  status: ('A' for Active; 'I' for Inactive)
REMARK    1  A    between atoms: C_1  and  N_2
REMARK    2  A    between atoms: N_2  and  C_3
REMARK    3  A    between atoms: C_3  and  C_4
REMARK    4  A    between atoms: N_12  and  C_13
REMARK                            x       y       z     vdW  Elec       q    Type
REMARK                         _______ _______ _______ _____ _____    ______ ____
ROOT
ATOM      1  C   UNL     1       0.008   1.433   0.027  0.00  0.00    +0.134 C 
ATOM      2  N   UNL     1      -0.161  -0.022  -0.002  0.00  0.00    -0.281 N 
ATOM      3  C   UNL     1      -0.168  -0.676  -1.181  0.00  0.00    +0.307 C 
ATOM      4  O   UNL     1      -0.308  -1.883  -1.205  0.00  0.00    -0.252 OA
ATOM      5  N   UNL     1      -0.020   0.009  -2.332  0.00  0.00    -0.269 N 
ATOM      6  H   UNL     1       0.015   0.978  -2.319  0.00  0.00    +0.156 HD
ENDROOT
BRANCH   5   7
ATOM      7  C   UNL     1       0.083  -0.680  -3.548  0.00  0.00    +0.038 A 
ATOM      8  C   UNL     1      -0.431  -0.120  -4.709  0.00  0.00    +0.026 A 
ATOM      9  C   UNL     1      -0.328  -0.799  -5.908  0.00  0.00    +0.043 A 
ATOM     10  C   UNL     1       0.288  -2.038  -5.952  0.00  0.00    +0.159 A 
ATOM     11  C   UNL     1       0.803  -2.600  -4.794  0.00  0.00    +0.160 A 
ATOM     12  C   UNL     1       0.706  -1.920  -3.593  0.00  0.00    +0.064 A 
ATOM     13  F   UNL     1       1.403  -3.809  -4.838  0.00  0.00    -0.202 F 
ATOM     14  F   UNL     1       0.387  -2.701  -7.125  0.00  0.00    -0.202 F 
ENDBRANCH   5   7
BRANCH   2  15
ATOM     15  C   UNL     1      -0.321  -0.766   1.250  0.00  0.00    +0.183 C 
BRANCH  15  16
ATOM     16  C   UNL     1      -1.785  -0.856   1.596  0.00  0.00    +0.124 A 
ATOM     17  C   UNL     1      -2.624  -1.837   1.218  0.00  0.00    +0.047 A 
ATOM     18  C   UNL     1      -3.892  -1.524   1.760  0.00  0.00    +0.057 A 
ATOM     19  C   UNL     1      -3.752  -0.369   2.438  0.00  0.00    +0.170 A 
ATOM     20  O   UNL     1      -2.472   0.027   2.340  0.00  0.00    -0.452 OA
ATOM     21 BR   UNL     1      -5.121   0.536   3.376  0.00  0.00    -0.008 Br
ENDBRANCH  15  16
ENDBRANCH   2  15
TORSDOF 3
