REMARK  Name = ZINC08919980
REMARK  7 active torsions:
REMARK  status: ('A' for Active; 'I' for Inactive)
REMARK    1  A    between atoms: C_1  and  C_2
REMARK    2  A    between atoms: C_5  and  C_9
REMARK    3  A    between atoms: C_7  and  C_8
REMARK    4  A    between atoms: N_16  and  C_19
REMARK    5  A    between atoms: C_19  and  C_20
REMARK    6  A    between atoms: N_22  and  C_23
REMARK    7  A    between atoms: C_24  and  C_32
REMARK                            x       y       z     vdW  Elec       q    Type
REMARK                         _______ _______ _______ _____ _____    ______ ____
ROOT
ATOM      1  C   UNL     1      -2.446   0.951   0.019  0.00  0.00    +0.222 C 
ENDROOT
BRANCH   1   9
ATOM      2  C   UNL     1       0.146   5.267   0.029  0.00  0.00    +0.004 A 
ATOM      3  C   UNL     1       1.410   5.755   0.019  0.00  0.00    +0.056 A 
ATOM      4  S   UNL     1       2.420   4.286   0.002  0.00  0.00    -0.076 S 
ATOM      5  C   UNL     1       1.135   3.063   0.008  0.00  0.00    +0.116 A 
ATOM      6  C   UNL     1      -0.047   3.822   0.023  0.00  0.00    +0.080 A 
ATOM      7  C   UNL     1      -1.266   3.071   0.031  0.00  0.00    +0.263 A 
ATOM      8  O   UNL     1      -2.344   3.641   0.044  0.00  0.00    -0.267 OA
ATOM      9  N   UNL     1      -1.204   1.727   0.017  0.00  0.00    -0.290 N 
ATOM     10  C   UNL     1      -0.013   1.076   0.008  0.00  0.00    +0.203 A 
ATOM     11  N   UNL     1       1.116   1.733   0.001  0.00  0.00    -0.230 NA
BRANCH   2  16
ATOM     12  C   UNL     1      -4.375   8.832   0.093  0.00  0.00    +0.044 C 
ATOM     13  C   UNL     1      -3.192   7.899   0.076  0.00  0.00    -0.048 A 
ATOM     14  C   UNL     1      -3.137   6.872  -0.849  0.00  0.00    +0.004 A 
ATOM     15  C   UNL     1      -2.054   6.018  -0.873  0.00  0.00    +0.009 A 
ATOM     16  C   UNL     1      -1.018   6.185   0.045  0.00  0.00    -0.016 A 
ATOM     17  C   UNL     1      -1.078   7.222   0.975  0.00  0.00    +0.012 A 
ATOM     18  C   UNL     1      -2.164   8.073   0.986  0.00  0.00    -0.047 A 
ATOM     19  C   UNL     1      -2.231   9.194   1.991  0.00  0.00    +0.044 C 
ENDBRANCH   2  16
ENDBRANCH   1   9
BRANCH   1  20
ATOM     20  C   UNL     1      -2.866   0.677   1.440  0.00  0.00    +0.237 C 
ATOM     21  O   UNL     1      -2.193   1.089   2.361  0.00  0.00    -0.273 OA
ATOM     22  N   UNL     1      -3.988  -0.026   1.688  0.00  0.00    -0.278 N 
ATOM     23  H   UNL     1      -4.599  -0.401   0.853  0.00  0.00    +0.155 HD
BRANCH  22  24
ATOM     24  C   UNL     1      -4.374  -0.279   2.996  0.00  0.00    +0.084 A 
ATOM     25  C   UNL     1      -5.488  -0.972   3.448  0.00  0.00    +0.068 A 
ATOM     26  C   UNL     1      -5.663  -1.098   4.885  0.00  0.00    -0.023 A 
ATOM     27  C   UNL     1      -4.707  -0.507   5.635  0.00  0.00    -0.004 A 
ATOM     28  S   UNL     1      -3.586   0.202   4.462  0.00  0.00    -0.077 S 
ATOM     29  C   UNL     1      -4.628  -0.468   7.130  0.00  0.00    +0.043 C 
ATOM     30  C   UNL     1      -5.994  -0.879   7.698  0.00  0.00    +0.005 C 
ATOM     31  C   UNL     1      -6.461  -2.152   6.986  0.00  0.00    +0.005 C 
ATOM     32  C   UNL     1      -6.829  -1.832   5.536  0.00  0.00    +0.037 C 
BRANCH  25  33
ATOM     33  C   UNL     1      -6.451  -1.558   2.511  0.00  0.00    +0.244 C 
ATOM     34  O   UNL     1      -6.297  -2.697   2.113  0.00  0.00    -0.270 OA
ATOM     35  N   UNL     1      -7.507  -0.834   2.089  0.00  0.00    -0.325 N 
ATOM     36  H   UNL     1      -8.229  -1.274   1.386  0.00  0.00    +0.145 HD
ATOM     37  H   UNL     1      -7.646   0.196   2.448  0.00  0.00    +0.145 HD
ENDBRANCH  25  33
ENDBRANCH  22  24
ENDBRANCH   1  20
TORSDOF 5
