REMARK  Name = ZINC37018354
REMARK  4 active torsions:
REMARK  status: ('A' for Active; 'I' for Inactive)
REMARK    1  A    between atoms: C_3  and  N_21
REMARK    2  A    between atoms: C_4  and  C_8
REMARK    3  A    between atoms: N_10  and  C_11
REMARK    4  A    between atoms: C_16  and  N_17
REMARK                            x       y       z     vdW  Elec       q    Type
REMARK                         _______ _______ _______ _____ _____    ______ ____
ROOT
ATOM      1  C   UNL     1       3.464  -0.619  -0.058  0.00  0.00    +0.250 C 
ATOM      2  O   UNL     1       4.543  -0.071   0.062  0.00  0.00    -0.270 OA
ATOM      3  N   UNL     1       3.400  -1.959  -0.187  0.00  0.00    -0.280 N 
ATOM      4  H   UNL     1       2.545  -2.391  -0.346  0.00  0.00    +0.155 HD
ENDROOT
BRANCH   1   8
ATOM      5  C   UNL     1      -0.103   1.692  -0.074  0.00  0.00    +0.040 A 
ATOM      6  C   UNL     1       1.121   2.329  -0.055  0.00  0.00    +0.026 A 
ATOM      7  C   UNL     1       2.294   1.584  -0.049  0.00  0.00    +0.037 A 
ATOM      8  C   UNL     1       2.227   0.182  -0.064  0.00  0.00    +0.060 A 
ATOM      9  C   UNL     1       0.981  -0.449  -0.083  0.00  0.00    +0.053 A 
ATOM     10  C   UNL     1      -0.174   0.307  -0.089  0.00  0.00    +0.124 A 
ATOM     11  F   UNL     1      -1.378  -0.305  -0.107  0.00  0.00    -0.205 F 
BRANCH   7  12
ATOM     12  N   UNL     1       3.527   2.224  -0.030  0.00  0.00    -0.357 N 
ATOM     13  H   UNL     1       3.574   3.191  -0.099  0.00  0.00    +0.142 HD
ATOM     14  H   UNL     1       4.342   1.704   0.052  0.00  0.00    +0.142 HD
ENDBRANCH   7  12
ENDBRANCH   1   8
BRANCH   3  15
ATOM     15  C   UNL     1       4.564  -2.728  -0.093  0.00  0.00    +0.066 A 
ATOM     16  C   UNL     1       5.765  -2.236  -0.589  0.00  0.00    +0.045 A 
ATOM     17  C   UNL     1       6.914  -2.998  -0.494  0.00  0.00    +0.043 A 
ATOM     18  C   UNL     1       6.868  -4.250   0.095  0.00  0.00    +0.022 A 
ATOM     19  C   UNL     1       5.675  -4.741   0.590  0.00  0.00    +0.036 A 
ATOM     20  C   UNL     1       4.524  -3.982   0.503  0.00  0.00    +0.147 A 
ATOM     21 CL   UNL     1       8.415  -2.385  -1.115  0.00  0.00    -0.083 Cl
BRANCH  20  22
ATOM     22  N   UNL     1       3.248  -4.506   1.039  0.00  0.00    +0.058 N 
ATOM     23  O   UNL     1       3.229  -5.559   1.634  0.00  0.00    -0.126 OA
ATOM     24  O   UNL     1       2.224  -3.883   0.881  0.00  0.00    -0.126 OA
ENDBRANCH  20  22
ENDBRANCH   3  15
TORSDOF 4
