REMARK  Name = ZINC15956561
REMARK  13 active torsions:
REMARK  status: ('A' for Active; 'I' for Inactive)
REMARK    1  A    between atoms: CD1_1  and  CG1_2
REMARK    2  A    between atoms: CG1_2  and  CB_3
REMARK    3  A    between atoms: CB_3  and  CG2_5
REMARK    4  A    between atoms: CB_3  and  CA_6
REMARK    5  A    between atoms: CA_6  and  C_8
REMARK    6  A    between atoms: CA_6  and  N_10
REMARK    7  A    between atoms: C_11  and  C_13
REMARK    8  A    between atoms: C_13  and  N_14
REMARK    9  A    between atoms: C_15  and  C_17
REMARK   10  A    between atoms: C_17  and  C_18
REMARK   11  A    between atoms: C_19  and  C_34
REMARK   12  A    between atoms: C_23  and  C_33
REMARK   13  A    between atoms: C_24  and  C_32
REMARK                            x       y       z     vdW  Elec       q    Type
REMARK                         _______ _______ _______ _____ _____    ______ ____
ROOT
ATOM      1  C   UNK A   0       5.971   2.450  -0.042  0.00  0.00    +0.138 C 
ENDROOT
BRANCH   1   2
ATOM      2  C   UNK A   0       7.286   1.714  -0.058  0.00  0.00    +0.049 A 
ATOM      3  C   UNK A   0       7.869   1.388  -1.240  0.00  0.00    -0.029 A 
ATOM      4  C   UNK A   0       9.148   0.673  -1.208  0.00  0.00    +0.022 A 
ATOM      5  C   UNK A   0       9.793   0.311  -2.391  0.00  0.00    +0.023 A 
ATOM      6  C   UNK A   0      11.002  -0.366  -2.325  0.00  0.00    +0.024 A 
ATOM      7  C   UNK A   0      11.937  -0.891  -3.332  0.00  0.00    -0.002 A 
ATOM      8  C   UNK A   0      12.942  -1.454  -2.650  0.00  0.00    +0.106 A 
ATOM      9  O   UNK A   0      12.732  -1.335  -1.327  0.00  0.00    -0.460 OA
ATOM     10  C   UNK A   0      11.576  -0.687  -1.078  0.00  0.00    +0.139 A 
ATOM     11  C   UNK A   0      10.928  -0.324   0.094  0.00  0.00    +0.093 A 
ATOM     12  C   UNK A   0       9.721   0.352   0.040  0.00  0.00    +0.143 A 
ATOM     13  O   UNK A   0       9.086   0.707   1.179  0.00  0.00    -0.422 OA
ATOM     14  C   UNK A   0       7.918   1.367   1.155  0.00  0.00    +0.341 A 
ATOM     15  O   UNK A   0       7.387   1.671   2.208  0.00  0.00    -0.245 OA
ATOM     16  C   UNK A   0      14.137  -2.125  -3.276  0.00  0.00    +0.086 C 
ATOM     17  C   UNK A   0      11.792  -0.811  -4.830  0.00  0.00    +0.048 C 
ATOM     18  C   UNK A   0       7.218   1.753  -2.550  0.00  0.00    +0.045 C 
ENDBRANCH   1   2
BRANCH   1  20
ATOM     19  N   UNK A   0       3.562   1.887  -0.022  0.00  0.00    -0.306 N 
ATOM     20  C   UNK A   0       4.839   1.455  -0.036  0.00  0.00    +0.218 C 
ATOM     21  O   UNK A   0       5.077   0.266  -0.045  0.00  0.00    -0.275 OA
ATOM     22  H   UNK A   0       3.372   2.838  -0.015  0.00  0.00    +0.149 HD
BRANCH  19  23
ATOM     23  C   UNK A   0       2.462   0.920  -0.017  0.00  0.00    +0.200 C 
BRANCH  23  25
ATOM     24  N   ILE A   1      -0.011   0.966   0.007  0.00  0.00    -0.301 N 
ATOM     25  C   UNK A   0       1.147   1.655   0.000  0.00  0.00    +0.231 C 
ATOM     26  O   UNK A   0       1.130   2.868   0.007  0.00  0.00    -0.274 OA
ATOM     27  H   ILE A   1       0.002  -0.004   0.002  0.00  0.00    +0.150 HD
BRANCH  24  28
ATOM     28  CA  ILE A   1      -1.290   1.681   0.017  0.00  0.00    +0.189 C 
BRANCH  28  29
ATOM     29  C   ILE A   1      -1.674   2.042  -1.394  0.00  0.00    +0.376 C 
ATOM     30  O   ILE A   1      -0.954   1.734  -2.314  0.00  0.00    -0.244 OA
ATOM     31  OXT ILE A   1      -2.817   2.706  -1.630  0.00  0.00    -0.244 OA
ENDBRANCH  28  29
BRANCH  28  32
ATOM     32  CB  ILE A   1      -2.370   0.786   0.627  0.00  0.00    +0.017 C 
ATOM     33  CG2 ILE A   1      -2.506  -0.490  -0.206  0.00  0.00    +0.010 C 
BRANCH  32  35
ATOM     34  CD1 ILE A   1      -4.757   0.687   1.359  0.00  0.00    +0.004 C 
ATOM     35  CG1 ILE A   1      -3.705   1.533   0.638  0.00  0.00    +0.002 C 
ENDBRANCH  32  35
ENDBRANCH  28  32
ENDBRANCH  24  28
ENDBRANCH  23  25
ENDBRANCH  19  23
ENDBRANCH   1  20
TORSDOF 8
