REMARK  Name = ZINC42918069
REMARK  6 active torsions:
REMARK  status: ('A' for Active; 'I' for Inactive)
REMARK    1  A    between atoms: C_1  and  C_2
REMARK    2  A    between atoms: C_4  and  C_13
REMARK    3  A    between atoms: N_15  and  C_16
REMARK    4  A    between atoms: C_18  and  N_26
REMARK    5  A    between atoms: C_21  and  O_22
REMARK    6  A    between atoms: O_22  and  C_23
REMARK                            x       y       z     vdW  Elec       q    Type
REMARK                         _______ _______ _______ _____ _____    ______ ____
ROOT
ATOM      1  C   UNL     1       0.006  -2.808  -2.515  0.00  0.00    +0.249 C 
ATOM      2  O   UNL     1       0.108  -4.019  -2.510  0.00  0.00    -0.270 OA
ATOM      3  N   UNL     1      -0.089  -2.145  -3.684  0.00  0.00    -0.278 N 
ATOM      4  H   UNL     1      -0.087  -1.175  -3.693  0.00  0.00    +0.155 HD
ENDROOT
BRANCH   1   8
ATOM      5  C   UNL     1      -0.029   1.504   0.010  0.00  0.00    +0.065 C 
ATOM      6  C   UNL     1      -0.030  -0.003   0.002  0.00  0.00    +0.040 A 
ATOM      7  C   UNL     1      -0.012  -0.673  -1.218  0.00  0.00    +0.036 A 
ATOM      8  C   UNL     1      -0.013  -2.062  -1.238  0.00  0.00    +0.048 A 
ATOM      9  C   UNL     1      -0.034  -2.741   0.007  0.00  0.00    +0.013 A 
ATOM     10  C   UNL     1      -0.036  -4.141   0.074  0.00  0.00    +0.013 A 
ATOM     11  C   UNL     1      -0.056  -4.758   1.288  0.00  0.00    +0.039 A 
ATOM     12  C   UNL     1      -0.074  -4.013   2.468  0.00  0.00    +0.125 A 
ATOM     13  C   UNL     1      -0.073  -2.650   2.438  0.00  0.00    +0.066 A 
ATOM     14  C   UNL     1      -0.052  -1.980   1.202  0.00  0.00    +0.075 A 
ATOM     15  N   UNL     1      -0.044  -0.645   1.144  0.00  0.00    -0.252 NA
ATOM     16  F   UNL     1      -0.094  -4.652   3.658  0.00  0.00    -0.205 F 
ENDBRANCH   1   8
BRANCH   3  17
ATOM     17  C   UNL     1      -0.191  -2.856  -4.886  0.00  0.00    +0.078 A 
ATOM     18  C   UNL     1      -0.871  -4.065  -4.923  0.00  0.00    +0.059 A 
ATOM     19  C   UNL     1      -0.970  -4.765  -6.111  0.00  0.00    +0.128 A 
ATOM     20  C   UNL     1      -0.394  -4.263  -7.263  0.00  0.00    +0.036 A 
ATOM     21  C   UNL     1       0.284  -3.059  -7.234  0.00  0.00    +0.050 A 
ATOM     22  C   UNL     1       0.384  -2.348  -6.049  0.00  0.00    +0.148 A 
BRANCH  19  23
ATOM     23  N   UNL     1      -1.695  -6.055  -6.149  0.00  0.00    +0.056 N 
ATOM     24  O   UNL     1      -2.199  -6.495  -5.142  0.00  0.00    -0.126 OA
ATOM     25  O   UNL     1      -1.783  -6.668  -7.187  0.00  0.00    -0.126 OA
ENDBRANCH  19  23
BRANCH  22  26
ATOM     26  O   UNL     1       1.046  -1.161  -6.020  0.00  0.00    -0.432 OA
BRANCH  26  27
ATOM     27  C   UNL     1       1.610  -0.703  -7.250  0.00  0.00    +0.541 C 
ATOM     28  F   UNL     1       2.539  -1.640  -7.715  0.00  0.00    -0.166 F 
ATOM     29  F   UNL     1       0.594  -0.543  -8.198  0.00  0.00    -0.166 F 
ENDBRANCH  26  27
ENDBRANCH  22  26
ENDBRANCH   3  17
TORSDOF 5
