REMARK  Name = ZINC12601311
REMARK  6 active torsions:
REMARK  status: ('A' for Active; 'I' for Inactive)
REMARK    1  A    between atoms: C_1  and  O_2
REMARK    2  A    between atoms: O_2  and  C_3
REMARK    3  A    between atoms: C_6  and  N_9
REMARK    4  A    between atoms: N_11  and  N_26
REMARK    5  A    between atoms: C_12  and  C_15
REMARK    6  A    between atoms: C_27  and  C_28
REMARK                            x       y       z     vdW  Elec       q    Type
REMARK                         _______ _______ _______ _____ _____    ______ ____
ROOT
ATOM      1  N   UNL     1       2.900   3.718  -0.106  0.00  0.00    -0.222 NA
ATOM      2  C   UNL     1       2.692   5.019  -0.142  0.00  0.00    +0.195 A 
ATOM      3  N   UNL     1       3.609   6.045  -0.231  0.00  0.00    -0.207 N 
ATOM      4  C   UNL     1       3.149   7.333  -0.255  0.00  0.00    +0.082 A 
ATOM      5  C   UNL     1       1.823   7.570  -0.184  0.00  0.00    +0.077 A 
ATOM      6  S   UNL     1       1.151   5.919  -0.082  0.00  0.00    -0.056 S 
ENDROOT
BRANCH   4   7
ATOM      7  C   UNL     1       4.101   8.461  -0.354  0.00  0.00    +0.003 A 
ATOM      8  C   UNL     1       3.820   9.671   0.282  0.00  0.00    +0.014 A 
ATOM      9  C   UNL     1       4.710  10.722   0.196  0.00  0.00    +0.048 A 
ATOM     10  C   UNL     1       5.881  10.582  -0.532  0.00  0.00    +0.142 A 
ATOM     11  C   UNL     1       6.165   9.377  -1.176  0.00  0.00    +0.076 A 
ATOM     12  C   UNL     1       5.279   8.319  -1.089  0.00  0.00    +0.037 A 
ATOM     13  N   UNL     1       7.353   9.256  -1.910  0.00  0.00    -0.280 N 
ATOM     14  C   UNL     1       8.333  10.167  -1.726  0.00  0.00    +0.255 C 
ATOM     15  O   UNL     1       9.358  10.099  -2.371  0.00  0.00    -0.272 OA
ATOM     16  C   UNL     1       8.148  11.269  -0.714  0.00  0.00    +0.325 C 
ATOM     17  O   UNL     1       6.763  11.614  -0.627  0.00  0.00    -0.481 OA
ATOM     18  H   UNL     1       7.470   8.528  -2.541  0.00  0.00    +0.155 HD
ENDBRANCH   4   7
BRANCH   1  22
ATOM     19  C   UNL     1      -0.318   1.112  -0.130  0.00  0.00    +0.120 A 
ATOM     20  C   UNL     1       0.189   1.596  -1.328  0.00  0.00    +0.048 A 
ATOM     21  C   UNL     1       1.259   2.466  -1.325  0.00  0.00    +0.031 A 
ATOM     22  C   UNL     1       1.837   2.855  -0.114  0.00  0.00    +0.067 A 
ATOM     23  C   UNL     1       1.326   2.361   1.089  0.00  0.00    +0.031 A 
ATOM     24  C   UNL     1       0.256   1.492   1.075  0.00  0.00    +0.048 A 
BRANCH  19  26
ATOM     25  C   UNL     1      -1.849  -0.201   1.130  0.00  0.00    +0.277 C 
ATOM     26  O   UNL     1      -1.377   0.259  -0.138  0.00  0.00    -0.495 OA
ENDBRANCH  19  26
ENDBRANCH   1  22
BRANCH   3  27
ATOM     27  N   UNL     1       4.982   5.774  -0.297  0.00  0.00    -0.172 NA
ATOM     28  C   UNL     1       5.397   4.630  -0.751  0.00  0.00    +0.144 C 
BRANCH  28  29
ATOM     29  C   UNL     1       6.830   4.291  -0.694  0.00  0.00    +0.030 A 
ATOM     30  C   UNL     1       7.296   3.111  -1.281  0.00  0.00    +0.012 A 
ATOM     31  C   UNL     1       8.638   2.800  -1.225  0.00  0.00    +0.001 A 
ATOM     32  C   UNL     1       9.525   3.652  -0.589  0.00  0.00    +0.003 A 
ATOM     33  C   UNL     1       9.073   4.822  -0.005  0.00  0.00    +0.039 A 
ATOM     34  C   UNL     1       7.732   5.150  -0.058  0.00  0.00    +0.132 A 
ATOM     35  F   UNL     1       7.292   6.296   0.508  0.00  0.00    -0.205 F 
ENDBRANCH  28  29
ENDBRANCH   3  27
TORSDOF 5
