REMARK  Name = ZINC23560060
REMARK  15 active torsions:
REMARK  status: ('A' for Active; 'I' for Inactive)
REMARK    1  A    between atoms: C_1  and  C_2
REMARK    2  A    between atoms: C_2  and  C_3
REMARK    3  A    between atoms: C_3  and  C_4
REMARK    4  A    between atoms: C_4  and  N_5
REMARK    5  A    between atoms: C_6  and  N_34
REMARK    6  A    between atoms: C_7  and  N_14
REMARK    7  A    between atoms: N_14  and  C_15
REMARK    8  A    between atoms: C_15  and  C_16
REMARK    9  A    between atoms: C_16  and  O_17
REMARK   10  A    between atoms: O_17  and  C_18
REMARK   11  A    between atoms: C_19  and  C_21
REMARK   12  A    between atoms: C_21  and  S_22
REMARK   13  A    between atoms: S_22  and  C_23
REMARK   14  A    between atoms: C_25  and  C_33
REMARK   15  A    between atoms: C_26  and  C_32
REMARK                            x       y       z     vdW  Elec       q    Type
REMARK                         _______ _______ _______ _____ _____    ______ ____
ROOT
ATOM      1  N   UNL     1       1.334  -0.629   1.739  0.00  0.00    -0.261 N 
ATOM      2  C   UNL     1       2.643  -0.945   1.656  0.00  0.00    +0.230 C 
ATOM      3  O   UNL     1       3.203  -1.464   2.599  0.00  0.00    -0.274 OA
ENDROOT
BRANCH   1   6
ATOM      4  N   UNL     1      -1.033  -1.891   4.250  0.00  0.00    -0.280 N 
ATOM      5  C   UNL     1      -0.376  -1.738   3.051  0.00  0.00    +0.127 A 
ATOM      6  C   UNL     1       0.640  -0.809   2.954  0.00  0.00    +0.140 A 
ATOM      7  C   UNL     1       0.977  -0.049   4.090  0.00  0.00    +0.277 A 
ATOM      8  O   UNL     1       1.873   0.775   4.033  0.00  0.00    -0.266 OA
ATOM      9  N   UNL     1       0.298  -0.235   5.239  0.00  0.00    -0.273 N 
ATOM     10  H   UNL     1       0.548   0.362   6.128  0.00  0.00    +0.173 HD
ATOM     11  C   UNL     1      -0.690  -1.145   5.315  0.00  0.00    +0.331 A 
ATOM     12  O   UNL     1      -1.282  -1.296   6.366  0.00  0.00    -0.246 OA
BRANCH   5  13
ATOM     13  N   UNL     1      -0.727  -2.501   1.963  0.00  0.00    -0.343 N 
ATOM     14  H   UNL     1      -0.197  -2.373   1.008  0.00  0.00    +0.144 HD
ATOM     15  H   UNL     1      -1.538  -3.239   2.048  0.00  0.00    +0.144 HD
ENDBRANCH   5  13
BRANCH   4  16
ATOM     16  C   UNL     1      -2.114  -2.874   4.367  0.00  0.00    +0.128 C 
BRANCH  16  17
ATOM     17  C   UNL     1      -1.534  -4.220   4.804  0.00  0.00    +0.021 C 
BRANCH  17  19
ATOM     18  C   UNL     1      -2.082  -6.593   5.364  0.00  0.00    +0.004 C 
ATOM     19  C   UNL     1      -2.662  -5.246   4.927  0.00  0.00    -0.002 C 
ENDBRANCH  17  19
ENDBRANCH  16  17
ENDBRANCH   4  16
ENDBRANCH   1   6
BRANCH   1  20
ATOM     20  C   UNL     1       0.632  -0.100   0.567  0.00  0.00    +0.142 C 
BRANCH  20  21
ATOM     21  C   UNL     1       0.601   1.428   0.639  0.00  0.00    +0.178 C 
BRANCH  21  22
ATOM     22  O   UNL     1       1.933   1.937   0.544  0.00  0.00    -0.381 OA
ATOM     23  C   UNL     1       2.016   3.363   0.601  0.00  0.00    +0.194 C 
ENDBRANCH  21  22
ENDBRANCH  20  21
ENDBRANCH   1  20
BRANCH   2  24
ATOM     24  C   UNL     1       3.410  -0.652   0.392  0.00  0.00    +0.172 C 
BRANCH  24  25
ATOM     25  S   UNL     1       5.128  -1.187   0.591  0.00  0.00    -0.096 S 
BRANCH  25  26
ATOM     26  C   UNL     1       5.773  -0.739  -0.986  0.00  0.00    +0.109 A 
ATOM     27  C   UNL     1       7.141  -0.973  -1.298  0.00  0.00    +0.043 A 
ATOM     28  C   UNL     1       8.188  -1.575  -0.491  0.00  0.00    -0.029 A 
ATOM     29  C   UNL     1       9.420  -1.702  -1.005  0.00  0.00    -0.008 A 
ATOM     30  S   UNL     1       9.261  -1.015  -2.643  0.00  0.00    -0.074 S 
ATOM     31  C   UNL     1       7.543  -0.577  -2.592  0.00  0.00    +0.113 A 
ATOM     32  N   UNL     1       6.695  -0.021  -3.435  0.00  0.00    -0.228 NA
ATOM     33  C   UNL     1       5.439   0.176  -3.086  0.00  0.00    +0.223 A 
ATOM     34  N   UNL     1       4.992  -0.174  -1.894  0.00  0.00    -0.229 NA
ATOM     35  C   UNL     1      10.648  -2.285  -0.353  0.00  0.00    +0.052 C 
ATOM     36  C   UNL     1       7.894  -2.048   0.910  0.00  0.00    +0.045 C 
ENDBRANCH  25  26
ENDBRANCH  24  25
ENDBRANCH   2  24
TORSDOF 11
