REMARK  Name = ZINC67031470
REMARK  7 active torsions:
REMARK  status: ('A' for Active; 'I' for Inactive)
REMARK    1  A    between atoms: C_1  and  C_2
REMARK    2  A    between atoms: C_5  and  N_23
REMARK    3  A    between atoms: C_7  and  C_8
REMARK    4  A    between atoms: N_10  and  C_11
REMARK    5  A    between atoms: C_16  and  C_17
REMARK    6  A    between atoms: N_19  and  C_20
REMARK    7  A    between atoms: C_20  and  C_21
REMARK                            x       y       z     vdW  Elec       q    Type
REMARK                         _______ _______ _______ _____ _____    ______ ____
ROOT
ATOM      1  C   UNL     1      -0.381  -0.047   2.516  0.00  0.00    +0.249 C 
ATOM      2  O   UNL     1      -1.017   0.982   2.638  0.00  0.00    -0.270 OA
ATOM      3  N   UNL     1       0.409  -0.474   3.521  0.00  0.00    -0.281 N 
ATOM      4  H   UNL     1       0.975  -1.252   3.396  0.00  0.00    +0.155 HD
ENDROOT
BRANCH   1  11
ATOM      5  C   UNL     1      -1.972   0.955   0.317  0.00  0.00    +0.044 C 
ATOM      6  C   UNL     1      -1.237  -0.355   0.198  0.00  0.00    -0.038 A 
ATOM      7  C   UNL     1      -1.314  -1.087  -0.969  0.00  0.00    +0.006 A 
ATOM      8  C   UNL     1      -0.640  -2.290  -1.081  0.00  0.00    +0.033 A 
ATOM      9  C   UNL     1       0.115  -2.768  -0.024  0.00  0.00    +0.127 A 
ATOM     10  C   UNL     1       0.200  -2.046   1.148  0.00  0.00    +0.046 A 
ATOM     11  C   UNL     1      -0.473  -0.829   1.265  0.00  0.00    +0.042 A 
BRANCH   9  12
ATOM     12  N   UNL     1       0.833  -4.056  -0.152  0.00  0.00    +0.056 N 
ATOM     13  O   UNL     1       0.758  -4.690  -1.179  0.00  0.00    -0.126 OA
ATOM     14  O   UNL     1       1.493  -4.475   0.770  0.00  0.00    -0.126 OA
ENDBRANCH   9  12
ENDBRANCH   1  11
BRANCH   3  15
ATOM     15  C   UNL     1       0.413   0.201   4.739  0.00  0.00    +0.046 A 
ATOM     16  C   UNL     1       0.288   1.584   4.770  0.00  0.00    +0.024 A 
ATOM     17  C   UNL     1       0.292   2.251   5.978  0.00  0.00    +0.002 A 
ATOM     18  C   UNL     1       0.420   1.550   7.167  0.00  0.00    +0.001 A 
ATOM     19  C   UNL     1       0.544   0.177   7.155  0.00  0.00    +0.015 A 
ATOM     20  C   UNL     1       0.536  -0.513   5.940  0.00  0.00    +0.058 A 
BRANCH  20  21
ATOM     21  C   UNL     1       0.663  -1.982   5.921  0.00  0.00    +0.246 C 
ATOM     22  O   UNL     1       0.746  -2.571   4.860  0.00  0.00    -0.270 OA
ATOM     23  N   UNL     1       0.686  -2.672   7.078  0.00  0.00    -0.308 N 
ATOM     24  H   UNL     1       0.619  -2.202   7.924  0.00  0.00    +0.149 HD
BRANCH  23  25
ATOM     25  C   UNL     1       0.812  -4.131   7.059  0.00  0.00    +0.131 C 
BRANCH  25  26
ATOM     26  C   UNL     1       0.813  -4.654   8.472  0.00  0.00    -0.016 C 
ATOM     27  C   UNL     1      -0.053  -5.569   8.833  0.00  0.00    +0.005 C 
ENDBRANCH  25  26
ENDBRANCH  23  25
ENDBRANCH  20  21
ENDBRANCH   3  15
TORSDOF 6
