REMARK  Name = ZINC00108489
REMARK  9 active torsions:
REMARK  status: ('A' for Active; 'I' for Inactive)
REMARK    1  A    between atoms: C_1  and  C_2
REMARK    2  A    between atoms: C_2  and  C_3
REMARK    3  A    between atoms: C_2  and  C_4
REMARK    4  A    between atoms: C_4  and  N_5
REMARK    5  A    between atoms: N_5  and  C_6
REMARK    6  A    between atoms: C_7  and  C_20
REMARK    7  A    between atoms: C_9  and  C_11
REMARK    8  A    between atoms: C_11  and  O_12
REMARK    9  A    between atoms: O_12  and  C_13
REMARK                            x       y       z     vdW  Elec       q    Type
REMARK                         _______ _______ _______ _____ _____    ______ ____
ROOT
ATOM      1  C   UNL     1      -2.305   2.569   2.596  0.00  0.00    +0.225 A 
ATOM      2  C   UNL     1      -1.096   2.580   3.271  0.00  0.00    +0.201 A 
ATOM      3  N   UNL     1      -0.148   2.162   2.386  0.00  0.00    -0.198 NA
ATOM      4  C   UNL     1      -0.723   1.911   1.250  0.00  0.00    +0.237 A 
ATOM      5  O   UNL     1      -2.040   2.155   1.344  0.00  0.00    -0.421 OA
ENDROOT
BRANCH   1   6
ATOM      6  N   UNL     1      -3.537   2.920   3.106  0.00  0.00    -0.313 N 
ATOM      7  H   UNL     1      -3.616   3.211   4.028  0.00  0.00    +0.149 HD
BRANCH   6   8
ATOM      8  C   UNL     1      -4.728   2.853   2.255  0.00  0.00    +0.107 C 
BRANCH   8  10
ATOM      9  C   UNL     1      -5.813   4.766   3.442  0.00  0.00    +0.009 C 
ATOM     10  C   UNL     1      -5.954   3.291   3.058  0.00  0.00    -0.000 C 
ATOM     11  C   UNL     1      -7.213   3.103   2.209  0.00  0.00    +0.009 C 
ENDBRANCH   8  10
ENDBRANCH   6   8
ENDBRANCH   1   6
BRANCH   2  12
ATOM     12  C   UNL     1      -0.883   2.958   4.636  0.00  0.00    +0.124 C 
ATOM     13  N   UNL     1      -0.714   3.258   5.719  0.00  0.00    -0.189 NA
ENDBRANCH   2  12
BRANCH   4  14
ATOM     14  C   UNL     1      -0.017   1.425   0.010  0.00  0.00    +0.325 C 
BRANCH  14  15
ATOM     15  O   UNL     1       0.002  -0.004   0.002  0.00  0.00    -0.480 OA
BRANCH  15  16
ATOM     16  C   UNL     1       0.606  -0.607  -1.056  0.00  0.00    +0.156 A 
ATOM     17  C   UNL     1       1.163   0.160  -2.068  0.00  0.00    +0.048 A 
ATOM     18  C   UNL     1       1.780  -0.455  -3.140  0.00  0.00    +0.004 A 
ATOM     19  C   UNL     1       1.834  -1.835  -3.211  0.00  0.00    +0.003 A 
ATOM     20  C   UNL     1       1.276  -2.604  -2.207  0.00  0.00    +0.042 A 
ATOM     21  C   UNL     1       0.661  -1.994  -1.128  0.00  0.00    +0.165 A 
ATOM     22  F   UNL     1       0.115  -2.744  -0.147  0.00  0.00    -0.202 F 
ENDBRANCH  15  16
ENDBRANCH  14  15
ENDBRANCH   4  14
TORSDOF 7
