REMARK  Name = ZINC65435736
REMARK  9 active torsions:
REMARK  status: ('A' for Active; 'I' for Inactive)
REMARK    1  A    between atoms: C_1  and  C_2
REMARK    2  A    between atoms: C_3  and  C_27
REMARK    3  A    between atoms: C_7  and  N_14
REMARK    4  A    between atoms: C_9  and  C_11
REMARK    5  A    between atoms: C_11  and  C_12
REMARK    6  A    between atoms: C_12  and  N_13
REMARK    7  A    between atoms: C_20  and  C_22
REMARK    8  A    between atoms: C_22  and  C_23
REMARK    9  A    between atoms: N_25  and  C_26
REMARK                            x       y       z     vdW  Elec       q    Type
REMARK                         _______ _______ _______ _____ _____    ______ ____
ROOT
ATOM      1  C   UNL     1       0.534   1.500   0.009  0.00  0.00    +0.045 C 
ATOM      2  C   UNL     1       0.501  -0.006   0.001  0.00  0.00    -0.028 A 
ATOM      3  C   UNL     1       0.599  -0.681  -1.154  0.00  0.00    -0.008 A 
ATOM      4  S   UNL     1       0.512  -2.388  -0.648  0.00  0.00    -0.074 S 
ATOM      5  C   UNL     1       0.346  -2.150   1.101  0.00  0.00    +0.114 A 
ATOM      6  C   UNL     1       0.369  -0.745   1.245  0.00  0.00    +0.051 A 
ATOM      7  C   UNL     1       0.255  -0.267   2.579  0.00  0.00    +0.134 A 
ATOM      8  N   UNL     1       0.143  -1.138   3.569  0.00  0.00    -0.217 NA
ATOM      9  C   UNL     1       0.134  -2.442   3.361  0.00  0.00    +0.131 A 
ATOM     10  N   UNL     1       0.226  -2.946   2.145  0.00  0.00    -0.225 NA
ATOM     11  C   UNL     1       0.748  -0.127  -2.548  0.00  0.00    +0.052 C 
ENDROOT
BRANCH   7  12
ATOM     12  N   UNL     1       0.262   1.092   2.839  0.00  0.00    -0.301 N 
ATOM     13  C   UNL     1      -0.970   1.806   3.216  0.00  0.00    +0.126 C 
ATOM     14  C   UNL     1      -1.252   2.867   2.151  0.00  0.00    +0.123 C 
ATOM     15  N   UNL     1      -0.045   3.619   1.837  0.00  0.00    -0.312 N 
ATOM     16  C   UNL     1       1.197   3.183   2.057  0.00  0.00    +0.234 C 
ATOM     17  O   UNL     1       2.125   3.867   1.681  0.00  0.00    -0.274 OA
ATOM     18  C   UNL     1       1.500   1.881   2.755  0.00  0.00    +0.169 C 
ATOM     19  H   UNL     1      -0.151   4.497   1.441  0.00  0.00    +0.149 HD
BRANCH  18  20
ATOM     20  C   UNL     1       2.026   2.160   4.165  0.00  0.00    +0.127 C 
BRANCH  20  21
ATOM     21  C   UNL     1       2.425   0.863   4.819  0.00  0.00    +0.215 C 
ATOM     22  O   UNL     1       2.301  -0.183   4.217  0.00  0.00    -0.276 OA
ATOM     23  N   UNL     1       2.919   0.864   6.073  0.00  0.00    -0.318 N 
ATOM     24  C   UNL     1       3.307  -0.398   6.708  0.00  0.00    +0.128 C 
ATOM     25  H   UNL     1       3.018   1.700   6.554  0.00  0.00    +0.148 HD
ENDBRANCH  20  21
ENDBRANCH  18  20
ENDBRANCH   7  12
BRANCH   9  26
ATOM     26  C   UNL     1       0.003  -3.375   4.537  0.00  0.00    +0.057 C 
BRANCH  26  27
ATOM     27  C   UNL     1      -1.477  -3.659   4.801  0.00  0.00    -0.079 C 
BRANCH  27  28
ATOM     28  N   UNL     1      -1.604  -4.568   5.948  0.00  0.00    +0.378 N 
ATOM     29  H   UNL     1      -1.127  -5.434   5.745  0.00  0.00    -0.090 HD
ATOM     30  H   UNL     1      -1.193  -4.140   6.764  0.00  0.00    -0.090 HD
ATOM     31  H   UNL     1      -2.580  -4.755   6.122  0.00  0.00    -0.090 HD
ENDBRANCH  27  28
ENDBRANCH  26  27
ENDBRANCH   9  26
TORSDOF 6
