REMARK  Name = ZINC37330775
REMARK  6 active torsions:
REMARK  status: ('A' for Active; 'I' for Inactive)
REMARK    1  A    between atoms: C_6  and  C_7
REMARK    2  A    between atoms: C_7  and  C_8
REMARK    3  A    between atoms: C_10  and  C_13
REMARK    4  A    between atoms: C_13  and  C_15
REMARK    5  A    between atoms: C_13  and  N_22
REMARK    6  A    between atoms: C_15  and  C_16
REMARK                            x       y       z     vdW  Elec       q    Type
REMARK                         _______ _______ _______ _____ _____    ______ ____
ROOT
ATOM      1  C   UNL     1      -1.738  -1.024  -1.408  0.00  0.00    +0.176 A 
ATOM      2  N   UNL     1      -2.520  -0.215  -2.131  0.00  0.00    -0.197 NA
ATOM      3  C   UNL     1      -2.715  -0.723  -3.316  0.00  0.00    +0.213 A 
ATOM      4  O   UNL     1      -2.055  -1.886  -3.388  0.00  0.00    -0.340 OA
ATOM      5  N   UNL     1      -1.419  -2.060  -2.130  0.00  0.00    -0.061 NA
ENDROOT
BRANCH   1   6
ATOM      6  C   UNL     1      -1.293  -0.775   0.010  0.00  0.00    +0.114 C 
BRANCH   6  12
ATOM      7  C   UNL     1      -0.017   1.378   0.010  0.00  0.00    +0.005 A 
ATOM      8  C   UNL     1       1.171   2.086   0.002  0.00  0.00    +0.015 A 
ATOM      9  C   UNL     1       2.378   1.411  -0.013  0.00  0.00    +0.018 A 
ATOM     10  C   UNL     1       2.396   0.027  -0.021  0.00  0.00    +0.015 A 
ATOM     11  C   UNL     1       1.208  -0.679  -0.013  0.00  0.00    +0.005 A 
ATOM     12  C   UNL     1       0.002  -0.004   0.002  0.00  0.00    -0.040 A 
ATOM     13 BR   UNL     1       4.003   2.378  -0.024  0.00  0.00    -0.050 Br
ENDBRANCH   6  12
ENDBRANCH   1   6
BRANCH   3  14
ATOM     14  C   UNL     1      -3.540  -0.107  -4.416  0.00  0.00    +0.021 C 
BRANCH  14  15
ATOM     15  N   UNL     1      -2.808  -0.197  -5.687  0.00  0.00    +0.386 N 
ATOM     16  H   UNL     1      -1.933   0.298  -5.606  0.00  0.00    -0.089 HD
ATOM     17  H   UNL     1      -2.629  -1.166  -5.904  0.00  0.00    -0.089 HD
ATOM     18  H   UNL     1      -3.361   0.216  -6.423  0.00  0.00    -0.089 HD
ENDBRANCH  14  15
BRANCH  14  19
ATOM     19  C   UNL     1      -4.868  -0.857  -4.539  0.00  0.00    +0.050 C 
BRANCH  19  20
ATOM     20  C   UNL     1      -5.744  -0.166  -5.553  0.00  0.00    +0.058 A 
ATOM     21  C   UNL     1      -6.308  -0.740  -6.633  0.00  0.00    +0.107 A 
ATOM     22  N   UNL     1      -7.016   0.238  -7.276  0.00  0.00    -0.351 N 
ATOM     23  H   UNL     1      -7.534   0.133  -8.090  0.00  0.00    +0.166 HD
ATOM     24  C   UNL     1      -6.860   1.377  -6.567  0.00  0.00    +0.196 A 
ATOM     25  N   UNL     1      -6.102   1.126  -5.535  0.00  0.00    -0.241 NA
ENDBRANCH  19  20
ENDBRANCH  14  19
ENDBRANCH   3  14
TORSDOF 6
