REMARK  Name = ZINC38741247
REMARK  5 active torsions:
REMARK  status: ('A' for Active; 'I' for Inactive)
REMARK    1  A    between atoms: C_8  and  S_12
REMARK    2  A    between atoms: S_12  and  C_13
REMARK    3  A    between atoms: C_13  and  C_14
REMARK    4  A    between atoms: N_16  and  C_17
REMARK    5  A    between atoms: C_19  and  C_27
REMARK                            x       y       z     vdW  Elec       q    Type
REMARK                         _______ _______ _______ _____ _____    ______ ____
ROOT
ATOM      1  C   UNL     1       9.008  -3.723   1.962  0.00  0.00    +0.224 C 
ATOM      2  O   UNL     1       8.855  -4.923   1.879  0.00  0.00    -0.275 OA
ATOM      3  N   UNL     1      10.244  -3.212   2.128  0.00  0.00    -0.302 N 
ATOM      4  H   UNL     1      10.367  -2.252   2.195  0.00  0.00    +0.150 HD
ENDROOT
BRANCH   3   5
ATOM      5  C   UNL     1      11.402  -4.106   2.207  0.00  0.00    +0.151 C 
ATOM      6  C   UNL     1      12.614  -3.535   1.435  0.00  0.00    +0.132 C 
ATOM      7  C   UNL     1      13.512  -2.711   2.337  0.00  0.00    -0.046 C 
ATOM      8  C   UNL     1      13.403  -2.896   3.640  0.00  0.00    -0.013 C 
ATOM      9  S   UNL     1      12.131  -4.121   3.897  0.00  0.00    -0.106 S 
ATOM     10  C   UNL     1      14.364  -2.034   4.424  0.00  0.00    +0.042 C 
ATOM     11  C   UNL     1      15.404  -1.567   3.382  0.00  0.00    +0.009 C 
ATOM     12  C   UNL     1      14.583  -1.643   2.081  0.00  0.00    +0.033 C 
BRANCH   6  13
ATOM     13  C   UNL     1      13.412  -4.676   0.859  0.00  0.00    +0.220 C 
ATOM     14  O   UNL     1      14.565  -4.842   1.198  0.00  0.00    -0.275 OA
ATOM     15  N   UNL     1      12.845  -5.513  -0.033  0.00  0.00    -0.329 N 
ATOM     16  H   UNL     1      11.924  -5.380  -0.305  0.00  0.00    +0.145 HD
ATOM     17  H   UNL     1      13.359  -6.247  -0.404  0.00  0.00    +0.145 HD
ENDBRANCH   6  13
ENDBRANCH   3   5
BRANCH   1  18
ATOM     18  C   UNL     1       7.817  -2.803   1.881  0.00  0.00    +0.172 C 
BRANCH  18  19
ATOM     19  S   UNL     1       6.309  -3.786   1.659  0.00  0.00    -0.079 S 
BRANCH  19  27
ATOM     20  C   UNL     1      -0.019   1.528   0.010  0.00  0.00    +0.002 C 
ATOM     21  C   UNL     1       1.399   2.094  -0.000  0.00  0.00    +0.004 C 
ATOM     22  C   UNL     1       2.151   1.676   1.271  0.00  0.00    +0.033 C 
ATOM     23  C   UNL     1       2.038   0.156   1.365  0.00  0.00    -0.042 C 
ATOM     24  C   UNL     1       3.069  -0.677   1.477  0.00  0.00    +0.071 C 
ATOM     25  C   UNL     1       2.810  -2.139   1.366  0.00  0.00    +0.112 C 
ATOM     26  N   UNL     1       3.768  -3.028   1.419  0.00  0.00    -0.217 NA
ATOM     27  C   UNL     1       5.024  -2.583   1.583  0.00  0.00    +0.182 C 
ATOM     28  N   UNL     1       5.370  -1.315   1.692  0.00  0.00    -0.151 NA
ATOM     29  C   UNL     1       4.510  -0.288   1.653  0.00  0.00    +0.272 C 
ATOM     30  O   UNL     1       4.869   0.874   1.753  0.00  0.00    -0.268 OA
ATOM     31  S   UNL     1       1.060  -2.271   1.177  0.00  0.00    -0.097 S 
ATOM     32  C   UNL     1       0.651  -0.488   1.301  0.00  0.00    +0.079 C 
ATOM     33  C   UNL     1       0.002  -0.004   0.002  0.00  0.00    +0.019 C 
ENDBRANCH  19  27
ENDBRANCH  18  19
ENDBRANCH   1  18
TORSDOF 5
