REMARK  Name = ZINC20431846
REMARK  2 active torsions:
REMARK  status: ('A' for Active; 'I' for Inactive)
REMARK    1  A    between atoms: C_6  and  S_7
REMARK    2  A    between atoms: S_7  and  N_10
REMARK                            x       y       z     vdW  Elec       q    Type
REMARK                         _______ _______ _______ _____ _____    ______ ____
ROOT
ATOM      1  S   UNL     1      -1.265   3.715   0.028  0.00  0.00    +0.073 S 
ATOM      2  O   UNL     1      -2.634   4.096   0.010  0.00  0.00    -0.150 OA
ATOM      3  O   UNL     1      -0.372   4.133   1.052  0.00  0.00    -0.150 OA
ENDROOT
BRANCH   1   9
ATOM      4  C   UNL     1       0.788   4.493  -1.592  0.00  0.00    +0.030 A 
ATOM      5  C   UNL     1       1.333   4.914  -2.789  0.00  0.00    +0.025 A 
ATOM      6  C   UNL     1       0.513   5.112  -3.894  0.00  0.00    +0.030 A 
ATOM      7  C   UNL     1      -0.850   4.879  -3.798  0.00  0.00    -0.025 A 
ATOM      8  C   UNL     1      -1.387   4.452  -2.595  0.00  0.00    +0.034 A 
ATOM      9  C   UNL     1      -0.571   4.258  -1.498  0.00  0.00    +0.109 A 
ATOM     10  C   UNL     1      -1.766   5.072  -4.978  0.00  0.00    +0.038 C 
ATOM     11  C   UNL     1      -1.120   5.993  -6.012  0.00  0.00    +0.023 C 
ATOM     12  C   UNL     1       0.288   5.473  -6.328  0.00  0.00    +0.102 C 
ATOM     13  N   UNL     1       1.083   5.550  -5.095  0.00  0.00    -0.344 N 
ATOM     14  H   UNL     1       2.108   5.948  -5.125  0.00  0.00    +0.146 HD
ENDBRANCH   1   9
BRANCH   1  15
ATOM     15  N   UNL     1      -1.234   2.059   0.019  0.00  0.00    -0.199 N 
ATOM     16  C   UNL     1      -0.017   1.387   0.010  0.00  0.00    +0.138 A 
ATOM     17  C   UNL     1       0.002  -0.004   0.002  0.00  0.00    +0.046 A 
ATOM     18  C   UNL     1       1.219  -0.660  -0.013  0.00  0.00    +0.020 A 
ATOM     19  C   UNL     1       2.382   0.100  -0.020  0.00  0.00    +0.036 A 
ATOM     20  C   UNL     1       2.289   1.478  -0.012  0.00  0.00    +0.128 A 
ATOM     21  N   UNL     1       1.113   2.077   0.003  0.00  0.00    -0.238 NA
ATOM     22 BR   UNL     1       4.075  -0.743  -0.040  0.00  0.00    -0.049 Br
ATOM     23  H   UNL     1      -2.176   1.492   0.021  0.00  0.00    +0.175 HD
ENDBRANCH   1  15
TORSDOF 2
