REMARK  Name = ZINC21117900
REMARK  3 active torsions:
REMARK  status: ('A' for Active; 'I' for Inactive)
REMARK    1  A    between atoms: C_1  and  S_2
REMARK    2  A    between atoms: S_2  and  C_3
REMARK    3  A    between atoms: C_6  and  C_9
REMARK                            x       y       z     vdW  Elec       q    Type
REMARK                         _______ _______ _______ _____ _____    ______ ____
ROOT
ATOM      1  C   UNL     1      -1.362  -2.074  -0.402  0.00  0.00    +0.191 C 
ATOM      2  N   UNL     1      -1.207  -0.692   0.048  0.00  0.00    -0.322 N 
ATOM      3  C   UNL     1       0.002  -0.004   0.002  0.00  0.00    +0.055 A 
ATOM      4  C   UNL     1      -0.017   1.390   0.010  0.00  0.00    +0.025 A 
ATOM      5  C   UNL     1       1.165   2.100   0.002  0.00  0.00    +0.002 A 
ATOM      6  C   UNL     1       2.378   1.435  -0.014  0.00  0.00    +0.002 A 
ATOM      7  C   UNL     1       2.405   0.052  -0.029  0.00  0.00    +0.030 A 
ATOM      8  C   UNL     1       1.225  -0.661  -0.028  0.00  0.00    +0.126 A 
ATOM      9  S   UNL     1       1.263  -2.427  -0.085  0.00  0.00    +0.062 S 
ATOM     10  O   UNL     1       1.550  -2.794  -1.427  0.00  0.00    -0.153 OA
ATOM     11  O   UNL     1       2.050  -2.861   1.016  0.00  0.00    -0.153 OA
ATOM     12  N   UNL     1      -0.307  -2.897   0.224  0.00  0.00    -0.166 NA
ATOM     13  H   UNL     1      -2.073  -0.144   0.447  0.00  0.00    +0.148 HD
ATOM     14  H   UNL     1      -0.575  -3.653   0.977  0.00  0.00    +0.150 HD
ENDROOT
BRANCH   1  18
ATOM     15  C   UNL     1      -0.985  -2.255  -4.656  0.00  0.00    +0.008 A 
ATOM     16  C   UNL     1      -1.503  -1.117  -4.051  0.00  0.00    +0.015 A 
ATOM     17  C   UNL     1      -1.624  -1.062  -2.676  0.00  0.00    +0.008 A 
ATOM     18  C   UNL     1      -1.230  -2.138  -1.902  0.00  0.00    -0.011 A 
ATOM     19  C   UNL     1      -0.709  -3.271  -2.501  0.00  0.00    +0.008 A 
ATOM     20  C   UNL     1      -0.591  -3.335  -3.875  0.00  0.00    +0.015 A 
BRANCH  15  22
ATOM     21  C   UNL     1      -0.123  -3.972  -6.718  0.00  0.00    +0.090 C 
ATOM     22  S   UNL     1      -0.830  -2.330  -6.409  0.00  0.00    -0.129 S 
ENDBRANCH  15  22
ENDBRANCH   1  18
TORSDOF 2
