REMARK  Name = ZINC35367013
REMARK  6 active torsions:
REMARK  status: ('A' for Active; 'I' for Inactive)
REMARK    1  A    between atoms: C_3  and  N_22
REMARK    2  A    between atoms: C_6  and  C_7
REMARK    3  A    between atoms: C_7  and  C_9
REMARK    4  A    between atoms: C_7  and  O_21
REMARK    5  A    between atoms: C_9  and  N_10
REMARK    6  A    between atoms: C_11  and  C_13
REMARK                            x       y       z     vdW  Elec       q    Type
REMARK                         _______ _______ _______ _____ _____    ______ ____
ROOT
ATOM      1  C   UNL     1      -1.618  -1.242  -1.409  0.00  0.00    +0.140 C 
ENDROOT
BRANCH   1   2
ATOM      2  N   UNL     1      -2.934  -1.885  -1.422  0.00  0.00    -0.308 N 
ATOM      3  C   UNL     1      -3.432  -2.379  -2.574  0.00  0.00    +0.247 C 
ATOM      4  O   UNL     1      -2.788  -2.290  -3.601  0.00  0.00    -0.270 OA
ATOM      5  H   UNL     1      -3.448  -1.956  -0.602  0.00  0.00    +0.149 HD
BRANCH   3   6
ATOM      6  C   UNL     1      -4.758  -3.028  -2.587  0.00  0.00    +0.073 A 
ATOM      7  C   UNL     1      -5.503  -3.127  -1.409  0.00  0.00    +0.031 A 
ATOM      8  C   UNL     1      -6.741  -3.734  -1.429  0.00  0.00    +0.019 A 
ATOM      9  C   UNL     1      -7.248  -4.246  -2.612  0.00  0.00    +0.018 A 
ATOM     10  C   UNL     1      -6.518  -4.153  -3.782  0.00  0.00    +0.040 A 
ATOM     11  C   UNL     1      -5.277  -3.541  -3.779  0.00  0.00    +0.136 A 
ATOM     12  F   UNL     1      -4.567  -3.445  -4.924  0.00  0.00    -0.205 F 
ATOM     13 BR   UNL     1      -7.750  -3.868   0.165  0.00  0.00    -0.050 Br
ENDBRANCH   3   6
ENDBRANCH   1   2
BRANCH   1  14
ATOM     14  C   UNL     1      -1.294  -0.774   0.011  0.00  0.00    +0.162 C 
BRANCH  14  20
ATOM     15  C   UNL     1      -0.017   1.379   0.010  0.00  0.00    +0.008 A 
ATOM     16  C   UNL     1       1.169   2.087   0.002  0.00  0.00    +0.023 A 
ATOM     17  C   UNL     1       2.381   1.409  -0.013  0.00  0.00    +0.025 A 
ATOM     18  C   UNL     1       2.396   0.020  -0.021  0.00  0.00    +0.023 A 
ATOM     19  C   UNL     1       1.207  -0.682  -0.013  0.00  0.00    +0.008 A 
ATOM     20  C   UNL     1       0.002  -0.004   0.002  0.00  0.00    -0.018 A 
BRANCH  17  21
ATOM     21  N   UNL     1       3.582   2.122  -0.021  0.00  0.00    -0.358 N 
ATOM     22  H   UNL     1       3.570   3.092  -0.016  0.00  0.00    +0.142 HD
ATOM     23  H   UNL     1       4.428   1.647  -0.032  0.00  0.00    +0.142 HD
ENDBRANCH  17  21
ENDBRANCH  14  20
BRANCH  14  24
ATOM     24  O   UNL     1      -1.168  -1.909   0.869  0.00  0.00    -0.386 OA
ATOM     25  H   UNL     1      -0.471  -2.526   0.606  0.00  0.00    +0.210 HD
ENDBRANCH  14  24
ENDBRANCH   1  14
TORSDOF 6
