REMARK  Name = ZINC13000236
REMARK  15 active torsions:
REMARK  status: ('A' for Active; 'I' for Inactive)
REMARK    1  A    between atoms: C_1  and  C_2
REMARK    2  A    between atoms: C_2  and  C_3
REMARK    3  A    between atoms: C_3  and  C_4
REMARK    4  A    between atoms: C_4  and  C_5
REMARK    5  A    between atoms: C_8  and  C_11
REMARK    6  A    between atoms: N_13  and  C_14
REMARK    7  A    between atoms: N_13  and  C_18
REMARK    8  A    between atoms: C_14  and  C_15
REMARK    9  A    between atoms: C_15  and  C_16
REMARK   10  A    between atoms: C_16  and  C_17
REMARK   11  A    between atoms: C_19  and  N_31
REMARK   12  A    between atoms: N_20  and  C_27
REMARK   13  A    between atoms: C_27  and  C_28
REMARK   14  A    between atoms: C_28  and  C_29
REMARK   15  A    between atoms: C_29  and  C_30
REMARK                            x       y       z     vdW  Elec       q    Type
REMARK                         _______ _______ _______ _____ _____    ______ ____
ROOT
ATOM      1  C   UNL     1       0.169  -4.811  -5.021  0.00  0.00    +0.223 C 
ATOM      2  O   UNL     1       1.285  -4.350  -5.140  0.00  0.00    -0.275 OA
ATOM      3  N   UNL     1       0.006  -6.117  -4.724  0.00  0.00    -0.264 N 
ENDROOT
BRANCH   3   4
ATOM      4  C   UNL     1      -1.289  -6.675  -4.682  0.00  0.00    +0.140 A 
ATOM      5  C   UNL     1      -1.689  -7.593  -5.631  0.00  0.00    +0.127 A 
ATOM      6  N   UNL     1      -2.958  -8.120  -5.564  0.00  0.00    -0.280 N 
ATOM      7  C   UNL     1      -3.799  -7.745  -4.584  0.00  0.00    +0.331 A 
ATOM      8  O   UNL     1      -4.917  -8.222  -4.542  0.00  0.00    -0.246 OA
ATOM      9  N   UNL     1      -3.427  -6.852  -3.650  0.00  0.00    -0.273 N 
ATOM     10  H   UNL     1      -4.053  -6.598  -2.954  0.00  0.00    +0.173 HD
ATOM     11  C   UNL     1      -2.194  -6.309  -3.668  0.00  0.00    +0.277 A 
ATOM     12  O   UNL     1      -1.865  -5.504  -2.813  0.00  0.00    -0.266 OA
BRANCH   5  13
ATOM     13  N   UNL     1      -0.829  -7.977  -6.633  0.00  0.00    -0.343 N 
ATOM     14  H   UNL     1       0.084  -7.650  -6.640  0.00  0.00    +0.144 HD
ATOM     15  H   UNL     1      -1.136  -8.574  -7.333  0.00  0.00    +0.144 HD
ENDBRANCH   5  13
BRANCH   6  16
ATOM     16  C   UNL     1      -3.395  -9.096  -6.566  0.00  0.00    +0.128 C 
BRANCH  16  17
ATOM     17  C   UNL     1      -3.058 -10.508  -6.084  0.00  0.00    +0.021 C 
BRANCH  17  18
ATOM     18  C   UNL     1      -3.515 -11.527  -7.130  0.00  0.00    -0.002 C 
ATOM     19  C   UNL     1      -3.178 -12.939  -6.648  0.00  0.00    +0.004 C 
ENDBRANCH  17  18
ENDBRANCH  16  17
ENDBRANCH   6  16
ENDBRANCH   3   4
BRANCH   1  23
ATOM     20  C   UNL     1      -0.406  -2.741  -7.810  0.00  0.00    -0.011 C 
ATOM     21  C   UNL     1       0.344  -2.327  -6.542  0.00  0.00    +0.004 C 
ATOM     22  C   UNL     1      -0.583  -2.469  -5.333  0.00  0.00    +0.013 C 
ATOM     23  C   UNL     1      -1.036  -3.925  -5.205  0.00  0.00    +0.076 C 
ATOM     24  C   UNL     1      -1.785  -4.339  -6.473  0.00  0.00    +0.013 C 
ATOM     25  C   UNL     1      -0.858  -4.197  -7.682  0.00  0.00    +0.004 C 
BRANCH  20  26
ATOM     26  C   UNL     1       0.521  -2.600  -9.019  0.00  0.00    +0.003 C 
BRANCH  26  27
ATOM     27  C   UNL     1       0.875  -1.125  -9.221  0.00  0.00    +0.000 C 
BRANCH  27  29
ATOM     28  C   UNL     1       2.155   0.492 -10.632  0.00  0.00    +0.004 C 
ATOM     29  C   UNL     1       1.801  -0.983 -10.430  0.00  0.00    -0.003 C 
ENDBRANCH  27  29
ENDBRANCH  26  27
ENDBRANCH  20  26
ENDBRANCH   1  23
BRANCH   3  30
ATOM     30  C   UNL     1       1.174  -6.956  -4.444  0.00  0.00    +0.114 C 
BRANCH  30  31
ATOM     31  C   UNL     1       1.421  -7.001  -2.935  0.00  0.00    +0.019 C 
BRANCH  31  32
ATOM     32  C   UNL     1       2.710  -7.773  -2.652  0.00  0.00    -0.002 C 
ATOM     33  C   UNL     1       2.957  -7.819  -1.142  0.00  0.00    +0.004 C 
ENDBRANCH  31  32
ENDBRANCH  30  31
ENDBRANCH   3  30
TORSDOF 12
