REMARK  Name = ZINC03846494
REMARK  4 active torsions:
REMARK  status: ('A' for Active; 'I' for Inactive)
REMARK    1  A    between atoms: C_1  and  N_2
REMARK    2  A    between atoms: C_9  and  O_10
REMARK    3  A    between atoms: C_11  and  C_12
REMARK    4  A    between atoms: C_14  and  C_21
REMARK                            x       y       z     vdW  Elec       q    Type
REMARK                         _______ _______ _______ _____ _____    ______ ____
ROOT
ATOM      1  C   UNL     1       2.572  -2.517  -0.193  0.00  0.00    +0.049 C 
ATOM      2  C   UNL     1       3.731  -1.851  -0.211  0.00  0.00    +0.022 C 
ATOM      3  C   UNL     1       5.020  -2.617  -0.165  0.00  0.00    +0.134 C 
ATOM      4  N   UNL     1       5.126  -3.391   1.055  0.00  0.00    -0.228 NA
ATOM      5  N   UNL     1       4.425  -4.524   1.112  0.00  0.00    -0.234 N 
ATOM      6  C   UNL     1       3.223  -4.723   0.580  0.00  0.00    +0.318 C 
ATOM      7  O   UNL     1       2.750  -5.829   0.753  0.00  0.00    -0.251 OA
ATOM      8  N   UNL     1       2.473  -3.886  -0.104  0.00  0.00    -0.268 N 
ATOM      9  H   UNL     1       4.951  -2.816   1.865  0.00  0.00    +0.145 HD
ATOM     10  H   UNL     1       4.827  -5.269   1.585  0.00  0.00    +0.171 HD
ATOM     11  H   UNL     1       1.756  -4.291  -0.618  0.00  0.00    +0.156 HD
ENDROOT
BRANCH   1  21
ATOM     12  C   UNL     1      -1.728  -1.241   1.848  0.00  0.00    +0.152 C 
ATOM     13  N   UNL     1      -0.778  -1.117   0.740  0.00  0.00    -0.310 N 
ATOM     14  C   UNL     1      -1.082  -0.285  -0.319  0.00  0.00    +0.055 A 
ATOM     15  C   UNL     1      -2.274   0.431  -0.341  0.00  0.00    +0.026 A 
ATOM     16  C   UNL     1      -2.557   1.257  -1.407  0.00  0.00    +0.002 A 
ATOM     17  C   UNL     1      -1.665   1.382  -2.463  0.00  0.00    +0.001 A 
ATOM     18  C   UNL     1      -0.488   0.687  -2.463  0.00  0.00    +0.013 A 
ATOM     19  C   UNL     1      -0.180  -0.155  -1.391  0.00  0.00    +0.041 A 
ATOM     20  C   UNL     1       1.075  -0.914  -1.361  0.00  0.00    +0.140 A 
ATOM     21  C   UNL     1       1.321  -1.734  -0.267  0.00  0.00    +0.102 A 
ATOM     22  C   UNL     1       0.371  -1.812   0.779  0.00  0.00    +0.264 A 
ATOM     23  O   UNL     1       0.599  -2.531   1.737  0.00  0.00    -0.267 OA
BRANCH  20  24
ATOM     24  O   UNL     1       1.969  -0.817  -2.372  0.00  0.00    -0.505 OA
ATOM     25  H   UNL     1       1.698  -0.218  -3.081  0.00  0.00    +0.292 HD
ENDBRANCH  20  24
ENDBRANCH   1  21
BRANCH   3  26
ATOM     26  C   UNL     1       5.083  -3.549  -1.347  0.00  0.00    +0.012 A 
ATOM     27  C   UNL     1       5.794  -4.693  -1.495  0.00  0.00    +0.013 A 
ATOM     28  C   UNL     1       5.696  -5.394  -2.682  0.00  0.00    +0.008 A 
ATOM     29  C   UNL     1       4.892  -4.917  -3.663  0.00  0.00    +0.045 A 
ATOM     30  S   UNL     1       4.234  -3.436  -2.914  0.00  0.00    -0.100 S 
ENDBRANCH   3  26
TORSDOF 3
