REMARK  Name = ZINC20156098
REMARK  7 active torsions:
REMARK  status: ('A' for Active; 'I' for Inactive)
REMARK    1  A    between atoms: C_1  and  O_2
REMARK    2  A    between atoms: O_2  and  C_3
REMARK    3  A    between atoms: C_7  and  C_11
REMARK    4  A    between atoms: C_8  and  O_9
REMARK    5  A    between atoms: O_9  and  C_10
REMARK    6  A    between atoms: C_11  and  C_13
REMARK    7  A    between atoms: C_11  and  N_23
REMARK                            x       y       z     vdW  Elec       q    Type
REMARK                         _______ _______ _______ _____ _____    ______ ____
ROOT
ATOM      1  C   UNL     1       2.490   1.044  -0.015  0.00  0.00    +0.008 C 
ENDROOT
BRANCH   1   2
ATOM      2  C   UNL     1       3.002   0.900   1.395  0.00  0.00    +0.074 A 
ATOM      3  C   UNL     1       4.158   1.514   1.777  0.00  0.00    +0.280 A 
ATOM      4  N   UNL     1       4.602   1.373   3.067  0.00  0.00    -0.184 NA
ATOM      5  C   UNL     1       3.911   0.627   3.949  0.00  0.00    +0.183 A 
ATOM      6  S   UNL     1       4.491   0.463   5.551  0.00  0.00    -0.011 S 
ATOM      7  N   UNL     1       2.772   0.009   3.590  0.00  0.00    -0.301 N 
ATOM      8  H   UNL     1       2.220  -0.597   4.323  0.00  0.00    +0.171 HD
ATOM      9  C   UNL     1       2.297   0.125   2.333  0.00  0.00    +0.258 A 
ATOM     10  O   UNL     1       1.264  -0.437   2.013  0.00  0.00    -0.267 OA
ATOM     11  O   UNL     1       4.856   2.259   0.895  0.00  0.00    -0.265 OA
ENDBRANCH   1   2
BRANCH   1  16
ATOM     12  C   UNL     1      -0.056   3.845   0.022  0.00  0.00    +0.162 A 
ATOM     13  C   UNL     1      -1.244   3.131   0.030  0.00  0.00    +0.049 A 
ATOM     14  C   UNL     1      -1.220   1.749   0.017  0.00  0.00    +0.004 A 
ATOM     15  C   UNL     1      -0.013   1.076   0.008  0.00  0.00    +0.006 A 
ATOM     16  C   UNL     1       1.176   1.782   0.000  0.00  0.00    -0.011 A 
ATOM     17  C   UNL     1       1.159   3.167   0.007  0.00  0.00    +0.163 A 
BRANCH  12  19
ATOM     18  C   UNL     1      -1.362   5.833   0.045  0.00  0.00    +0.277 C 
ATOM     19  O   UNL     1      -0.078   5.205   0.030  0.00  0.00    -0.491 OA
ENDBRANCH  12  19
BRANCH  17  20
ATOM     20  O   UNL     1       2.327   3.863  -0.000  0.00  0.00    -0.491 OA
ATOM     21  C   UNL     1       2.872   4.202  -1.277  0.00  0.00    +0.277 C 
ENDBRANCH  17  20
ENDBRANCH   1  16
BRANCH   1  22
ATOM     22  N   UNL     1       2.298  -0.287  -0.605  0.00  0.00    +0.387 N 
ATOM     23  C   UNL     1       1.739  -0.186  -1.977  0.00  0.00    -0.078 C 
ATOM     24  C   UNL     1       2.095  -1.555  -2.608  0.00  0.00    -0.020 C 
ATOM     25  C   UNL     1       3.497  -1.850  -2.025  0.00  0.00    -0.020 C 
ATOM     26  C   UNL     1       3.588  -0.996  -0.747  0.00  0.00    -0.078 C 
ATOM     27  H   UNL     1       1.617  -0.820   0.075  0.00  0.00    -0.080 HD
ENDBRANCH   1  22
TORSDOF 5
