REMARK  Name = ZINC17026683
REMARK  8 active torsions:
REMARK  status: ('A' for Active; 'I' for Inactive)
REMARK    1  A    between atoms: C_1  and  C_2
REMARK    2  A    between atoms: C_5  and  C_33
REMARK    3  A    between atoms: C_6  and  N_8
REMARK    4  A    between atoms: C_9  and  C_22
REMARK    5  A    between atoms: C_12  and  S_13
REMARK    6  A    between atoms: S_13  and  C_14
REMARK    7  A    between atoms: C_14  and  C_15
REMARK    8  A    between atoms: C_22  and  C_23
REMARK                            x       y       z     vdW  Elec       q    Type
REMARK                         _______ _______ _______ _____ _____    ______ ____
ROOT
ATOM      1  N   UNL     1       1.250  -5.499  -2.405  0.00  0.00    -0.274 N 
ATOM      2  C   UNL     1       1.273  -6.684  -1.719  0.00  0.00    +0.144 A 
ATOM      3  N   UNL     1       1.281  -6.397  -0.448  0.00  0.00    -0.133 NA
ATOM      4  N   UNL     1       1.270  -5.122  -0.283  0.00  0.00    -0.122 NA
ATOM      5  C   UNL     1       1.246  -4.520  -1.449  0.00  0.00    +0.196 A 
ENDROOT
BRANCH   1  11
ATOM      6  C   UNL     1       3.704  -4.939  -6.631  0.00  0.00    +0.044 C 
ATOM      7  C   UNL     1       2.409  -5.051  -5.869  0.00  0.00    -0.048 A 
ATOM      8  C   UNL     1       1.202  -4.980  -6.541  0.00  0.00    +0.004 A 
ATOM      9  C   UNL     1       0.012  -5.082  -5.845  0.00  0.00    +0.005 A 
ATOM     10  C   UNL     1       0.025  -5.254  -4.474  0.00  0.00    -0.026 A 
ATOM     11  C   UNL     1       1.234  -5.324  -3.796  0.00  0.00    +0.053 A 
ATOM     12  C   UNL     1       2.427  -5.216  -4.497  0.00  0.00    +0.030 A 
ATOM     13  C   UNL     1      -1.273  -5.365  -3.716  0.00  0.00    +0.046 C 
ENDBRANCH   1  11
BRANCH   5  14
ATOM     14  S   UNL     1       1.220  -2.781  -1.730  0.00  0.00    -0.081 S 
BRANCH  14  15
ATOM     15  C   UNL     1       1.228  -2.186  -0.020  0.00  0.00    +0.112 C 
BRANCH  15  16
ATOM     16  C   UNL     1       1.208  -0.679  -0.013  0.00  0.00    -0.037 A 
ATOM     17  C   UNL     1       0.002  -0.004   0.002  0.00  0.00    +0.005 A 
ATOM     18  C   UNL     1      -0.017   1.378   0.010  0.00  0.00    +0.015 A 
ATOM     19  C   UNL     1       1.172   2.086   0.002  0.00  0.00    +0.018 A 
ATOM     20  C   UNL     1       2.379   1.410  -0.013  0.00  0.00    +0.015 A 
ATOM     21  C   UNL     1       2.396   0.028  -0.021  0.00  0.00    +0.005 A 
ATOM     22 BR   UNL     1       1.147   3.976   0.013  0.00  0.00    -0.050 Br
ENDBRANCH  15  16
ENDBRANCH  14  15
ENDBRANCH   5  14
BRANCH   2  23
ATOM     23  C   UNL     1       1.285  -8.065  -2.323  0.00  0.00    +0.130 C 
BRANCH  23  24
ATOM     24  C   UNL     1       2.709  -8.507  -2.538  0.00  0.00    +0.033 A 
ATOM     25  C   UNL     1       3.334  -9.259  -1.608  0.00  0.00    +0.091 A 
ATOM     26  C   UNL     1       4.673  -9.662  -1.833  0.00  0.00    +0.254 A 
ATOM     27  O   UNL     1       5.258 -10.341  -1.008  0.00  0.00    -0.268 OA
ATOM     28  N   UNL     1       5.295  -9.286  -2.969  0.00  0.00    -0.275 N 
ATOM     29  H   UNL     1       6.240  -9.566  -3.135  0.00  0.00    +0.173 HD
ATOM     30  C   UNL     1       4.648  -8.535  -3.880  0.00  0.00    +0.327 A 
ATOM     31  O   UNL     1       5.221  -8.204  -4.900  0.00  0.00    -0.247 OA
ATOM     32  N   UNL     1       3.374  -8.151  -3.680  0.00  0.00    -0.311 N 
ATOM     33  H   UNL     1       2.908  -7.601  -4.373  0.00  0.00    +0.170 HD
ENDBRANCH  23  24
ENDBRANCH   2  23
TORSDOF 6
