REMARK  Name = ZINC62198446
REMARK  7 active torsions:
REMARK  status: ('A' for Active; 'I' for Inactive)
REMARK    1  A    between atoms: C_1  and  C_2
REMARK    2  A    between atoms: C_2  and  O_3
REMARK    3  A    between atoms: O_3  and  C_4
REMARK    4  A    between atoms: C_12  and  O_26
REMARK    5  A    between atoms: C_14  and  N_16
REMARK    6  A    between atoms: C_17  and  C_25
REMARK    7  A    between atoms: C_22  and  C_24
REMARK                            x       y       z     vdW  Elec       q    Type
REMARK                         _______ _______ _______ _____ _____    ______ ____
ROOT
ATOM      1  C   UNL     1       0.587  -2.287   0.762  0.00  0.00    +0.162 A 
ATOM      2  C   UNL     1       0.170  -3.235  -0.157  0.00  0.00    +0.049 A 
ATOM      3  C   UNL     1       0.404  -4.576   0.084  0.00  0.00    +0.004 A 
ATOM      4  C   UNL     1       1.050  -4.969   1.240  0.00  0.00    +0.006 A 
ATOM      5  C   UNL     1       1.469  -4.025   2.164  0.00  0.00    -0.013 A 
ATOM      6  C   UNL     1       1.248  -2.682   1.926  0.00  0.00    +0.164 A 
ATOM      7  O   UNL     1       1.657  -1.722   2.797  0.00  0.00    -0.486 OA
ATOM      8  C   UNL     1       1.989  -2.125   4.127  0.00  0.00    +0.259 C 
ATOM      9  C   UNL     1       2.936  -3.329   4.045  0.00  0.00    +0.143 C 
ATOM     10  C   UNL     1       2.167  -4.497   3.415  0.00  0.00    -0.001 C 
ENDROOT
BRANCH  10  11
ATOM     11  N   UNL     1       3.116  -5.564   3.073  0.00  0.00    +0.389 N 
ATOM     12  C   UNL     1       4.205  -5.008   2.261  0.00  0.00    -0.070 C 
ATOM     13  C   UNL     1       5.153  -6.130   1.834  0.00  0.00    -0.016 C 
ATOM     14  C   UNL     1       5.736  -6.801   3.081  0.00  0.00    -0.003 C 
ATOM     15  C   UNL     1       4.588  -7.312   3.957  0.00  0.00    -0.016 C 
ATOM     16  C   UNL     1       3.661  -6.146   4.306  0.00  0.00    -0.070 C 
ATOM     17  C   UNL     1       2.513  -6.652   5.181  0.00  0.00    -0.013 C 
ATOM     18  C   UNL     1       3.620  -4.335   1.017  0.00  0.00    -0.013 C 
ATOM     19  H   UNL     1       2.639  -6.281   2.546  0.00  0.00    -0.080 HD
ENDBRANCH  10  11
BRANCH   9  20
ATOM     20  O   UNL     1       4.070  -2.995   3.241  0.00  0.00    -0.390 OA
ATOM     21  H   UNL     1       4.586  -2.251   3.579  0.00  0.00    +0.210 HD
ENDBRANCH   9  20
BRANCH   1  22
ATOM     22  O   UNL     1       0.358  -0.967   0.526  0.00  0.00    -0.489 OA
BRANCH  22  24
ATOM     23  C   UNL     1      -0.490   0.885  -0.774  0.00  0.00    +0.048 C 
ATOM     24  C   UNL     1      -0.324  -0.633  -0.685  0.00  0.00    +0.226 C 
ENDBRANCH  22  24
ENDBRANCH   1  22
TORSDOF 4
