REMARK  Name = ZINC19167722
REMARK  5 active torsions:
REMARK  status: ('A' for Active; 'I' for Inactive)
REMARK    1  A    between atoms: C_3  and  N_16
REMARK    2  A    between atoms: C_5  and  S_7
REMARK    3  A    between atoms: S_7  and  N_10
REMARK    4  A    between atoms: C_17  and  C_19
REMARK    5  A    between atoms: C_20  and  C_21
REMARK                            x       y       z     vdW  Elec       q    Type
REMARK                         _______ _______ _______ _____ _____    ______ ____
ROOT
ATOM      1  N   UNL     1       3.583   2.123  -0.021  0.00  0.00    -0.282 N 
ATOM      2  C   UNL     1       3.627   3.374   0.478  0.00  0.00    +0.241 C 
ATOM      3  O   UNL     1       2.645   3.849   1.018  0.00  0.00    -0.270 OA
ATOM      4  H   UNL     1       4.386   1.716  -0.382  0.00  0.00    +0.155 HD
ENDROOT
BRANCH   1   7
ATOM      5  C   UNL     1      -0.013   1.375  -0.180  0.00  0.00    +0.004 A 
ATOM      6  C   UNL     1       1.175   2.081  -0.183  0.00  0.00    +0.023 A 
ATOM      7  C   UNL     1       2.380   1.411  -0.018  0.00  0.00    +0.036 A 
ATOM      8  C   UNL     1       2.387   0.032   0.149  0.00  0.00    +0.052 A 
ATOM      9  C   UNL     1       1.197  -0.668   0.151  0.00  0.00    +0.114 A 
ATOM     10  C   UNL     1      -0.002   0.002  -0.014  0.00  0.00    +0.029 A 
BRANCH   9  11
ATOM     11  S   UNL     1       1.205  -2.417   0.362  0.00  0.00    +0.100 S 
ATOM     12  O   UNL     1       0.002  -2.902  -0.219  0.00  0.00    -0.146 OA
ATOM     13  O   UNL     1       2.487  -2.870  -0.051  0.00  0.00    -0.146 OA
BRANCH  11  14
ATOM     14  N   UNL     1       1.099  -2.715   1.988  0.00  0.00    -0.118 NA
ATOM     15  C   UNL     1       1.085  -3.933   2.423  0.00  0.00    +0.117 C 
ATOM     16  N   UNL     1       1.159  -5.053   1.639  0.00  0.00    -0.331 N 
ATOM     17  C   UNL     1       1.601  -6.191   2.460  0.00  0.00    +0.103 C 
ATOM     18  C   UNL     1       1.060  -5.881   3.873  0.00  0.00    +0.026 C 
ATOM     19  C   UNL     1       0.992  -4.339   3.877  0.00  0.00    +0.074 C 
ATOM     20  H   UNL     1       0.952  -5.090   0.692  0.00  0.00    +0.147 HD
ENDBRANCH  11  14
ENDBRANCH   9  11
ENDBRANCH   1   7
BRANCH   2  21
ATOM     21  C   UNL     1       4.855   4.161   0.371  0.00  0.00    +0.068 C 
ATOM     22  C   UNL     1       4.899   5.414   0.871  0.00  0.00    +0.013 C 
BRANCH  22  23
ATOM     23  C   UNL     1       6.133   6.205   0.763  0.00  0.00    -0.020 A 
ATOM     24  C   UNL     1       6.184   7.503   1.286  0.00  0.00    +0.057 A 
ATOM     25  C   UNL     1       7.346   8.243   1.183  0.00  0.00    +0.164 A 
ATOM     26  C   UNL     1       8.467   7.698   0.562  0.00  0.00    +0.180 A 
ATOM     27  C   UNL     1       8.417   6.409   0.041  0.00  0.00    +0.087 A 
ATOM     28  C   UNL     1       7.264   5.662   0.143  0.00  0.00    +0.031 A 
ATOM     29 CL   UNL     1       9.816   5.736  -0.736  0.00  0.00    -0.080 Cl
ATOM     30  O   UNL     1       9.621   8.411   0.460  0.00  0.00    -0.483 OA
ATOM     31  C   UNL     1       9.523   9.826   0.656  0.00  0.00    +0.270 C 
ATOM     32  C   UNL     1       8.672  10.080   1.907  0.00  0.00    +0.270 C 
ATOM     33  O   UNL     1       7.378   9.505   1.694  0.00  0.00    -0.485 OA
ENDBRANCH  22  23
ENDBRANCH   2  21
TORSDOF 5
