REMARK  Name = ZINC33138797
REMARK  7 active torsions:
REMARK  status: ('A' for Active; 'I' for Inactive)
REMARK    1  A    between atoms: C_1  and  C_2
REMARK    2  A    between atoms: C_5  and  N_9
REMARK    3  A    between atoms: C_6  and  C_8
REMARK    4  A    between atoms: C_12  and  C_15
REMARK    5  A    between atoms: N_17  and  C_18
REMARK    6  A    between atoms: N_17  and  C_19
REMARK    7  A    between atoms: C_19  and  C_20
REMARK                            x       y       z     vdW  Elec       q    Type
REMARK                         _______ _______ _______ _____ _____    ______ ____
ROOT
ATOM      1  N   UNL     1       1.616   5.184  -0.814  0.00  0.00    -0.294 N 
ATOM      2  C   UNL     1       1.554   3.806  -0.681  0.00  0.00    +0.163 A 
ATOM      3  N   UNL     1       0.518   3.044  -0.392  0.00  0.00    -0.220 NA
ATOM      4  C   UNL     1       0.639   1.718  -0.303  0.00  0.00    +0.135 A 
ATOM      5  C   UNL     1       1.869   1.146  -0.513  0.00  0.00    +0.081 A 
ATOM      6  S   UNL     1       2.857   2.595  -0.857  0.00  0.00    -0.060 S 
ATOM      7  H   UNL     1       0.723   5.796  -0.621  0.00  0.00    +0.154 HD
ENDROOT
BRANCH   1  12
ATOM      8  C   UNL     1       6.478   7.668  -2.352  0.00  0.00    +0.044 C 
ATOM      9  C   UNL     1       5.186   7.007  -1.944  0.00  0.00    -0.050 A 
ATOM     10  C   UNL     1       5.211   5.872  -1.153  0.00  0.00    +0.005 A 
ATOM     11  C   UNL     1       4.029   5.269  -0.773  0.00  0.00    +0.024 A 
ATOM     12  C   UNL     1       2.814   5.796  -1.193  0.00  0.00    +0.036 A 
ATOM     13  C   UNL     1       2.793   6.936  -1.987  0.00  0.00    -0.029 A 
ATOM     14  C   UNL     1       3.979   7.538  -2.360  0.00  0.00    +0.008 A 
ATOM     15  C   UNL     1       1.478   7.514  -2.441  0.00  0.00    +0.045 C 
ENDBRANCH   1  12
BRANCH   4  16
ATOM     16  C   UNL     1      -0.528   0.882   0.022  0.00  0.00    +0.266 C 
ATOM     17  O   UNL     1      -0.440  -0.330  -0.025  0.00  0.00    -0.268 OA
ATOM     18  N   UNL     1      -1.696   1.460   0.366  0.00  0.00    -0.292 N 
ATOM     19  C   UNL     1      -1.817   2.920   0.373  0.00  0.00    +0.133 C 
BRANCH  18  20
ATOM     20  C   UNL     1      -2.845   0.628   0.733  0.00  0.00    +0.182 C 
BRANCH  20  21
ATOM     21  C   UNL     1      -2.824   0.370   2.218  0.00  0.00    +0.122 A 
ATOM     22  C   UNL     1      -3.412   1.134   3.157  0.00  0.00    +0.046 A 
ATOM     23  C   UNL     1      -3.142   0.528   4.405  0.00  0.00    +0.041 A 
ATOM     24  C   UNL     1      -2.406  -0.570   4.155  0.00  0.00    +0.195 A 
ATOM     25  O   UNL     1      -2.221  -0.663   2.828  0.00  0.00    -0.466 OA
ENDBRANCH  20  21
ENDBRANCH  18  20
ENDBRANCH   4  16
TORSDOF 4
