REMARK  Name = ZINC18094148
REMARK  3 active torsions:
REMARK  status: ('A' for Active; 'I' for Inactive)
REMARK    1  A    between atoms: C_6  and  C_7
REMARK    2  A    between atoms: C_7  and  S_8
REMARK    3  A    between atoms: S_8  and  C_9
REMARK                            x       y       z     vdW  Elec       q    Type
REMARK                         _______ _______ _______ _____ _____    ______ ____
ROOT
ATOM      1  C   UNL     1      -3.334  -1.973  -1.519  0.00  0.00    +0.126 A 
ATOM      2  C   UNL     1      -4.051  -2.395  -2.642  0.00  0.00    +0.117 A 
ATOM      3  C   UNL     1      -5.245  -3.108  -2.448  0.00  0.00    +0.182 A 
ATOM      4  N   UNL     1      -5.732  -3.392  -3.671  0.00  0.00    -0.216 NA
ATOM      5  H   UNL     1      -3.152  -1.849  -4.465  0.00  0.00    +0.167 HD
ATOM      6  C   UNL     1      -4.936  -2.912  -4.585  0.00  0.00    +0.199 A 
ATOM      7  N   UNL     1      -3.886  -2.288  -4.006  0.00  0.00    -0.341 N 
ATOM      8  N   UNL     1      -5.649  -3.356  -1.198  0.00  0.00    -0.214 NA
ATOM      9  C   UNL     1      -4.941  -2.939  -0.171  0.00  0.00    +0.224 A 
ATOM     10  N   UNL     1      -3.811  -2.271  -0.312  0.00  0.00    -0.227 NA
ENDROOT
BRANCH   1  11
ATOM     11  S   UNL     1      -1.829  -1.075  -1.697  0.00  0.00    -0.099 S 
BRANCH  11  12
ATOM     12  C   UNL     1      -1.293  -0.775   0.010  0.00  0.00    +0.111 C 
BRANCH  12  18
ATOM     13  C   UNL     1      -0.017   1.378   0.010  0.00  0.00    +0.005 A 
ATOM     14  C   UNL     1       1.171   2.086   0.002  0.00  0.00    +0.015 A 
ATOM     15  C   UNL     1       2.378   1.411  -0.013  0.00  0.00    +0.018 A 
ATOM     16  C   UNL     1       2.396   0.027  -0.021  0.00  0.00    +0.015 A 
ATOM     17  C   UNL     1       1.208  -0.679  -0.013  0.00  0.00    +0.005 A 
ATOM     18  C   UNL     1       0.002  -0.004   0.002  0.00  0.00    -0.037 A 
ATOM     19 BR   UNL     1       4.003   2.378  -0.024  0.00  0.00    -0.050 Br
ENDBRANCH  12  18
ENDBRANCH  11  12
ENDBRANCH   1  11
TORSDOF 3
