REMARK  Name = ZINC46974008
REMARK  8 active torsions:
REMARK  status: ('A' for Active; 'I' for Inactive)
REMARK    1  A    between atoms: C_1  and  C_2
REMARK    2  A    between atoms: C_2  and  C_4
REMARK    3  A    between atoms: C_2  and  N_10
REMARK    4  A    between atoms: N_13  and  N_14
REMARK    5  A    between atoms: C_15  and  C_17
REMARK    6  A    between atoms: C_17  and  O_18
REMARK    7  A    between atoms: O_18  and  C_19
REMARK    8  A    between atoms: C_24  and  C_25
REMARK                            x       y       z     vdW  Elec       q    Type
REMARK                         _______ _______ _______ _____ _____    ______ ____
ROOT
ATOM      1  N   UNL     1      -3.924  -1.457   0.078  0.00  0.00    -0.230 N 
ATOM      2  C   UNL     1      -5.189  -1.924   0.087  0.00  0.00    +0.267 C 
ATOM      3  O   UNL     1      -5.799  -2.042  -0.954  0.00  0.00    -0.271 OA
ATOM      4  H   UNL     1      -3.436  -1.363   0.910  0.00  0.00    +0.173 HD
ENDROOT
BRANCH   1   8
ATOM      5  N   UNL     1      -1.372  -0.511   0.012  0.00  0.00    -0.293 N 
ATOM      6  C   UNL     1      -2.051  -0.643  -1.145  0.00  0.00    +0.316 C 
ATOM      7  O   UNL     1      -1.522  -0.341  -2.197  0.00  0.00    -0.251 OA
ATOM      8  N   UNL     1      -3.315  -1.109  -1.135  0.00  0.00    -0.218 N 
ATOM      9  H   UNL     1      -1.794  -0.752   0.852  0.00  0.00    +0.151 HD
ATOM     10  H   UNL     1      -3.804  -1.204  -1.968  0.00  0.00    +0.174 HD
BRANCH   5  12
ATOM     11  C   UNL     1      -0.019   1.526   0.010  0.00  0.00    +0.030 C 
ATOM     12  C   UNL     1       0.002  -0.004   0.002  0.00  0.00    +0.100 C 
BRANCH  12  13
ATOM     13  C   UNL     1       0.742  -0.511   1.242  0.00  0.00    +0.138 C 
ATOM     14  C   UNL     1       2.224  -0.061   1.204  0.00  0.00    +0.035 C 
ATOM     15  C   UNL     1       2.576  -0.081   2.717  0.00  0.00    +0.031 C 
ATOM     16  C   UNL     1       1.245   0.351   3.369  0.00  0.00    +0.160 C 
ATOM     17  O   UNL     1       0.196   0.087   2.428  0.00  0.00    -0.375 OA
ENDBRANCH  12  13
ENDBRANCH   5  12
ENDBRANCH   1   8
BRANCH   2  18
ATOM     18  C   UNL     1      -5.844  -2.298   1.392  0.00  0.00    +0.326 C 
BRANCH  18  19
ATOM     19  O   UNL     1      -7.172  -2.762   1.142  0.00  0.00    -0.481 OA
BRANCH  19  20
ATOM     20  C   UNL     1      -7.905  -3.142   2.219  0.00  0.00    +0.138 A 
ATOM     21  C   UNL     1      -7.362  -3.066   3.492  0.00  0.00    +0.047 A 
ATOM     22  C   UNL     1      -8.109  -3.453   4.588  0.00  0.00    +0.004 A 
ATOM     23  C   UNL     1      -9.403  -3.919   4.424  0.00  0.00    +0.001 A 
ATOM     24  C   UNL     1      -9.959  -4.000   3.166  0.00  0.00    +0.022 A 
ATOM     25  C   UNL     1      -9.216  -3.607   2.050  0.00  0.00    +0.093 A 
BRANCH  25  26
ATOM     26  C   UNL     1      -9.790  -3.684   0.740  0.00  0.00    +0.103 C 
ATOM     27  N   UNL     1     -10.244  -3.746  -0.300  0.00  0.00    -0.191 NA
ENDBRANCH  25  26
ENDBRANCH  19  20
ENDBRANCH  18  19
ENDBRANCH   2  18
TORSDOF 7
