REMARK  Name = ZINC00647869
REMARK  11 active torsions:
REMARK  status: ('A' for Active; 'I' for Inactive)
REMARK    1  A    between atoms: C_1  and  C_2
REMARK    2  A    between atoms: C_4  and  C_37
REMARK    3  A    between atoms: C_5  and  C_18
REMARK    4  A    between atoms: C_6  and  C_17
REMARK    5  A    between atoms: C_7  and  C_8
REMARK    6  A    between atoms: C_8  and  O_9
REMARK    7  A    between atoms: O_9  and  C_10
REMARK    8  A    between atoms: C_27  and  C_35
REMARK    9  A    between atoms: C_28  and  N_34
REMARK   10  A    between atoms: C_29  and  C_30
REMARK   11  A    between atoms: C_29  and  C_32
REMARK                            x       y       z     vdW  Elec       q    Type
REMARK                         _______ _______ _______ _____ _____    ______ ____
ROOT
ATOM      1  C   UNL     1       1.072   3.208  -1.147  0.00  0.00    +0.067 C 
ATOM      2  C   UNL     1       0.743   2.722  -2.560  0.00  0.00    +0.030 C 
ATOM      3  C   UNL     1       0.737   3.855  -3.559  0.00  0.00    +0.009 C 
ATOM      4  C   UNL     1      -0.678   4.349  -3.852  0.00  0.00    +0.005 C 
ATOM      5  C   UNL     1      -1.497   3.172  -4.400  0.00  0.00    +0.027 C 
ATOM      6  C   UNL     1      -1.541   2.107  -3.336  0.00  0.00    -0.022 C 
ATOM      7  C   UNL     1      -0.534   1.936  -2.503  0.00  0.00    -0.029 C 
ATOM      8  C   UNL     1      -0.665   0.947  -1.401  0.00  0.00    +0.074 C 
ATOM      9  C   UNL     1       0.198   0.998  -0.355  0.00  0.00    +0.054 C 
ATOM     10  C   UNL     1       1.313   1.994  -0.249  0.00  0.00    +0.188 C 
ENDROOT
BRANCH   1  15
ATOM     11  C   UNL     1       5.830   6.484  -1.288  0.00  0.00    +0.044 C 
ATOM     12  C   UNL     1       4.589   5.630  -1.251  0.00  0.00    -0.044 A 
ATOM     13  C   UNL     1       3.915   5.441  -0.059  0.00  0.00    +0.007 A 
ATOM     14  C   UNL     1       2.777   4.657  -0.025  0.00  0.00    -0.046 A 
ATOM     15  C   UNL     1       2.312   4.062  -1.184  0.00  0.00    -0.035 A 
ATOM     16  C   UNL     1       2.989   4.247  -2.375  0.00  0.00    -0.040 A 
ATOM     17  C   UNL     1       4.124   5.036  -2.410  0.00  0.00    -0.004 A 
ATOM     18  C   UNL     1       2.487   3.594  -3.636  0.00  0.00    +0.044 C 
ATOM     19  C   UNL     1       2.042   4.451   1.274  0.00  0.00    +0.044 C 
BRANCH  17  20
ATOM     20  C   UNL     1       4.859   5.242  -3.709  0.00  0.00    +0.265 C 
BRANCH  20  21
ATOM     21  O   UNL     1       5.846   4.221  -3.866  0.00  0.00    -0.487 OA
BRANCH  21  22
ATOM     22  C   UNL     1       6.603   4.262  -4.994  0.00  0.00    +0.121 A 
ATOM     23  C   UNL     1       6.395   5.261  -5.934  0.00  0.00    +0.048 A 
ATOM     24  C   UNL     1       7.168   5.304  -7.078  0.00  0.00    +0.042 A 
ATOM     25  C   UNL     1       8.143   4.345  -7.292  0.00  0.00    +0.124 A 
ATOM     26  C   UNL     1       8.348   3.345  -6.358  0.00  0.00    +0.042 A 
ATOM     27  C   UNL     1       7.580   3.302  -5.210  0.00  0.00    +0.048 A 
ATOM     28  F   UNL     1       8.894   4.385  -8.415  0.00  0.00    -0.205 F 
ENDBRANCH  21  22
ENDBRANCH  20  21
ENDBRANCH  17  20
ENDBRANCH   1  15
BRANCH   9  29
ATOM     29  N   UNL     1       0.043   0.092   0.656  0.00  0.00    -0.358 N 
ATOM     30  H   UNL     1       0.726   0.107   1.518  0.00  0.00    +0.142 HD
ATOM     31  H   UNL     1      -0.766  -0.653   0.609  0.00  0.00    +0.142 HD
ENDBRANCH   9  29
BRANCH  10  32
ATOM     32  C   UNL     1       2.574   1.347  -0.645  0.00  0.00    +0.091 C 
ATOM     33  N   UNL     1       3.548   0.847  -0.950  0.00  0.00    -0.194 NA
ENDBRANCH  10  32
BRANCH  10  34
ATOM     34  C   UNL     1       1.423   2.444   1.148  0.00  0.00    +0.091 C 
ATOM     35  N   UNL     1       1.509   2.792   2.226  0.00  0.00    -0.194 NA
ENDBRANCH  10  34
BRANCH   8  36
ATOM     36  C   UNL     1      -1.693  -0.050  -1.442  0.00  0.00    +0.101 C 
ATOM     37  N   UNL     1      -2.508  -0.840  -1.474  0.00  0.00    -0.191 NA
ENDBRANCH   8  36
TORSDOF 8
