REMARK  Name = ZINC14382909
REMARK  10 active torsions:
REMARK  status: ('A' for Active; 'I' for Inactive)
REMARK    1  A    between atoms: C_4  and  C_7
REMARK    2  A    between atoms: C_7  and  N_8
REMARK    3  A    between atoms: C_9  and  N_38
REMARK    4  A    between atoms: C_10  and  N_17
REMARK    5  A    between atoms: N_17  and  C_18
REMARK    6  A    between atoms: C_18  and  C_19
REMARK    7  A    between atoms: C_25  and  C_27
REMARK    8  A    between atoms: C_27  and  C_28
REMARK    9  A    between atoms: C_28  and  N_29
REMARK   10  A    between atoms: C_30  and  C_32
REMARK                            x       y       z     vdW  Elec       q    Type
REMARK                         _______ _______ _______ _____ _____    ______ ____
ROOT
ATOM      1  N   UNL     1      -3.692  -4.845   0.128  0.00  0.00    -0.260 N 
ATOM      2  C   UNL     1      -2.521  -4.398  -0.373  0.00  0.00    +0.222 C 
ATOM      3  O   UNL     1      -1.657  -5.187  -0.694  0.00  0.00    -0.275 OA
ENDROOT
BRANCH   1   6
ATOM      4  N   UNL     1      -4.939  -8.294  -0.103  0.00  0.00    -0.276 N 
ATOM      5  C   UNL     1      -4.787  -6.951  -0.362  0.00  0.00    +0.128 A 
ATOM      6  C   UNL     1      -3.874  -6.223   0.372  0.00  0.00    +0.140 A 
ATOM      7  C   UNL     1      -3.131  -6.876   1.373  0.00  0.00    +0.277 A 
ATOM      8  O   UNL     1      -2.320  -6.255   2.040  0.00  0.00    -0.266 OA
ATOM      9  N   UNL     1      -3.321  -8.192   1.590  0.00  0.00    -0.273 N 
ATOM     10  H   UNL     1      -2.794  -8.658   2.301  0.00  0.00    +0.173 HD
ATOM     11  C   UNL     1      -4.212  -8.887   0.861  0.00  0.00    +0.331 A 
ATOM     12  O   UNL     1      -4.364 -10.074   1.078  0.00  0.00    -0.246 OA
BRANCH   5  13
ATOM     13  N   UNL     1      -5.532  -6.344  -1.344  0.00  0.00    -0.343 N 
ATOM     14  H   UNL     1      -5.359  -5.420  -1.583  0.00  0.00    +0.144 HD
ATOM     15  H   UNL     1      -6.232  -6.840  -1.798  0.00  0.00    +0.144 HD
ENDBRANCH   5  13
BRANCH   4  16
ATOM     16  C   UNL     1      -5.901  -9.081  -0.878  0.00  0.00    +0.163 C 
BRANCH  16  20
ATOM     17  C   UNL     1      -9.707  -8.988   1.059  0.00  0.00    +0.000 A 
ATOM     18  C   UNL     1      -9.386  -8.025   0.119  0.00  0.00    +0.000 A 
ATOM     19  C   UNL     1      -8.154  -8.055  -0.507  0.00  0.00    +0.005 A 
ATOM     20  C   UNL     1      -7.244  -9.048  -0.195  0.00  0.00    -0.028 A 
ATOM     21  C   UNL     1      -7.567 -10.013   0.741  0.00  0.00    +0.005 A 
ATOM     22  C   UNL     1      -8.797  -9.980   1.371  0.00  0.00    +0.000 A 
ENDBRANCH  16  20
ENDBRANCH   4  16
ENDBRANCH   1   6
BRANCH   1  23
ATOM     23  C   UNL     1      -4.774  -3.901   0.417  0.00  0.00    +0.149 C 
BRANCH  23  24
ATOM     24  C   UNL     1      -4.728  -3.515   1.873  0.00  0.00    -0.030 A 
ATOM     25  C   UNL     1      -5.357  -4.304   2.817  0.00  0.00    +0.005 A 
ATOM     26  C   UNL     1      -5.311  -3.953   4.153  0.00  0.00    +0.000 A 
ATOM     27  C   UNL     1      -4.643  -2.807   4.544  0.00  0.00    +0.000 A 
ATOM     28  C   UNL     1      -4.018  -2.015   3.599  0.00  0.00    +0.000 A 
ATOM     29  C   UNL     1      -4.060  -2.369   2.263  0.00  0.00    +0.005 A 
ENDBRANCH  23  24
ENDBRANCH   1  23
BRANCH   2  30
ATOM     30  C   UNL     1      -2.287  -2.917  -0.533  0.00  0.00    +0.115 C 
BRANCH  30  31
ATOM     31  C   UNL     1      -0.911  -2.684  -1.160  0.00  0.00    +0.113 C 
BRANCH  31  32
ATOM     32  N   UNL     1      -0.683  -1.245  -1.315  0.00  0.00    -0.311 N 
ATOM     33  C   UNL     1       0.471  -0.799  -1.850  0.00  0.00    +0.244 C 
ATOM     34  O   UNL     1       1.323  -1.591  -2.203  0.00  0.00    -0.270 OA
ATOM     35  H   UNL     1      -1.363  -0.613  -1.034  0.00  0.00    +0.149 HD
BRANCH  33  36
ATOM     36  C   UNL     1       0.701   0.653  -2.007  0.00  0.00    +0.037 A 
ATOM     37  C   UNL     1      -0.278   1.564  -1.608  0.00  0.00    +0.013 A 
ATOM     38  C   UNL     1      -0.055   2.918  -1.753  0.00  0.00    +0.001 A 
ATOM     39  C   UNL     1       1.131   3.372  -2.302  0.00  0.00    +0.000 A 
ATOM     40  C   UNL     1       2.103   2.474  -2.705  0.00  0.00    +0.001 A 
ATOM     41  C   UNL     1       1.895   1.117  -2.560  0.00  0.00    +0.013 A 
ENDBRANCH  33  36
ENDBRANCH  31  32
ENDBRANCH  30  31
ENDBRANCH   2  30
TORSDOF 10
