REMARK  Name = ZINC09356326
REMARK  6 active torsions:
REMARK  status: ('A' for Active; 'I' for Inactive)
REMARK    1  A    between atoms: C_1  and  C_2
REMARK    2  A    between atoms: C_2  and  C_3
REMARK    3  A    between atoms: C_3  and  N_4
REMARK    4  A    between atoms: N_4  and  C_5
REMARK    5  A    between atoms: C_5  and  C_27
REMARK    6  A    between atoms: C_7  and  C_21
REMARK                            x       y       z     vdW  Elec       q    Type
REMARK                         _______ _______ _______ _____ _____    ______ ____
ROOT
ATOM      1  C   UNL     1      -2.574  -2.692   0.047  0.00  0.00    +0.015 C 
ATOM      2  C   UNL     1      -2.558  -4.068  -0.083  0.00  0.00    +0.083 C 
ATOM      3  C   UNL     1      -1.372  -4.947  -0.126  0.00  0.00    +0.103 C 
ATOM      4  N   UNL     1      -1.806  -6.174  -0.258  0.00  0.00    -0.169 NA
ATOM      5  N   UNL     1      -3.201  -6.188  -0.307  0.00  0.00    -0.131 N 
ATOM      6  C   UNL     1      -3.680  -4.934  -0.198  0.00  0.00    +0.276 C 
ATOM      7  O   UNL     1      -4.854  -4.604  -0.200  0.00  0.00    -0.268 OA
ATOM      8  C   UNL     1      -3.980  -7.328  -0.442  0.00  0.00    +0.189 A 
ATOM      9  N   UNL     1      -5.288  -7.429  -0.503  0.00  0.00    -0.223 NA
ATOM     10  C   UNL     1      -5.918  -8.616  -0.637  0.00  0.00    +0.080 A 
ATOM     11  C   UNL     1      -7.309  -8.861  -0.714  0.00  0.00    +0.029 A 
ATOM     12  C   UNL     1      -7.788 -10.138  -0.849  0.00  0.00    +0.002 A 
ATOM     13  C   UNL     1      -6.934 -11.230  -0.916  0.00  0.00    +0.001 A 
ATOM     14  C   UNL     1      -5.568 -11.026  -0.845  0.00  0.00    +0.017 A 
ATOM     15  C   UNL     1      -5.079  -9.751  -0.708  0.00  0.00    +0.041 A 
ATOM     16  S   UNL     1      -3.459  -9.031  -0.587  0.00  0.00    -0.050 S 
ATOM     17  C   UNL     1      -3.884  -1.966   0.214  0.00  0.00    +0.061 C 
ENDROOT
BRANCH   3  18
ATOM     18  C   UNL     1       0.044  -4.520  -0.038  0.00  0.00    +0.003 A 
ATOM     19  C   UNL     1       0.700  -4.521   1.193  0.00  0.00    +0.010 A 
ATOM     20  C   UNL     1       2.019  -4.123   1.269  0.00  0.00    +0.001 A 
ATOM     21  C   UNL     1       2.690  -3.721   0.128  0.00  0.00    +0.000 A 
ATOM     22  C   UNL     1       2.044  -3.717  -1.096  0.00  0.00    +0.001 A 
ATOM     23  C   UNL     1       0.727  -4.119  -1.185  0.00  0.00    +0.010 A 
ENDBRANCH   3  18
BRANCH   1  24
ATOM     24  N   UNL     1      -1.417  -1.999   0.025  0.00  0.00    -0.347 N 
ATOM     25  H   UNL     1      -0.569  -2.470  -0.003  0.00  0.00    +0.146 HD
BRANCH  24  26
ATOM     26  C   UNL     1      -1.440  -0.534   0.041  0.00  0.00    +0.101 C 
BRANCH  26  28
ATOM     27  C   UNL     1      -0.030   1.529   0.028  0.00  0.00    +0.005 C 
ATOM     28  C   UNL     1      -0.006  -0.001   0.010  0.00  0.00    +0.015 C 
ENDBRANCH  26  28
ENDBRANCH  24  26
ENDBRANCH   1  24
TORSDOF 4
