REMARK  Name = ZINC13530391
REMARK  6 active torsions:
REMARK  status: ('A' for Active; 'I' for Inactive)
REMARK    1  A    between atoms: C_1  and  C_2
REMARK    2  A    between atoms: C_15  and  O_31
REMARK    3  A    between atoms: C_19  and  C_30
REMARK    4  A    between atoms: C_22  and  O_25
REMARK    5  A    between atoms: O_25  and  S_26
REMARK    6  A    between atoms: S_26  and  N_29
REMARK                            x       y       z     vdW  Elec       q    Type
REMARK                         _______ _______ _______ _____ _____    ______ ____
ROOT
ATOM      1  C   UNL     1       3.077  -1.603  -2.595  0.00  0.00    +0.019 C 
ATOM      2  C   UNL     1       3.695  -1.762  -1.204  0.00  0.00    +0.029 C 
ATOM      3  C   UNL     1       2.823  -2.670  -0.358  0.00  0.00    +0.015 C 
ATOM      4  C   UNL     1       1.402  -2.085  -0.382  0.00  0.00    +0.006 C 
ATOM      5  C   UNL     1       1.374  -0.645   0.124  0.00  0.00    +0.005 C 
ATOM      6  C   UNL     1       2.369   0.244  -0.634  0.00  0.00    +0.029 C 
ATOM      7  C   UNL     1       3.745  -0.383  -0.493  0.00  0.00    +0.009 C 
ATOM      8  C   UNL     1       4.872   0.310  -1.269  0.00  0.00    +0.012 C 
ATOM      9  C   UNL     1       5.910  -0.831  -1.446  0.00  0.00    +0.075 C 
ATOM     10  C   UNL     1       5.140  -2.143  -1.337  0.00  0.00    +0.139 C 
ATOM     11  O   UNL     1       5.599  -3.259  -1.353  0.00  0.00    -0.297 OA
ATOM     12  C   UNL     1       2.369   1.629   0.024  0.00  0.00    +0.141 C 
ATOM     13  C   UNL     1       0.970   2.172   0.033  0.00  0.00    +0.004 C 
ATOM     14  C   UNL     1      -0.085   1.411   0.030  0.00  0.00    -0.062 C 
ATOM     15  C   UNL     1      -0.035  -0.088   0.009  0.00  0.00    -0.008 C 
ATOM     16  C   UNL     1      -0.911  -0.642   1.135  0.00  0.00    +0.014 C 
ATOM     17  C   UNL     1      -2.321  -0.061   1.014  0.00  0.00    +0.035 C 
ATOM     18  C   UNL     1      -2.270   1.458   1.189  0.00  0.00    +0.155 C 
ATOM     19  C   UNL     1      -1.451   2.075   0.056  0.00  0.00    +0.065 C 
ATOM     20  C   UNL     1      -0.630  -0.566  -1.317  0.00  0.00    +0.016 C 
ENDROOT
BRANCH  12  21
ATOM     21  O   UNL     1       2.848   1.520   1.365  0.00  0.00    -0.387 OA
ATOM     22  H   UNL     1       2.876   2.361   1.843  0.00  0.00    +0.210 HD
ENDBRANCH  12  21
BRANCH  18  23
ATOM     23  O   UNL     1      -3.598   1.986   1.161  0.00  0.00    -0.222 OA
BRANCH  23  24
ATOM     24  S   UNL     1      -4.220   2.170   2.538  0.00  0.00    +0.149 S 
ATOM     25  O   UNL     1      -5.586   2.496   2.326  0.00  0.00    -0.130 OA
ATOM     26  O   UNL     1      -3.815   1.055   3.320  0.00  0.00    -0.130 OA
BRANCH  24  27
ATOM     27  N   UNL     1      -3.515   3.506   3.218  0.00  0.00    -0.183 NA
ATOM     28  H   UNL     1      -4.014   4.051   3.846  0.00  0.00    +0.146 HD
ATOM     29  H   UNL     1      -2.603   3.743   2.989  0.00  0.00    +0.146 HD
ENDBRANCH  24  27
ENDBRANCH  23  24
ENDBRANCH  18  23
TORSDOF 4
