REMARK  Name = ZINC48447371
REMARK  9 active torsions:
REMARK  status: ('A' for Active; 'I' for Inactive)
REMARK    1  A    between atoms: C_1  and  C_2
REMARK    2  A    between atoms: C_5  and  C_29
REMARK    3  A    between atoms: N_8  and  C_10
REMARK    4  A    between atoms: C_10  and  C_11
REMARK    5  A    between atoms: C_14  and  C_17
REMARK    6  A    between atoms: C_17  and  N_18
REMARK    7  A    between atoms: N_21  and  C_22
REMARK    8  A    between atoms: C_22  and  C_23
REMARK    9  A    between atoms: C_22  and  C_26
REMARK                            x       y       z     vdW  Elec       q    Type
REMARK                         _______ _______ _______ _____ _____    ______ ____
ROOT
ATOM      1  C   UNL     1       0.253   2.455   9.795  0.00  0.00    +0.141 C 
ENDROOT
BRANCH   1   5
ATOM      2  C   UNL     1       3.540   0.116   8.391  0.00  0.00    -0.064 A 
ATOM      3  C   UNL     1       3.708   1.466   8.637  0.00  0.00    +0.002 A 
ATOM      4  C   UNL     1       2.644   2.223   9.092  0.00  0.00    +0.005 A 
ATOM      5  C   UNL     1       1.413   1.630   9.299  0.00  0.00    -0.030 A 
ATOM      6  C   UNL     1       1.245   0.280   9.051  0.00  0.00    +0.005 A 
ATOM      7  C   UNL     1       2.307  -0.476   8.593  0.00  0.00    +0.002 A 
BRANCH   2   8
ATOM      8  C   UNL     1       4.700  -0.709   7.896  0.00  0.00    -0.043 C 
BRANCH   8  14
ATOM      9  C   UNL     1       3.495   0.212   3.958  0.00  0.00    +0.005 C 
ATOM     10  C   UNL     1       3.498  -1.258   4.383  0.00  0.00    -0.031 C 
ATOM     11  C   UNL     1       4.742  -1.951   3.820  0.00  0.00    +0.003 C 
ATOM     12  C   UNL     1       5.992  -1.304   4.423  0.00  0.00    -0.031 C 
ATOM     13  C   UNL     1       5.920  -1.392   5.949  0.00  0.00    -0.075 C 
ATOM     14  N   UNL     1       4.724  -0.689   6.427  0.00  0.00    +0.383 N 
ATOM     15  C   UNL     1       3.517  -1.348   5.910  0.00  0.00    -0.075 C 
ATOM     16  C   UNL     1       7.239  -2.039   3.926  0.00  0.00    +0.005 C 
ATOM     17  H   UNL     1       4.746   0.268   6.106  0.00  0.00    -0.081 HD
ENDBRANCH   8  14
ENDBRANCH   2   8
ENDBRANCH   1   5
BRANCH   1  18
ATOM     18  N   UNL     1      -0.479   3.006   8.652  0.00  0.00    -0.295 N 
ATOM     19  C   UNL     1      -1.562   3.782   8.855  0.00  0.00    +0.301 C 
ATOM     20  O   UNL     1      -1.931   4.025   9.988  0.00  0.00    -0.253 OA
ATOM     21  N   UNL     1      -2.235   4.289   7.804  0.00  0.00    -0.281 N 
ATOM     22  H   UNL     1      -0.184   2.813   7.748  0.00  0.00    +0.151 HD
ATOM     23  H   UNL     1      -1.940   4.096   6.900  0.00  0.00    +0.151 HD
BRANCH  21  24
ATOM     24  C   UNL     1      -3.412   5.133   8.025  0.00  0.00    +0.246 C 
BRANCH  24  25
ATOM     25  C   UNL     1      -3.610   6.041   6.839  0.00  0.00    +0.240 C 
ATOM     26  O   UNL     1      -3.197   5.710   5.747  0.00  0.00    -0.273 OA
ATOM     27  N   UNL     1      -4.245   7.219   6.990  0.00  0.00    -0.327 N 
ATOM     28  H   UNL     1      -4.511   7.516   7.875  0.00  0.00    +0.145 HD
ATOM     29  H   UNL     1      -4.436   7.771   6.216  0.00  0.00    +0.145 HD
ENDBRANCH  24  25
BRANCH  24  30
ATOM     30  C   UNL     1      -4.629   4.261   8.199  0.00  0.00    +0.240 C 
ATOM     31  O   UNL     1      -4.645   3.142   7.733  0.00  0.00    -0.273 OA
ATOM     32  N   UNL     1      -5.699   4.726   8.873  0.00  0.00    -0.327 N 
ATOM     33  H   UNL     1      -5.661   5.593   9.307  0.00  0.00    +0.145 HD
ATOM     34  H   UNL     1      -6.509   4.193   8.925  0.00  0.00    +0.145 HD
ENDBRANCH  24  30
ENDBRANCH  21  24
ENDBRANCH   1  18
TORSDOF 7
