REMARK  Name = ZINC04342109
REMARK  7 active torsions:
REMARK  status: ('A' for Active; 'I' for Inactive)
REMARK    1  A    between atoms: C_1  and  C_2
REMARK    2  A    between atoms: C_3  and  C_22
REMARK    3  A    between atoms: C_4  and  C_12
REMARK    4  A    between atoms: C_14  and  O_20
REMARK    5  A    between atoms: C_15  and  O_19
REMARK    6  A    between atoms: O_20  and  C_21
REMARK    7  A    between atoms: C_22  and  C_24
REMARK                            x       y       z     vdW  Elec       q    Type
REMARK                         _______ _______ _______ _____ _____    ______ ____
ROOT
ATOM      1  C   UNL     1      -0.018   1.503   0.010  0.00  0.00    +0.061 C 
ATOM      2  C   UNL     1       0.002  -0.004   0.002  0.00  0.00    +0.016 C 
ATOM      3  C   UNL     1      -1.169  -0.671   0.004  0.00  0.00    +0.040 C 
ATOM      4  C   UNL     1      -1.256  -2.174  -0.016  0.00  0.00    +0.176 C 
ATOM      5  N   UNL     1       0.063  -2.741   0.255  0.00  0.00    -0.221 N 
ATOM      6  C   UNL     1       1.208  -2.014   0.249  0.00  0.00    +0.218 A 
ATOM      7  N   UNL     1       2.198  -2.820   0.521  0.00  0.00    -0.201 NA
ATOM      8  C   UNL     1       1.728  -4.058   0.708  0.00  0.00    +0.247 A 
ATOM      9  N   UNL     1       0.427  -4.052   0.556  0.00  0.00    -0.156 NA
ATOM     10  N   UNL     1       1.210  -0.650  -0.013  0.00  0.00    -0.287 N 
ATOM     11  H   UNL     1       2.034  -0.172  -0.196  0.00  0.00    +0.155 HD
ENDROOT
BRANCH   4  12
ATOM     12  C   UNL     1      -1.730  -2.632  -1.371  0.00  0.00    -0.014 A 
ATOM     13  C   UNL     1      -2.905  -3.354  -1.483  0.00  0.00    +0.055 A 
ATOM     14  C   UNL     1      -3.343  -3.776  -2.727  0.00  0.00    +0.163 A 
ATOM     15  C   UNL     1      -2.600  -3.471  -3.864  0.00  0.00    +0.173 A 
ATOM     16  C   UNL     1      -1.424  -2.747  -3.745  0.00  0.00    +0.063 A 
ATOM     17  C   UNL     1      -0.995  -2.325  -2.500  0.00  0.00    +0.025 A 
ATOM     18 BR   UNL     1      -0.411  -2.330  -5.287  0.00  0.00    -0.046 Br
BRANCH  15  19
ATOM     19  O   UNL     1      -3.026  -3.884  -5.088  0.00  0.00    -0.503 OA
ATOM     20  H   UNL     1      -3.603  -3.251  -5.537  0.00  0.00    +0.292 HD
ENDBRANCH  15  19
BRANCH  14  21
ATOM     21  O   UNL     1      -4.497  -4.487  -2.838  0.00  0.00    -0.491 OA
ATOM     22  C   UNL     1      -5.207  -4.764  -1.630  0.00  0.00    +0.277 C 
ENDBRANCH  14  21
ENDBRANCH   4  12
BRANCH   3  23
ATOM     23  C   UNL     1      -2.360   0.068   0.026  0.00  0.00    +0.160 C 
ATOM     24  O   UNL     1      -2.322   1.282   0.043  0.00  0.00    -0.293 OA
ATOM     25  C   UNL     1      -3.689  -0.644   0.029  0.00  0.00    +0.091 C 
ENDBRANCH   3  23
TORSDOF 4
