REMARK  Name = ZINC35354304
REMARK  6 active torsions:
REMARK  status: ('A' for Active; 'I' for Inactive)
REMARK    1  A    between atoms: C_1  and  C_2
REMARK    2  A    between atoms: C_7  and  C_21
REMARK    3  A    between atoms: N_9  and  S_10
REMARK    4  A    between atoms: S_10  and  C_13
REMARK    5  A    between atoms: C_18  and  N_19
REMARK    6  A    between atoms: N_19  and  N_20
REMARK                            x       y       z     vdW  Elec       q    Type
REMARK                         _______ _______ _______ _____ _____    ______ ____
ROOT
ATOM      1  S   UNL     1      -0.051  -1.452   2.216  0.00  0.00    +0.063 S 
ATOM      2  O   UNL     1       0.006  -0.940   3.541  0.00  0.00    -0.153 OA
ATOM      3  O   UNL     1      -1.279  -1.742   1.564  0.00  0.00    -0.153 OA
ENDROOT
BRANCH   1  10
ATOM      4  C   UNL     1      -0.200   1.378  -0.175  0.00  0.00    +0.026 C 
ATOM      5  C   UNL     1       0.274  -0.075  -0.102  0.00  0.00    +0.077 C 
ATOM      6  C   UNL     1       1.424  -0.290  -1.091  0.00  0.00    +0.020 C 
ATOM      7  C   UNL     1       2.628   0.549  -0.657  0.00  0.00    +0.003 C 
ATOM      8  C   UNL     1       3.093   0.098   0.730  0.00  0.00    +0.020 C 
ATOM      9  C   UNL     1       1.962   0.317   1.739  0.00  0.00    +0.077 C 
ATOM     10  N   UNL     1       0.753  -0.369   1.255  0.00  0.00    -0.171 NA
ATOM     11  C   UNL     1       2.369  -0.256   3.098  0.00  0.00    +0.026 C 
ENDBRANCH   1  10
BRANCH   1  12
ATOM     12  C   UNL     1       0.885  -2.945   2.214  0.00  0.00    +0.127 A 
ATOM     13  C   UNL     1       1.462  -3.401   3.383  0.00  0.00    +0.030 A 
ATOM     14  C   UNL     1       2.197  -4.572   3.382  0.00  0.00    +0.002 A 
ATOM     15  C   UNL     1       2.357  -5.291   2.211  0.00  0.00    +0.002 A 
ATOM     16  C   UNL     1       1.782  -4.841   1.039  0.00  0.00    +0.026 A 
ATOM     17  C   UNL     1       1.038  -3.667   1.038  0.00  0.00    +0.067 A 
BRANCH  17  18
ATOM     18  N   UNL     1       0.451  -3.212  -0.145  0.00  0.00    -0.281 N 
ATOM     19  H   UNL     1      -0.129  -2.435  -0.130  0.00  0.00    +0.166 HD
BRANCH  18  20
ATOM     20  N   UNL     1       0.694  -3.861  -1.322  0.00  0.00    -0.256 NA
ATOM     21  H   UNL     1       0.452  -4.838  -1.254  0.00  0.00    +0.140 HD
ATOM     22  H   UNL     1       0.205  -3.420  -2.086  0.00  0.00    +0.140 HD
ENDBRANCH  18  20
ENDBRANCH  17  18
ENDBRANCH   1  12
TORSDOF 4
