REMARK  Name = ZINC50698319
REMARK  6 active torsions:
REMARK  status: ('A' for Active; 'I' for Inactive)
REMARK    1  A    between atoms: C_1  and  C_2
REMARK    2  A    between atoms: C_5  and  C_21
REMARK    3  A    between atoms: C_6  and  N_8
REMARK    4  A    between atoms: C_9  and  C_11
REMARK    5  A    between atoms: C_13  and  N_18
REMARK    6  A    between atoms: C_16  and  N_17
REMARK                            x       y       z     vdW  Elec       q    Type
REMARK                         _______ _______ _______ _____ _____    ______ ____
ROOT
ATOM      1  N   UNL     1       0.041  -2.798   2.393  0.00  0.00    -0.281 N 
ATOM      2  C   UNL     1       0.146  -2.135   3.562  0.00  0.00    +0.250 C 
ATOM      3  O   UNL     1       0.133  -0.919   3.574  0.00  0.00    -0.270 OA
ATOM      4  H   UNL     1      -0.031  -3.765   2.389  0.00  0.00    +0.155 HD
ENDROOT
BRANCH   1  10
ATOM      5  C   UNL     1       1.261   1.220  -0.163  0.00  0.00    +0.044 C 
ATOM      6  C   UNL     1       0.619  -0.141  -0.082  0.00  0.00    -0.049 A 
ATOM      7  C   UNL     1       0.024  -0.693  -1.201  0.00  0.00    +0.004 A 
ATOM      8  C   UNL     1      -0.566  -1.941  -1.131  0.00  0.00    +0.005 A 
ATOM      9  C   UNL     1      -0.562  -2.642   0.060  0.00  0.00    -0.029 A 
ATOM     10  C   UNL     1       0.035  -2.091   1.186  0.00  0.00    +0.037 A 
ATOM     11  C   UNL     1       0.631  -0.839   1.110  0.00  0.00    +0.027 A 
ATOM     12  C   UNL     1      -1.205  -4.003   0.136  0.00  0.00    +0.045 C 
ENDBRANCH   1  10
BRANCH   2  13
ATOM     13  C   UNL     1       0.275  -2.884   4.825  0.00  0.00    +0.060 A 
ATOM     14  C   UNL     1       0.399  -4.276   4.807  0.00  0.00    +0.047 A 
ATOM     15  C   UNL     1       0.520  -4.969   5.991  0.00  0.00    +0.127 A 
ATOM     16  C   UNL     1       0.520  -4.294   7.202  0.00  0.00    +0.034 A 
ATOM     17  C   UNL     1       0.399  -2.920   7.236  0.00  0.00    +0.026 A 
ATOM     18  C   UNL     1       0.281  -2.203   6.052  0.00  0.00    +0.037 A 
BRANCH  18  19
ATOM     19  N   UNL     1       0.164  -0.819   6.083  0.00  0.00    -0.357 N 
ATOM     20  H   UNL     1       0.153  -0.315   5.255  0.00  0.00    +0.142 HD
ATOM     21  H   UNL     1       0.094  -0.357   6.933  0.00  0.00    +0.142 HD
ENDBRANCH  18  19
BRANCH  15  22
ATOM     22  N   UNL     1       0.651  -6.444   5.970  0.00  0.00    +0.056 N 
ATOM     23  O   UNL     1       0.651  -7.036   4.916  0.00  0.00    -0.126 OA
ATOM     24  O   UNL     1       0.757  -7.056   7.007  0.00  0.00    -0.126 OA
ENDBRANCH  15  22
ENDBRANCH   2  13
TORSDOF 4
