REMARK  Name = ZINC13123647
REMARK  7 active torsions:
REMARK  status: ('A' for Active; 'I' for Inactive)
REMARK    1  A    between atoms: C_1  and  C_2
REMARK    2  A    between atoms: C_2  and  O_3
REMARK    3  A    between atoms: O_3  and  C_4
REMARK    4  A    between atoms: C_9  and  C_10
REMARK    5  A    between atoms: C_12  and  C_28
REMARK    6  A    between atoms: C_13  and  C_27
REMARK    7  A    between atoms: C_18  and  C_20
REMARK                            x       y       z     vdW  Elec       q    Type
REMARK                         _______ _______ _______ _____ _____    ______ ____
ROOT
ATOM      1  C   UNL     1       1.954  -1.481  -3.470  0.00  0.00    +0.181 C 
ATOM      2  C   UNL     1       3.420  -1.819  -3.518  0.00  0.00    +0.060 C 
ATOM      3  C   UNL     1       4.015  -2.346  -4.597  0.00  0.00    +0.018 C 
ATOM      4  N   UNL     1       3.327  -2.612  -5.756  0.00  0.00    -0.287 N 
ATOM      5  C   UNL     1       2.052  -2.077  -5.879  0.00  0.00    +0.219 A 
ATOM      6  N   UNL     1       1.397  -1.538  -4.819  0.00  0.00    -0.220 N 
ATOM      7  N   UNL     1       0.164  -1.095  -5.293  0.00  0.00    -0.147 NA
ATOM      8  C   UNL     1       0.128  -1.380  -6.579  0.00  0.00    +0.185 A 
ATOM      9  N   UNL     1       1.281  -1.980  -6.925  0.00  0.00    -0.193 NA
ATOM     10  C   UNL     1       5.488  -2.660  -4.536  0.00  0.00    +0.061 C 
ATOM     11  H   UNL     1       3.718  -3.151  -6.461  0.00  0.00    +0.155 HD
ENDROOT
BRANCH   8  12
ATOM     12  C   UNL     1      -1.002  -1.089  -7.496  0.00  0.00    +0.039 A 
ATOM     13  C   UNL     1      -2.147  -0.457  -7.016  0.00  0.00    +0.013 A 
ATOM     14  C   UNL     1      -3.195  -0.189  -7.874  0.00  0.00    +0.001 A 
ATOM     15  C   UNL     1      -3.110  -0.547  -9.207  0.00  0.00    +0.001 A 
ATOM     16  C   UNL     1      -1.977  -1.175  -9.690  0.00  0.00    +0.021 A 
ATOM     17  C   UNL     1      -0.919  -1.442  -8.843  0.00  0.00    +0.052 A 
ATOM     18 CL   UNL     1       0.507  -2.223  -9.451  0.00  0.00    -0.083 Cl
ENDBRANCH   8  12
BRANCH   1  24
ATOM     19  C   UNL     1       0.557  -2.034  -1.462  0.00  0.00    +0.126 A 
ATOM     20  C   UNL     1      -0.105  -2.948  -0.655  0.00  0.00    +0.046 A 
ATOM     21  C   UNL     1      -0.080  -4.292  -0.972  0.00  0.00    +0.004 A 
ATOM     22  C   UNL     1       0.605  -4.727  -2.092  0.00  0.00    +0.001 A 
ATOM     23  C   UNL     1       1.266  -3.818  -2.897  0.00  0.00    +0.009 A 
ATOM     24  C   UNL     1       1.238  -2.472  -2.588  0.00  0.00    +0.023 A 
BRANCH  19  25
ATOM     25  O   UNL     1       0.534  -0.711  -1.152  0.00  0.00    -0.492 OA
BRANCH  25  27
ATOM     26  C   UNL     1      -0.102   1.185   0.206  0.00  0.00    +0.048 C 
ATOM     27  C   UNL     1      -0.187  -0.332   0.022  0.00  0.00    +0.225 C 
ENDBRANCH  25  27
ENDBRANCH  19  25
ENDBRANCH   1  24
BRANCH   2  28
ATOM     28  C   UNL     1       4.208  -1.566  -2.369  0.00  0.00    +0.241 C 
ATOM     29  O   UNL     1       4.520  -0.424  -2.083  0.00  0.00    -0.271 OA
ATOM     30  N   UNL     1       4.613  -2.590  -1.592  0.00  0.00    -0.325 N 
ATOM     31  H   UNL     1       4.364  -3.500  -1.819  0.00  0.00    +0.145 HD
ATOM     32  H   UNL     1       5.152  -2.417  -0.805  0.00  0.00    +0.145 HD
ENDBRANCH   2  28
TORSDOF 5
