REMARK  Name = ZINC01772671
REMARK  5 active torsions:
REMARK  status: ('A' for Active; 'I' for Inactive)
REMARK    1  A    between atoms: C_3  and  C_6
REMARK    2  A    between atoms: C_7  and  C_17
REMARK    3  A    between atoms: N_19  and  N_20
REMARK    4  A    between atoms: C_21  and  C_22
REMARK    5  A    between atoms: C_27  and  O_28
REMARK                            x       y       z     vdW  Elec       q    Type
REMARK                         _______ _______ _______ _____ _____    ______ ____
ROOT
ATOM      1  C   UNL     1       3.737   1.808  -0.024  0.00  0.00    +0.115 A 
ATOM      2  C   UNL     1       4.258   2.838  -0.807  0.00  0.00    +0.177 A 
ATOM      3  N   UNL     1       5.563   2.966  -0.512  0.00  0.00    -0.124 NA
ATOM      4  N   UNL     1       5.901   2.108   0.384  0.00  0.00    -0.058 NA
ATOM      5  N   UNL     1       4.778   1.347   0.737  0.00  0.00    -0.187 N 
ATOM      6  C   UNL     1       4.731   0.318   1.681  0.00  0.00    +0.241 A 
ATOM      7  C   UNL     1       5.857  -0.157   2.491  0.00  0.00    +0.206 A 
ATOM      8  N   UNL     1       5.434  -1.126   3.255  0.00  0.00    -0.032 NA
ATOM      9  O   UNL     1       4.056  -1.320   2.986  0.00  0.00    -0.239 OA
ATOM     10  N   UNL     1       3.677  -0.381   1.996  0.00  0.00    -0.027 NA
ATOM     11  N   UNL     1       7.155   0.341   2.450  0.00  0.00    -0.337 N 
ATOM     12  H   UNL     1       7.378   1.066   1.847  0.00  0.00    +0.144 HD
ATOM     13  H   UNL     1       7.838  -0.038   3.026  0.00  0.00    +0.144 HD
ENDROOT
BRANCH   1  16
ATOM     14  C   UNL     1      -0.016   1.355   0.009  0.00  0.00    +0.008 A 
ATOM     15  C   UNL     1       1.173   2.044   0.002  0.00  0.00    +0.018 A 
ATOM     16  C   UNL     1       2.353   1.321  -0.013  0.00  0.00    +0.040 A 
ATOM     17  S   UNL     1       1.751  -0.360  -0.017  0.00  0.00    -0.095 S 
ATOM     18  C   UNL     1       0.002  -0.004   0.002  0.00  0.00    +0.046 A 
ENDBRANCH   1  16
BRANCH   2  19
ATOM     19  C   UNL     1       3.511   3.642  -1.784  0.00  0.00    +0.286 C 
ATOM     20  O   UNL     1       2.326   3.432  -1.966  0.00  0.00    -0.267 OA
ATOM     21  N   UNL     1       4.138   4.612  -2.478  0.00  0.00    -0.202 N 
ATOM     22  H   UNL     1       5.082   4.780  -2.333  0.00  0.00    +0.178 HD
BRANCH  21  23
ATOM     23  N   UNL     1       3.426   5.379  -3.410  0.00  0.00    -0.187 NA
ATOM     24  C   UNL     1       4.030   6.314  -4.079  0.00  0.00    +0.142 C 
BRANCH  24  25
ATOM     25  C   UNL     1       3.280   7.120  -5.058  0.00  0.00    +0.037 A 
ATOM     26  C   UNL     1       3.928   8.123  -5.784  0.00  0.00    +0.033 A 
ATOM     27  C   UNL     1       3.220   8.874  -6.700  0.00  0.00    +0.042 A 
ATOM     28  C   UNL     1       1.870   8.638  -6.903  0.00  0.00    +0.023 A 
ATOM     29  C   UNL     1       1.219   7.649  -6.190  0.00  0.00    +0.047 A 
ATOM     30  C   UNL     1       1.916   6.882  -5.271  0.00  0.00    +0.126 A 
ATOM     31 CL   UNL     1       4.024  10.120  -7.603  0.00  0.00    -0.084 Cl
BRANCH  30  32
ATOM     32  O   UNL     1       1.278   5.905  -4.574  0.00  0.00    -0.506 OA
ATOM     33  H   UNL     1       0.892   6.205  -3.740  0.00  0.00    +0.292 HD
ENDBRANCH  30  32
ENDBRANCH  24  25
ENDBRANCH  21  23
ENDBRANCH   2  19
TORSDOF 5
