REMARK  Name = ZINC40061866
REMARK  6 active torsions:
REMARK  status: ('A' for Active; 'I' for Inactive)
REMARK    1  A    between atoms: C_1  and  C_2
REMARK    2  A    between atoms: C_2  and  O_3
REMARK    3  A    between atoms: O_3  and  C_4
REMARK    4  A    between atoms: C_4  and  C_6
REMARK    5  A    between atoms: C_13  and  C_15
REMARK    6  A    between atoms: C_20  and  C_25
REMARK                            x       y       z     vdW  Elec       q    Type
REMARK                         _______ _______ _______ _____ _____    ______ ____
ROOT
ATOM      1  C   UNL     1      -3.307  -1.762   0.789  0.00  0.00    +0.115 C 
ATOM      2  C   UNL     1      -3.378  -3.127   1.477  0.00  0.00    +0.018 C 
ATOM      3  C   UNL     1      -4.821  -3.637   1.455  0.00  0.00    +0.020 C 
ATOM      4  C   UNL     1      -5.277  -3.804   0.002  0.00  0.00    +0.108 C 
ATOM      5  N   UNL     1      -5.075  -2.532  -0.706  0.00  0.00    -0.296 N 
ATOM      6  C   UNL     1      -3.746  -1.907  -0.672  0.00  0.00    +0.122 C 
ATOM      7  C   UNL     1      -6.090  -1.950  -1.375  0.00  0.00    +0.263 C 
ATOM      8  O   UNL     1      -5.947  -0.840  -1.852  0.00  0.00    -0.268 OA
ENDROOT
BRANCH   7   9
ATOM      9  C   UNL     1      -7.371  -2.656  -1.527  0.00  0.00    +0.103 A 
ATOM     10  C   UNL     1      -8.575  -2.065  -1.745  0.00  0.00    +0.040 A 
ATOM     11  C   UNL     1      -9.549  -3.089  -1.832  0.00  0.00    +0.000 A 
ATOM     12  C   UNL     1     -10.934  -3.085  -2.042  0.00  0.00    +0.010 A 
ATOM     13  C   UNL     1     -11.619  -4.264  -2.075  0.00  0.00    +0.004 A 
ATOM     14  C   UNL     1     -10.956  -5.473  -1.902  0.00  0.00    -0.048 A 
ATOM     15  C   UNL     1      -9.595  -5.503  -1.694  0.00  0.00    +0.029 A 
ATOM     16  C   UNL     1      -8.874  -4.313  -1.657  0.00  0.00    +0.047 A 
ATOM     17  N   UNL     1      -7.542  -4.026  -1.477  0.00  0.00    -0.351 N 
ATOM     18  H   UNL     1      -6.837  -4.678  -1.337  0.00  0.00    +0.166 HD
ATOM     19  C   UNL     1     -11.733  -6.763  -1.942  0.00  0.00    +0.044 C 
ENDBRANCH   7   9
BRANCH   1  20
ATOM     20  C   UNL     1      -1.891  -1.247   0.840  0.00  0.00    +0.312 C 
ATOM     21  O   UNL     1      -1.028  -1.903   1.373  0.00  0.00    -0.250 OA
BRANCH  20  22
ATOM     22  O   UNL     1      -1.590  -0.059   0.292  0.00  0.00    -0.465 OA
BRANCH  22  24
ATOM     23  C   UNL     1      -0.079   1.734  -0.296  0.00  0.00    +0.048 C 
ATOM     24  C   UNL     1      -0.229   0.368   0.377  0.00  0.00    +0.229 C 
ENDBRANCH  22  24
ENDBRANCH  20  22
ENDBRANCH   1  20
TORSDOF 4
