REMARK  Name = ZINC12325462
REMARK  10 active torsions:
REMARK  status: ('A' for Active; 'I' for Inactive)
REMARK    1  A    between atoms: C_1  and  C_2
REMARK    2  A    between atoms: C_2  and  C_3
REMARK    3  A    between atoms: C_3  and  C_5
REMARK    4  A    between atoms: C_3  and  N_10
REMARK    5  A    between atoms: C_13  and  C_31
REMARK    6  A    between atoms: C_14  and  C_20
REMARK    7  A    between atoms: C_27  and  C_28
REMARK    8  A    between atoms: C_27  and  N_60
REMARK    9  A    between atoms: C_28  and  O_29
REMARK   10  A    between atoms: O_29  and  C_30
REMARK                            x       y       z     vdW  Elec       q    Type
REMARK                         _______ _______ _______ _____ _____    ______ ____
ROOT
ATOM      1  N   UNL     1       3.801   6.671  -0.268  0.00  0.00    -0.321 N 
ATOM      2  C   UNL     1       3.404   7.658  -1.148  0.00  0.00    +0.131 A 
ATOM      3  C   UNL     1       3.841   7.634  -2.506  0.00  0.00    +0.051 A 
ATOM      4  C   UNL     1       4.671   6.709  -3.154  0.00  0.00    -0.019 A 
ATOM      5  C   UNL     1       4.968   6.874  -4.472  0.00  0.00    +0.080 A 
ATOM      6  S   UNL     1       4.087   8.366  -4.896  0.00  0.00    -0.064 S 
ATOM      7  C   UNL     1       3.367   8.700  -3.309  0.00  0.00    +0.114 A 
ATOM      8  N   UNL     1       2.580   9.635  -2.818  0.00  0.00    -0.228 NA
ATOM      9  C   UNL     1       2.211   9.601  -1.552  0.00  0.00    +0.224 A 
ATOM     10  N   UNL     1       2.609   8.634  -0.744  0.00  0.00    -0.220 NA
ATOM     11  C   UNL     1       5.232   5.535  -2.394  0.00  0.00    +0.046 C 
ATOM     12  H   UNL     1       4.288   5.898  -0.594  0.00  0.00    +0.148 HD
ENDROOT
BRANCH   5  13
ATOM     13  C   UNL     1       5.808   6.031  -5.333  0.00  0.00    +0.253 C 
ATOM     14  O   UNL     1       5.677   4.821  -5.313  0.00  0.00    -0.269 OA
ATOM     15  N   UNL     1       6.722   6.597  -6.145  0.00  0.00    -0.301 N 
ATOM     16  C   UNL     1       6.882   8.058  -6.199  0.00  0.00    +0.089 C 
ATOM     17  C   UNL     1       8.371   8.388  -6.005  0.00  0.00    -0.059 C 
ATOM     18  C   UNL     1       9.040   6.190  -6.782  0.00  0.00    -0.059 C 
ATOM     19  C   UNL     1       7.583   5.770  -7.005  0.00  0.00    +0.089 C 
ATOM     20  N   UNL     1       9.155   7.646  -7.016  0.00  0.00    +0.383 N 
ATOM     21  H   UNL     1       8.786   7.864  -7.949  0.00  0.00    -0.082 HD
BRANCH  20  22
ATOM     22  C   UNL     1      10.573   8.056  -6.954  0.00  0.00    -0.050 C 
BRANCH  22  23
ATOM     23  C   UNL     1      11.251   7.671  -8.270  0.00  0.00    +0.141 C 
BRANCH  23  24
ATOM     24  O   UNL     1      10.546   8.267  -9.361  0.00  0.00    -0.385 OA
ATOM     25  C   UNL     1      11.101   7.968 -10.644  0.00  0.00    +0.193 C 
ENDBRANCH  23  24
ENDBRANCH  22  23
ENDBRANCH  20  22
ENDBRANCH   5  13
BRANCH   1  26
ATOM     26  C   UNL     1       3.486   6.791   1.158  0.00  0.00    +0.108 C 
BRANCH  26  27
ATOM     27  C   UNL     1       3.447   5.419   1.780  0.00  0.00    +0.010 A 
ATOM     28  C   UNL     1       2.588   4.926   2.706  0.00  0.00    +0.013 A 
ATOM     29  C   UNL     1       2.741   3.620   3.134  0.00  0.00    +0.008 A 
ATOM     30  C   UNL     1       3.751   2.875   2.623  0.00  0.00    +0.045 A 
ATOM     31  S   UNL     1       4.520   4.021   1.490  0.00  0.00    -0.100 S 
ENDBRANCH  26  27
BRANCH  26  33
ATOM     32  C   UNL     1       4.517   9.062   1.302  0.00  0.00    +0.006 C 
ATOM     33  C   UNL     1       4.561   7.633   1.848  0.00  0.00    +0.024 C 
ENDBRANCH  26  33
ENDBRANCH   1  26
TORSDOF 7
