REMARK  Name = ZINC08238560
REMARK  8 active torsions:
REMARK  status: ('A' for Active; 'I' for Inactive)
REMARK    1  A    between atoms: C_1  and  C_2
REMARK    2  A    between atoms: C_2  and  C_3
REMARK    3  A    between atoms: C_2  and  C_4
REMARK    4  A    between atoms: C_4  and  C_6
REMARK    5  A    between atoms: C_4  and  N_17
REMARK    6  A    between atoms: N_8  and  N_9
REMARK    7  A    between atoms: C_10  and  C_12
REMARK    8  A    between atoms: C_18  and  C_20
REMARK                            x       y       z     vdW  Elec       q    Type
REMARK                         _______ _______ _______ _____ _____    ______ ____
ROOT
ATOM      1  C   UNL     1      -2.329   7.245  -0.668  0.00  0.00    +0.163 C 
ENDROOT
BRANCH   1   2
ATOM      2  C   UNL     1      -3.496   7.762  -1.470  0.00  0.00    +0.250 C 
ATOM      3  O   UNL     1      -4.324   6.989  -1.903  0.00  0.00    -0.272 OA
ATOM      4  N   UNL     1      -3.619   9.084  -1.706  0.00  0.00    -0.233 N 
ATOM      5  H   UNL     1      -2.998   9.709  -1.300  0.00  0.00    +0.173 HD
BRANCH   4   6
ATOM      6  N   UNL     1      -4.644   9.555  -2.537  0.00  0.00    -0.228 N 
ATOM      7  C   UNL     1      -4.767  10.876  -2.773  0.00  0.00    +0.295 C 
ATOM      8  O   UNL     1      -3.987  11.660  -2.264  0.00  0.00    -0.265 OA
ATOM      9  H   UNL     1      -5.265   8.930  -2.942  0.00  0.00    +0.173 HD
BRANCH   7  10
ATOM     10  C   UNL     1      -5.840  11.369  -3.642  0.00  0.00    +0.190 A 
ATOM     11  C   UNL     1      -6.076  12.675  -3.963  0.00  0.00    +0.054 A 
ATOM     12  C   UNL     1      -7.192  12.685  -4.815  0.00  0.00    +0.042 A 
ATOM     13  C   UNL     1      -7.582  11.401  -4.974  0.00  0.00    +0.196 A 
ATOM     14  O   UNL     1      -6.762  10.611  -4.271  0.00  0.00    -0.458 OA
ENDBRANCH   7  10
ENDBRANCH   4   6
ENDBRANCH   1   2
BRANCH   1  15
ATOM     15  N   UNL     1      -2.634   5.901  -0.173  0.00  0.00    -0.303 N 
ATOM     16  C   UNL     1      -2.023   5.435   0.934  0.00  0.00    +0.220 C 
ATOM     17  O   UNL     1      -1.221   6.130   1.521  0.00  0.00    -0.275 OA
ATOM     18  H   UNL     1      -3.276   5.345  -0.643  0.00  0.00    +0.149 HD
BRANCH  16  19
ATOM     19  C   UNL     1      -2.337   4.052   1.443  0.00  0.00    +0.048 C 
ATOM     20  C   UNL     1      -1.988   3.021   0.367  0.00  0.00    +0.019 C 
ATOM     21  C   UNL     1      -2.306   1.617   0.884  0.00  0.00    -0.009 C 
ATOM     22  C   UNL     1      -1.484   1.338   2.144  0.00  0.00    +0.007 C 
ATOM     23  C   UNL     1      -1.833   2.369   3.219  0.00  0.00    -0.009 C 
ATOM     24  C   UNL     1      -1.515   3.773   2.703  0.00  0.00    +0.019 C 
ATOM     25  C   UNL     1      -3.324   2.273   3.552  0.00  0.00    +0.007 C 
ATOM     26  C   UNL     1      -4.146   2.552   2.292  0.00  0.00    -0.009 C 
ATOM     27  C   UNL     1      -3.797   1.522   1.216  0.00  0.00    +0.007 C 
ATOM     28  C   UNL     1      -3.828   3.957   1.776  0.00  0.00    +0.019 C 
ENDBRANCH  16  19
ENDBRANCH   1  15
BRANCH   1  30
ATOM     29  C   UNL     1       0.125   6.778  -0.713  0.00  0.00    +0.009 C 
ATOM     30  C   UNL     1      -1.084   7.192  -1.555  0.00  0.00    +0.012 C 
ATOM     31  C   UNL     1      -1.299   6.172  -2.675  0.00  0.00    +0.009 C 
ENDBRANCH   1  30
TORSDOF 6
