REMARK  Name = ZINC20572232
REMARK  5 active torsions:
REMARK  status: ('A' for Active; 'I' for Inactive)
REMARK    1  A    between atoms: C_16  and  C_19
REMARK    2  A    between atoms: C_19  and  C_20
REMARK    3  A    between atoms: C_20  and  C_21
REMARK    4  A    between atoms: N_26  and  C_29
REMARK    5  A    between atoms: C_29  and  C_30
REMARK                            x       y       z     vdW  Elec       q    Type
REMARK                         _______ _______ _______ _____ _____    ______ ____
ROOT
ATOM      1  C   UNL     1      -0.017   1.378   0.010  0.00  0.00    +0.002 A 
ATOM      2  C   UNL     1       1.174   2.083   0.002  0.00  0.00    +0.008 A 
ATOM      3  C   UNL     1       2.375   1.410  -0.015  0.00  0.00    +0.005 A 
ATOM      4  C   UNL     1       2.407   0.018  -0.024  0.00  0.00    +0.057 A 
ATOM      5  C   UNL     1       1.203  -0.684  -0.014  0.00  0.00    +0.062 A 
ATOM      6  C   UNL     1       0.002  -0.004   0.002  0.00  0.00    +0.022 A 
ATOM      7 CL   UNL     1       1.215  -2.420  -0.024  0.00  0.00    -0.082 Cl
ATOM      8  N   UNL     1       3.728  -0.434  -0.040  0.00  0.00    -0.282 N 
ATOM      9  C   UNL     1       4.613   0.581  -0.046  0.00  0.00    +0.243 C 
ATOM     10  O   UNL     1       5.822   0.489  -0.061  0.00  0.00    -0.273 OA
ATOM     11  C   UNL     1       3.810   1.853  -0.030  0.00  0.00    +0.136 C 
ATOM     12  C   UNL     1       4.149   2.714   1.193  0.00  0.00    +0.122 C 
ATOM     13  C   UNL     1       5.165   3.763   0.663  0.00  0.00    +0.107 C 
ATOM     14  C   UNL     1       5.357   3.413  -0.827  0.00  0.00    +0.068 C 
ATOM     15  N   UNL     1       4.106   2.691  -1.208  0.00  0.00    -0.295 NA
ATOM     16  C   UNL     1       4.418   5.070   0.793  0.00  0.00    +0.227 C 
ATOM     17  O   UNL     1       4.849   6.158   0.478  0.00  0.00    -0.275 OA
ATOM     18  N   UNL     1       3.205   4.839   1.308  0.00  0.00    -0.239 N 
ATOM     19  C   UNL     1       2.944   3.540   1.583  0.00  0.00    +0.228 C 
ATOM     20  O   UNL     1       1.918   3.103   2.059  0.00  0.00    -0.275 OA
ATOM     21  H   UNL     1       3.980  -1.371  -0.046  0.00  0.00    +0.155 HD
ATOM     22  H   UNL     1       4.257   2.122  -2.027  0.00  0.00    +0.123 HD
ENDROOT
BRANCH  14  23
ATOM     23  C   UNL     1       5.493   4.689  -1.661  0.00  0.00    +0.028 C 
BRANCH  23  24
ATOM     24  C   UNL     1       5.806   4.319  -3.112  0.00  0.00    +0.097 C 
BRANCH  24  25
ATOM     25  C   UNL     1       5.940   5.576  -3.933  0.00  0.00    +0.211 C 
ATOM     26  O   UNL     1       5.800   6.660  -3.408  0.00  0.00    -0.276 OA
ATOM     27  N   UNL     1       6.216   5.495  -5.249  0.00  0.00    -0.329 N 
ATOM     28  H   UNL     1       6.329   4.627  -5.669  0.00  0.00    +0.145 HD
ATOM     29  H   UNL     1       6.303   6.303  -5.778  0.00  0.00    +0.145 HD
ENDBRANCH  24  25
ENDBRANCH  23  24
ENDBRANCH  14  23
BRANCH  18  30
ATOM     30  C   UNL     1       2.236   5.908   1.563  0.00  0.00    +0.148 C 
BRANCH  30  31
ATOM     31  C   UNL     1       1.364   6.113   0.323  0.00  0.00    +0.136 C 
ATOM     32  C   UNL     1       0.421   7.316   0.538  0.00  0.00    +0.035 C 
ATOM     33  C   UNL     1      -0.896   6.825  -0.121  0.00  0.00    +0.031 C 
ATOM     34  C   UNL     1      -0.841   5.311   0.205  0.00  0.00    +0.160 C 
ATOM     35  O   UNL     1       0.549   4.955   0.105  0.00  0.00    -0.375 OA
ENDBRANCH  30  31
ENDBRANCH  18  30
TORSDOF 5
