REMARK  Name = ZINC13003759
REMARK  9 active torsions:
REMARK  status: ('A' for Active; 'I' for Inactive)
REMARK    1  A    between atoms: C_1  and  C_2
REMARK    2  A    between atoms: C_3  and  C_20
REMARK    3  A    between atoms: C_4  and  C_19
REMARK    4  A    between atoms: C_7  and  C_8
REMARK    5  A    between atoms: N_10  and  C_11
REMARK    6  A    between atoms: C_12  and  C_18
REMARK    7  A    between atoms: N_14  and  C_17
REMARK    8  A    between atoms: C_15  and  C_16
REMARK    9  A    between atoms: C_20  and  C_22
REMARK                            x       y       z     vdW  Elec       q    Type
REMARK                         _______ _______ _______ _____ _____    ______ ____
ROOT
ATOM      1  C   UNL     1       2.472   1.232   0.294  0.00  0.00    +0.265 C 
ATOM      2  O   UNL     1       3.356   1.948   0.726  0.00  0.00    -0.268 OA
ATOM      3  N   UNL     1       2.765  -0.007  -0.149  0.00  0.00    -0.277 N 
ATOM      4  H   UNL     1       2.052  -0.605  -0.423  0.00  0.00    +0.155 HD
ENDROOT
BRANCH   1  11
ATOM      5  C   UNL     1       1.513   4.040   1.250  0.00  0.00    +0.047 C 
ATOM      6  C   UNL     1       0.659   2.942   0.671  0.00  0.00    -0.010 A 
ATOM      7  C   UNL     1      -0.739   2.987   0.456  0.00  0.00    +0.041 A 
ATOM      8  C   UNL     1      -1.103   1.768  -0.096  0.00  0.00    +0.024 A 
ATOM      9  N   UNL     1      -0.003   1.010  -0.207  0.00  0.00    -0.354 N 
ATOM     10  H   UNL     1       0.023   0.108  -0.562  0.00  0.00    +0.166 HD
ATOM     11  C   UNL     1       1.086   1.717   0.256  0.00  0.00    +0.106 A 
ATOM     12  C   UNL     1      -2.498   1.364  -0.498  0.00  0.00    +0.064 C 
BRANCH   7  13
ATOM     13  C   UNL     1      -1.632   4.112   0.753  0.00  0.00    +0.162 C 
ATOM     14  O   UNL     1      -1.786   4.996  -0.064  0.00  0.00    -0.292 OA
ATOM     15  C   UNL     1      -2.358   4.169   2.072  0.00  0.00    +0.091 C 
ENDBRANCH   7  13
ENDBRANCH   1  11
BRANCH   3  16
ATOM     16  C   UNL     1       4.104  -0.432  -0.214  0.00  0.00    +0.077 A 
ATOM     17  C   UNL     1       5.220   0.385  -0.447  0.00  0.00    +0.081 A 
ATOM     18  N   UNL     1       6.291  -0.367  -0.435  0.00  0.00    -0.175 NA
ATOM     19  N   UNL     1       5.898  -1.690  -0.195  0.00  0.00    -0.270 N 
ATOM     20  C   UNL     1       4.547  -1.706  -0.057  0.00  0.00    +0.057 A 
ATOM     21  C   UNL     1       3.695  -2.918   0.218  0.00  0.00    +0.067 C 
ATOM     22  C   UNL     1       6.788  -2.850  -0.104  0.00  0.00    +0.172 C 
ATOM     23  C   UNL     1       5.191   1.875  -0.672  0.00  0.00    +0.069 C 
ENDBRANCH   3  16
TORSDOF 3
