REMARK  Name = ZINC63808564
REMARK  7 active torsions:
REMARK  status: ('A' for Active; 'I' for Inactive)
REMARK    1  A    between atoms: C_1  and  O_2
REMARK    2  A    between atoms: O_2  and  C_3
REMARK    3  A    between atoms: C_9  and  C_12
REMARK    4  A    between atoms: C_12  and  C_13
REMARK    5  A    between atoms: C_13  and  N_14
REMARK    6  A    between atoms: C_15  and  C_33
REMARK    7  A    between atoms: C_19  and  C_27
REMARK                            x       y       z     vdW  Elec       q    Type
REMARK                         _______ _______ _______ _____ _____    ______ ____
ROOT
ATOM      1  N   UNL     1      -0.759  -6.798   1.434  0.00  0.00    -0.292 N 
ATOM      2  C   UNL     1      -1.169  -8.235   1.322  0.00  0.00    +0.116 C 
ATOM      3  C   UNL     1      -0.017  -8.914   1.960  0.00  0.00    +0.077 C 
ATOM      4  C   UNL     1       0.654 -10.232   1.826  0.00  0.00    +0.136 C 
ATOM      5  N   UNL     1       2.041  -9.842   2.240  0.00  0.00    -0.305 N 
ATOM      6  N   UNL     1       2.271  -8.634   1.960  0.00  0.00    -0.203 NA
ATOM      7  C   UNL     1       1.136  -8.090   1.225  0.00  0.00    +0.218 C 
ATOM      8  C   UNL     1       0.608  -6.717   1.521  0.00  0.00    +0.243 C 
ATOM      9  O   UNL     1       1.262  -5.731   1.787  0.00  0.00    -0.273 OA
ATOM     10  H   UNL     1       2.676 -10.439   2.666  0.00  0.00    +0.183 HD
ENDROOT
BRANCH   4  11
ATOM     11  C   UNL     1       0.062 -11.249   2.768  0.00  0.00    -0.023 A 
ATOM     12  C   UNL     1       0.434 -11.255   4.100  0.00  0.00    +0.006 A 
ATOM     13  C   UNL     1      -0.108 -12.188   4.964  0.00  0.00    +0.000 A 
ATOM     14  C   UNL     1      -1.023 -13.113   4.497  0.00  0.00    +0.000 A 
ATOM     15  C   UNL     1      -1.395 -13.106   3.166  0.00  0.00    +0.000 A 
ATOM     16  C   UNL     1      -0.856 -12.171   2.302  0.00  0.00    +0.006 A 
ENDBRANCH   4  11
BRANCH   2  17
ATOM     17  C   UNL     1      -2.443  -8.496   2.085  0.00  0.00    -0.009 A 
ATOM     18  C   UNL     1      -3.401  -9.360   1.576  0.00  0.00    +0.008 A 
ATOM     19  C   UNL     1      -4.557  -9.570   2.312  0.00  0.00    +0.020 A 
ATOM     20  C   UNL     1      -4.715  -8.916   3.520  0.00  0.00    +0.111 A 
ATOM     21  N   UNL     1      -3.782  -8.101   3.972  0.00  0.00    -0.263 NA
ATOM     22  C   UNL     1      -2.667  -7.882   3.302  0.00  0.00    +0.116 A 
ENDBRANCH   2  17
BRANCH   1  23
ATOM     23  C   UNL     1      -1.676  -5.655   1.443  0.00  0.00    +0.113 C 
BRANCH  23  24
ATOM     24  C   UNL     1      -1.908  -5.176   0.009  0.00  0.00    +0.052 C 
BRANCH  24  31
ATOM     25  C   UNL     1      -1.200  -0.637   0.010  0.00  0.00    +0.121 A 
ATOM     26  C   UNL     1      -2.375   0.135   0.020  0.00  0.00    +0.047 A 
ATOM     27  C   UNL     1      -3.607  -0.415   0.028  0.00  0.00    +0.029 A 
ATOM     28  C   UNL     1      -3.753  -1.875   0.027  0.00  0.00    +0.043 A 
ATOM     29  N   UNL     1      -4.809  -2.650   0.034  0.00  0.00    -0.380 N 
ATOM     30  C   UNL     1      -4.362  -4.047   0.029  0.00  0.00    +0.144 C 
ATOM     31  C   UNL     1      -2.851  -4.000   0.018  0.00  0.00    -0.040 C 
ATOM     32  C   UNL     1      -2.516  -2.690   0.016  0.00  0.00    +0.002 A 
ATOM     33  C   UNL     1      -1.226  -1.992   0.003  0.00  0.00    +0.055 A 
ATOM     34  H   UNL     1      -5.731  -2.350   0.042  0.00  0.00    +0.160 HD
BRANCH  25  36
ATOM     35  C   UNL     1      -0.017   1.425   0.010  0.00  0.00    +0.277 C 
ATOM     36  O   UNL     1       0.002  -0.004   0.002  0.00  0.00    -0.495 OA
ENDBRANCH  25  36
ENDBRANCH  24  31
ENDBRANCH  23  24
ENDBRANCH   1  23
TORSDOF 6
