REMARK  Name = ZINC04927654
REMARK  6 active torsions:
REMARK  status: ('A' for Active; 'I' for Inactive)
REMARK    1  A    between atoms: C_1  and  C_2
REMARK    2  A    between atoms: C_7  and  C_8
REMARK    3  A    between atoms: C_11  and  S_13
REMARK    4  A    between atoms: S_13  and  C_14
REMARK    5  A    between atoms: C_14  and  C_15
REMARK    6  A    between atoms: N_17  and  C_18
REMARK                            x       y       z     vdW  Elec       q    Type
REMARK                         _______ _______ _______ _____ _____    ______ ____
ROOT
ATOM      1  S   UNL     1       0.068   0.355   6.357  0.00  0.00    -0.056 S 
ENDROOT
BRANCH   1   5
ATOM      2  C   UNL     1       0.049   0.018   2.492  0.00  0.00    +0.249 A 
ATOM      3  N   UNL     1       0.033   1.319   2.648  0.00  0.00    -0.106 NA
ATOM      4  N   UNL     1       0.037   1.599   3.904  0.00  0.00    -0.101 NA
ATOM      5  C   UNL     1       0.056   0.486   4.600  0.00  0.00    +0.278 A 
ATOM      6  O   UNL     1       0.058  -0.537   3.724  0.00  0.00    -0.411 OA
BRANCH   2  13
ATOM      7  C   UNL     1       0.026   1.504   0.010  0.00  0.00    +0.044 C 
ATOM      8  C   UNL     1       0.039  -0.003   0.001  0.00  0.00    -0.038 A 
ATOM      9  C   UNL     1       0.047  -0.687  -1.196  0.00  0.00    +0.004 A 
ATOM     10  C   UNL     1       0.059  -2.071  -1.206  0.00  0.00    +0.000 A 
ATOM     11  C   UNL     1       0.064  -2.777  -0.016  0.00  0.00    +0.001 A 
ATOM     12  C   UNL     1       0.057  -2.105   1.188  0.00  0.00    +0.013 A 
ATOM     13  C   UNL     1       0.050  -0.709   1.205  0.00  0.00    +0.041 A 
ENDBRANCH   2  13
ENDBRANCH   1   5
BRANCH   1  14
ATOM     14  C   UNL     1       0.048   2.077   6.926  0.00  0.00    +0.175 C 
BRANCH  14  15
ATOM     15  C   UNL     1       0.057   2.109   8.432  0.00  0.00    +0.228 C 
ATOM     16  O   UNL     1       0.075   1.071   9.060  0.00  0.00    -0.275 OA
ATOM     17  N   UNL     1       0.045   3.290   9.082  0.00  0.00    -0.285 N 
ATOM     18  H   UNL     1       0.098   4.119   8.581  0.00  0.00    +0.155 HD
BRANCH  17  19
ATOM     19  C   UNL     1      -0.044   3.320  10.479  0.00  0.00    +0.035 A 
ATOM     20  C   UNL     1      -0.757   4.332  11.108  0.00  0.00    +0.026 A 
ATOM     21  C   UNL     1      -0.845   4.360  12.486  0.00  0.00    +0.041 A 
ATOM     22  C   UNL     1      -0.223   3.380  13.241  0.00  0.00    +0.142 A 
ATOM     23  C   UNL     1       0.489   2.369  12.615  0.00  0.00    +0.078 A 
ATOM     24  C   UNL     1       0.574   2.334  11.236  0.00  0.00    +0.046 A 
ATOM     25 CL   UNL     1       1.268   1.141  13.564  0.00  0.00    -0.081 Cl
ATOM     26  F   UNL     1      -0.309   3.410  14.589  0.00  0.00    -0.204 F 
ENDBRANCH  17  19
ENDBRANCH  14  15
ENDBRANCH   1  14
TORSDOF 5
