REMARK  Name = ZINC23444484
REMARK  7 active torsions:
REMARK  status: ('A' for Active; 'I' for Inactive)
REMARK    1  A    between atoms: C_1  and  C_2
REMARK    2  A    between atoms: C_2  and  C_21
REMARK    3  A    between atoms: C_3  and  C_4
REMARK    4  A    between atoms: C_6  and  C_11
REMARK    5  A    between atoms: C_8  and  C_9
REMARK    6  A    between atoms: C_8  and  C_10
REMARK    7  A    between atoms: N_13  and  C_14
REMARK                            x       y       z     vdW  Elec       q    Type
REMARK                         _______ _______ _______ _____ _____    ______ ____
ROOT
ATOM      1  C   UNL     1      -1.185   1.618   0.084  0.00  0.00    +0.223 C 
ATOM      2  O   UNL     1      -1.040   2.591  -0.626  0.00  0.00    -0.275 OA
ATOM      3  N   UNL     1      -0.187   1.225   0.900  0.00  0.00    -0.269 N 
ATOM      4  H   UNL     1      -0.320   0.346   1.547  0.00  0.00    +0.156 HD
ENDROOT
BRANCH   3   5
ATOM      5  C   UNL     1       1.016   1.933   0.923  0.00  0.00    +0.150 A 
ATOM      6  C   UNL     1       2.045   1.521   1.770  0.00  0.00    +0.217 A 
ATOM      7  C   UNL     1       3.234   2.237   1.782  0.00  0.00    +0.056 A 
ATOM      8  C   UNL     1       3.346   3.345   0.954  0.00  0.00    +0.021 A 
ATOM      9  C   UNL     1       2.284   3.697   0.146  0.00  0.00    +0.084 A 
ATOM     10  N   UNL     1       1.166   2.996   0.151  0.00  0.00    -0.346 N 
ATOM     11  O   UNL     1       1.885   0.434   2.572  0.00  0.00    -0.284 OA
ATOM     12  H   UNL     1       0.347   3.316  -0.510  0.00  0.00    +0.167 HD
ENDBRANCH   3   5
BRANCH   1  14
ATOM     13  C   UNL     1      -3.311   0.814   1.338  0.00  0.00    +0.030 C 
ATOM     14  C   UNL     1      -2.481   0.850   0.054  0.00  0.00    +0.089 C 
ATOM     15  C   UNL     1      -3.780   1.652   0.147  0.00  0.00    -0.016 C 
ATOM     16  C   UNL     1      -3.665   3.173   0.264  0.00  0.00    +0.012 C 
ATOM     17  C   UNL     1      -4.985   1.140  -0.646  0.00  0.00    +0.012 C 
BRANCH  13  20
ATOM     18  C   UNL     1      -4.556   0.524   3.849  0.00  0.00    +0.038 C 
ATOM     19  C   UNL     1      -3.349   1.416   3.704  0.00  0.00    -0.079 C 
ATOM     20  C   UNL     1      -2.770   1.550   2.537  0.00  0.00    -0.023 C 
ATOM     21  C   UNL     1      -2.808   2.152   4.903  0.00  0.00    +0.038 C 
ENDBRANCH  13  20
ENDBRANCH   1  14
TORSDOF 3
