REMARK  Name = ZINC60411248
REMARK  8 active torsions:
REMARK  status: ('A' for Active; 'I' for Inactive)
REMARK    1  A    between atoms: C_1  and  N_2
REMARK    2  A    between atoms: N_2  and  C_3
REMARK    3  A    between atoms: N_2  and  S_4
REMARK    4  A    between atoms: S_4  and  C_7
REMARK    5  A    between atoms: C_9  and  C_14
REMARK    6  A    between atoms: N_16  and  N_17
REMARK    7  A    between atoms: N_20  and  C_21
REMARK    8  A    between atoms: C_21  and  C_22
REMARK                            x       y       z     vdW  Elec       q    Type
REMARK                         _______ _______ _______ _____ _____    ______ ____
ROOT
ATOM      1  C   UNL     1      -2.348  -3.958  -4.069  0.00  0.00    +0.260 C 
ATOM      2  O   UNL     1      -2.068  -4.910  -3.366  0.00  0.00    -0.269 OA
ATOM      3  N   UNL     1      -2.703  -4.151  -5.355  0.00  0.00    -0.229 N 
ATOM      4  H   UNL     1      -2.926  -3.392  -5.915  0.00  0.00    +0.173 HD
ENDROOT
BRANCH   1   7
ATOM      5  C   UNL     1      -1.884  -1.109  -1.669  0.00  0.00    +0.141 A 
ATOM      6  C   UNL     1      -1.930  -2.388  -2.182  0.00  0.00    +0.044 A 
ATOM      7  C   UNL     1      -2.298  -2.591  -3.514  0.00  0.00    +0.040 A 
ATOM      8  C   UNL     1      -2.618  -1.495  -4.319  0.00  0.00    +0.016 A 
ATOM      9  C   UNL     1      -2.569  -0.221  -3.796  0.00  0.00    +0.041 A 
ATOM     10  C   UNL     1      -2.208  -0.026  -2.471  0.00  0.00    +0.150 A 
ATOM     11  F   UNL     1      -2.167   1.225  -1.962  0.00  0.00    -0.203 F 
BRANCH   5  12
ATOM     12  S   UNL     1      -1.421  -0.852   0.011  0.00  0.00    +0.063 S 
ATOM     13  O   UNL     1      -1.127  -2.132   0.552  0.00  0.00    -0.153 OA
ATOM     14  O   UNL     1      -2.401   0.008   0.576  0.00  0.00    -0.153 OA
BRANCH  12  16
ATOM     15  C   UNL     1      -0.018   1.461   0.010  0.00  0.00    +0.131 C 
ATOM     16  N   UNL     1       0.002  -0.004   0.002  0.00  0.00    -0.183 NA
ATOM     17  C   UNL     1       1.281  -0.719  -0.014  0.00  0.00    +0.131 C 
ENDBRANCH  12  16
ENDBRANCH   5  12
ENDBRANCH   1   7
BRANCH   3  18
ATOM     18  N   UNL     1      -2.751  -5.449  -5.881  0.00  0.00    -0.218 N 
ATOM     19  C   UNL     1      -3.106  -5.642  -7.167  0.00  0.00    +0.316 C 
ATOM     20  O   UNL     1      -3.148  -6.768  -7.624  0.00  0.00    -0.251 OA
ATOM     21  N   UNL     1      -3.416  -4.587  -7.946  0.00  0.00    -0.290 N 
ATOM     22  H   UNL     1      -2.528  -6.208  -5.321  0.00  0.00    +0.174 HD
ATOM     23  H   UNL     1      -3.384  -3.688  -7.581  0.00  0.00    +0.151 HD
BRANCH  21  24
ATOM     24  C   UNL     1      -3.803  -4.796  -9.343  0.00  0.00    +0.219 C 
BRANCH  24  25
ATOM     25  C   UNL     1      -4.101  -3.446  -9.998  0.00  0.00    +0.405 C 
ATOM     26  F   UNL     1      -2.958  -2.640  -9.946  0.00  0.00    -0.169 F 
ATOM     27  F   UNL     1      -4.470  -3.646 -11.333  0.00  0.00    -0.169 F 
ATOM     28  F   UNL     1      -5.146  -2.817  -9.315  0.00  0.00    -0.169 F 
ENDBRANCH  24  25
ENDBRANCH  21  24
ENDBRANCH   3  18
TORSDOF 6
