REMARK  Name = ZINC09690680
REMARK  12 active torsions:
REMARK  status: ('A' for Active; 'I' for Inactive)
REMARK    1  A    between atoms: C_2  and  C_3
REMARK    2  A    between atoms: C_3  and  N_4
REMARK    3  A    between atoms: N_4  and  S_5
REMARK    4  A    between atoms: S_5  and  C_8
REMARK    5  A    between atoms: C_11  and  C_14
REMARK    6  A    between atoms: C_14  and  O_16
REMARK    7  A    between atoms: O_16  and  C_17
REMARK    8  A    between atoms: C_17  and  C_18
REMARK    9  A    between atoms: N_20  and  C_21
REMARK   10  A    between atoms: C_21  and  C_22
REMARK   11  A    between atoms: C_28  and  C_29
REMARK   12  A    between atoms: C_28  and  N_63
REMARK                            x       y       z     vdW  Elec       q    Type
REMARK                         _______ _______ _______ _____ _____    ______ ____
ROOT
ATOM      1  C   UNL     1       3.633   6.284   0.000  0.00  0.00    +0.251 C 
ATOM      2  O   UNL     1       4.601   5.553  -0.013  0.00  0.00    -0.272 OA
ATOM      3  N   UNL     1       3.799   7.622   0.005  0.00  0.00    -0.310 N 
ATOM      4  H   UNL     1       3.025   8.206   0.016  0.00  0.00    +0.149 HD
ENDROOT
BRANCH   1   5
ATOM      5  C   UNL     1       2.245   5.696   0.010  0.00  0.00    +0.328 C 
BRANCH   5   6
ATOM      6  O   UNL     1       2.334   4.247   0.002  0.00  0.00    -0.452 OA
BRANCH   6   7
ATOM      7  C   UNL     1       1.173   3.564   0.009  0.00  0.00    +0.340 C 
ATOM      8  O   UNL     1       0.116   4.162   0.022  0.00  0.00    -0.245 OA
BRANCH   7  12
ATOM      9  C   UNL     1       1.208  -0.683  -0.013  0.00  0.00    +0.105 A 
ATOM     10  C   UNL     1       0.002  -0.004   0.002  0.00  0.00    +0.029 A 
ATOM     11  C   UNL     1      -0.017   1.375   0.010  0.00  0.00    +0.017 A 
ATOM     12  C   UNL     1       1.185   2.087   0.002  0.00  0.00    +0.059 A 
ATOM     13  C   UNL     1       2.398   1.395  -0.012  0.00  0.00    +0.017 A 
ATOM     14  C   UNL     1       2.402   0.016  -0.020  0.00  0.00    +0.029 A 
BRANCH   9  15
ATOM     15  S   UNL     1       1.222  -2.445  -0.023  0.00  0.00    +0.059 S 
ATOM     16  O   UNL     1       2.476  -2.843   0.514  0.00  0.00    -0.153 OA
ATOM     17  O   UNL     1      -0.014  -2.864   0.538  0.00  0.00    -0.153 OA
BRANCH  15  18
ATOM     18  N   UNL     1       1.211  -2.926  -1.607  0.00  0.00    -0.186 NA
ATOM     19  H   UNL     1       0.451  -3.413  -1.961  0.00  0.00    +0.148 HD
BRANCH  18  20
ATOM     20  C   UNL     1       2.350  -2.616  -2.475  0.00  0.00    +0.132 C 
BRANCH  20  22
ATOM     21  C   UNL     1       2.290  -2.881  -4.901  0.00  0.00    +0.005 C 
ATOM     22  C   UNL     1       2.273  -3.455  -3.724  0.00  0.00    -0.018 C 
ENDBRANCH  20  22
ENDBRANCH  18  20
ENDBRANCH  15  18
ENDBRANCH   9  15
ENDBRANCH   7  12
ENDBRANCH   6   7
ENDBRANCH   5   6
ENDBRANCH   1   5
BRANCH   3  23
ATOM     23  C   UNL     1       5.148   8.193  -0.004  0.00  0.00    +0.134 C 
BRANCH  23  24
ATOM     24  C   UNL     1       5.055   9.720   0.004  0.00  0.00    +0.119 C 
ATOM     25  C   UNL     1       6.458  10.318  -0.126  0.00  0.00    -0.045 C 
ATOM     26  C   UNL     1       5.764  12.194   1.234  0.00  0.00    -0.050 C 
ATOM     27  C   UNL     1       4.368  11.578   1.351  0.00  0.00    +0.142 C 
ATOM     28  O   UNL     1       4.469  10.156   1.234  0.00  0.00    -0.379 OA
ATOM     29  N   UNL     1       6.354  11.791  -0.059  0.00  0.00    +0.386 N 
ATOM     30  H   UNL     1       5.746  12.118  -0.820  0.00  0.00    -0.081 HD
BRANCH  29  31
ATOM     31  C   UNL     1       7.692  12.400  -0.218  0.00  0.00    -0.043 C 
BRANCH  31  32
ATOM     32  C   UNL     1       7.534  13.892  -0.361  0.00  0.00    -0.064 A 
ATOM     33  C   UNL     1       7.366  14.452  -1.614  0.00  0.00    +0.002 A 
ATOM     34  C   UNL     1       7.216  15.820  -1.745  0.00  0.00    +0.000 A 
ATOM     35  C   UNL     1       7.244  16.629  -0.624  0.00  0.00    +0.000 A 
ATOM     36  C   UNL     1       7.418  16.070   0.628  0.00  0.00    +0.000 A 
ATOM     37  C   UNL     1       7.562  14.701   0.759  0.00  0.00    +0.002 A 
ENDBRANCH  31  32
ENDBRANCH  29  31
ENDBRANCH  23  24
ENDBRANCH   3  23
TORSDOF 12
