REMARK  Name = ZINC08705840
REMARK  7 active torsions:
REMARK  status: ('A' for Active; 'I' for Inactive)
REMARK    1  A    between atoms: N_9  and  C_12
REMARK    2  A    between atoms: C_12  and  O_13
REMARK    3  A    between atoms: O_13  and  C_14
REMARK    4  A    between atoms: C_14  and  C_16
REMARK    5  A    between atoms: C_16  and  C_17
REMARK    6  A    between atoms: C_17  and  C_18
REMARK    7  A    between atoms: C_18  and  N_19
REMARK                            x       y       z     vdW  Elec       q    Type
REMARK                         _______ _______ _______ _____ _____    ______ ____
ROOT
ATOM      1  C   UNL     1      -7.319   4.677   0.093  0.00  0.00    +0.122 C 
ENDROOT
BRANCH   1   2
ATOM      2  C   UNL     1      -8.607   3.895   0.101  0.00  0.00    +0.309 C 
ATOM      3  O   UNL     1      -8.580   2.687   0.094  0.00  0.00    -0.251 OA
BRANCH   2   4
ATOM      4  O   UNL     1      -9.784   4.540   0.115  0.00  0.00    -0.445 OA
BRANCH   4   5
ATOM      5  C   UNL     1     -10.984   3.723   0.122  0.00  0.00    +0.352 C 
BRANCH   5  14
ATOM      6  C   UNL     1     -12.557   2.196   5.797  0.00  0.00    +0.001 A 
ATOM      7  C   UNL     1     -11.528   1.282   5.668  0.00  0.00    +0.001 A 
ATOM      8  C   UNL     1     -10.795   1.210   4.494  0.00  0.00    +0.014 A 
ATOM      9  C   UNL     1     -11.098   2.060   3.442  0.00  0.00    +0.049 A 
ATOM     10  C   UNL     1     -12.147   2.992   3.574  0.00  0.00    +0.049 A 
ATOM     11  C   UNL     1     -12.871   3.053   4.754  0.00  0.00    +0.014 A 
ATOM     12  C   UNL     1     -12.199   3.726   2.292  0.00  0.00    +0.256 C 
ATOM     13  O   UNL     1     -12.978   4.616   2.016  0.00  0.00    -0.269 OA
ATOM     14  N   UNL     1     -11.240   3.243   1.482  0.00  0.00    -0.199 N 
ATOM     15  C   UNL     1     -10.551   2.256   2.083  0.00  0.00    +0.256 C 
ATOM     16  O   UNL     1      -9.631   1.633   1.592  0.00  0.00    -0.269 OA
ENDBRANCH   5  14
ENDBRANCH   4   5
ENDBRANCH   2   4
ENDBRANCH   1   2
BRANCH   1  17
ATOM     17  C   UNL     1      -6.134   3.709   0.077  0.00  0.00    +0.030 C 
BRANCH  17  18
ATOM     18  C   UNL     1      -4.826   4.503   0.070  0.00  0.00    +0.103 C 
BRANCH  18  19
ATOM     19  N   UNL     1      -3.692   3.576   0.054  0.00  0.00    -0.327 N 
ATOM     20  C   UNL     1      -2.404   4.064   0.045  0.00  0.00    +0.150 C 
ATOM     21  N   UNL     1      -2.187   5.340   0.050  0.00  0.00    -0.113 NA
ATOM     22  S   UNL     1      -0.523   5.522   0.035  0.00  0.00    +0.101 S 
ATOM     23  O   UNL     1      -0.137   6.074   1.286  0.00  0.00    -0.146 OA
ATOM     24  O   UNL     1      -0.160   6.087  -1.217  0.00  0.00    -0.146 OA
ATOM     25  C   UNL     1      -0.032   3.819   0.022  0.00  0.00    +0.123 A 
ATOM     26  C   UNL     1      -1.259   3.140   0.030  0.00  0.00    +0.043 A 
ATOM     27  C   UNL     1      -1.220   1.738   0.017  0.00  0.00    +0.013 A 
ATOM     28  C   UNL     1      -0.013   1.076   0.008  0.00  0.00    +0.001 A 
ATOM     29  C   UNL     1       1.182   1.773   0.000  0.00  0.00    +0.002 A 
ATOM     30  C   UNL     1       1.163   3.161   0.007  0.00  0.00    +0.030 A 
ATOM     31  H   UNL     1      -3.848   2.619   0.051  0.00  0.00    +0.148 HD
ENDBRANCH  18  19
ENDBRANCH  17  18
ENDBRANCH   1  17
TORSDOF 7
