REMARK  Name = ZINC09951016
REMARK  5 active torsions:
REMARK  status: ('A' for Active; 'I' for Inactive)
REMARK    1  A    between atoms: C_1  and  C_2
REMARK    2  A    between atoms: C_2  and  C_4
REMARK    3  A    between atoms: C_2  and  N_60
REMARK    4  A    between atoms: N_19  and  C_22
REMARK    5  A    between atoms: N_25  and  C_30
REMARK                            x       y       z     vdW  Elec       q    Type
REMARK                         _______ _______ _______ _____ _____    ______ ____
ROOT
ATOM      1  C   UNL     1       0.181   3.923  -0.560  0.00  0.00    -0.059 C 
ATOM      2  C   UNL     1      -0.064   5.427  -0.412  0.00  0.00    +0.086 C 
ATOM      3  N   UNL     1       1.167   6.157  -0.745  0.00  0.00    -0.331 N 
ATOM      4  C   UNL     1       2.270   5.754   0.138  0.00  0.00    +0.086 C 
ATOM      5  C   UNL     1       2.516   4.250  -0.010  0.00  0.00    -0.059 C 
ATOM      6  N   UNL     1       1.277   3.528   0.349  0.00  0.00    +0.389 N 
ATOM      7  H   UNL     1       1.016   3.771   1.312  0.00  0.00    -0.081 HD
ENDROOT
BRANCH   3   8
ATOM      8  C   UNL     1       0.963   7.526  -0.691  0.00  0.00    +0.074 A 
ATOM      9  C   UNL     1       0.670   8.154   0.537  0.00  0.00    +0.158 A 
ATOM     10  N   UNL     1       0.483   9.443   0.591  0.00  0.00    -0.170 NA
ATOM     11  N   UNL     1       0.556  10.231  -0.562  0.00  0.00    -0.195 N 
ATOM     12  C   UNL     1       0.828   9.672  -1.758  0.00  0.00    +0.292 A 
ATOM     13  O   UNL     1       0.889  10.366  -2.761  0.00  0.00    -0.264 OA
ATOM     14  C   UNL     1       1.039   8.288  -1.843  0.00  0.00    +0.129 A 
ATOM     15 CL   UNL     1       1.390   7.544  -3.371  0.00  0.00    -0.076 Cl
BRANCH  11  16
ATOM     16  C   UNL     1       0.345  11.611  -0.474  0.00  0.00    +0.069 A 
ATOM     17  C   UNL     1       1.236  12.492  -1.073  0.00  0.00    +0.028 A 
ATOM     18  C   UNL     1       1.022  13.853  -0.989  0.00  0.00    +0.002 A 
ATOM     19  C   UNL     1      -0.072  14.341  -0.299  0.00  0.00    +0.000 A 
ATOM     20  C   UNL     1      -0.959  13.468   0.304  0.00  0.00    +0.002 A 
ATOM     21  C   UNL     1      -0.754  12.105   0.218  0.00  0.00    +0.028 A 
ENDBRANCH  11  16
ENDBRANCH   3   8
BRANCH   6  23
ATOM     22  C   UNL     1       1.817   1.656  -1.173  0.00  0.00    -0.004 C 
ATOM     23  C   UNL     1       1.501   2.068   0.267  0.00  0.00    +0.017 C 
BRANCH  23  24
ATOM     24  C   UNL     1       0.257   1.356   0.731  0.00  0.00    +0.206 C 
ATOM     25  O   UNL     1      -0.786   1.966   0.839  0.00  0.00    -0.277 OA
ATOM     26  N   UNL     1       0.302   0.041   1.022  0.00  0.00    -0.262 N 
ATOM     27  C   UNL     1       1.529  -0.742   0.807  0.00  0.00    +0.209 C 
ATOM     28  C   UNL     1       1.162  -2.077   0.211  0.00  0.00    +0.235 C 
ATOM     29  O   UNL     1       1.951  -2.647  -0.512  0.00  0.00    -0.274 OA
ATOM     30  N   UNL     1      -0.031  -2.643   0.471  0.00  0.00    -0.283 N 
ATOM     31  C   UNL     1      -0.980  -1.984   1.261  0.00  0.00    +0.055 A 
ATOM     32  C   UNL     1      -0.818  -0.624   1.545  0.00  0.00    +0.058 A 
ATOM     33  C   UNL     1      -1.752   0.041   2.313  0.00  0.00    +0.025 A 
ATOM     34  C   UNL     1      -2.845  -0.646   2.813  0.00  0.00    +0.002 A 
ATOM     35  C   UNL     1      -3.004  -1.992   2.542  0.00  0.00    +0.002 A 
ATOM     36  C   UNL     1      -2.076  -2.664   1.767  0.00  0.00    +0.025 A 
ATOM     37  H   UNL     1      -0.236  -3.519   0.107  0.00  0.00    +0.155 HD
ENDBRANCH  23  24
ENDBRANCH   6  23
TORSDOF 4
