REMARK  Name = ZINC67401370
REMARK  5 active torsions:
REMARK  status: ('A' for Active; 'I' for Inactive)
REMARK    1  A    between atoms: C_6  and  C_7
REMARK    2  A    between atoms: C_7  and  C_9
REMARK    3  A    between atoms: C_7  and  O_24
REMARK    4  A    between atoms: N_12  and  C_15
REMARK    5  A    between atoms: C_15  and  C_16
REMARK                            x       y       z     vdW  Elec       q    Type
REMARK                         _______ _______ _______ _____ _____    ______ ____
ROOT
ATOM      1  C   UNL     1      -1.653  -1.152   1.449  0.00  0.00    +0.019 C 
ATOM      2  C   UNL     1      -0.544  -2.026   2.042  0.00  0.00    -0.012 C 
ATOM      3  C   UNL     1      -0.947  -2.465   3.452  0.00  0.00    -0.078 C 
ATOM      4  N   UNL     1      -2.197  -3.231   3.391  0.00  0.00    +0.384 N 
ATOM      5  C   UNL     1      -3.281  -2.377   2.891  0.00  0.00    -0.078 C 
ATOM      6  C   UNL     1      -2.968  -1.935   1.460  0.00  0.00    -0.012 C 
ATOM      7  H   UNL     1      -2.078  -4.019   2.772  0.00  0.00    -0.081 HD
ENDROOT
BRANCH   1   8
ATOM      8  C   UNL     1      -1.293  -0.775   0.011  0.00  0.00    +0.147 C 
BRANCH   8  14
ATOM      9  C   UNL     1      -0.017   1.378   0.010  0.00  0.00    +0.007 A 
ATOM     10  C   UNL     1       1.171   2.086   0.002  0.00  0.00    +0.020 A 
ATOM     11  C   UNL     1       2.378   1.410  -0.013  0.00  0.00    +0.041 A 
ATOM     12  C   UNL     1       2.396   0.027  -0.021  0.00  0.00    +0.020 A 
ATOM     13  C   UNL     1       1.208  -0.679  -0.013  0.00  0.00    +0.007 A 
ATOM     14  C   UNL     1       0.002  -0.004   0.002  0.00  0.00    -0.019 A 
ATOM     15 CL   UNL     1       3.870   2.298  -0.023  0.00  0.00    -0.084 Cl
ENDBRANCH   8  14
BRANCH   8  16
ATOM     16  O   UNL     1      -1.145  -1.963  -0.770  0.00  0.00    -0.387 OA
ATOM     17  H   UNL     1      -0.455  -2.560  -0.450  0.00  0.00    +0.210 HD
ENDBRANCH   8  16
ENDBRANCH   1   8
BRANCH   4  18
ATOM     18  C   UNL     1      -2.538  -3.716   4.736  0.00  0.00    -0.001 C 
BRANCH  18  19
ATOM     19  C   UNL     1      -3.753  -4.604   4.656  0.00  0.00    +0.120 A 
ATOM     20  N   UNL     1      -4.961  -4.080   4.773  0.00  0.00    -0.202 NA
ATOM     21  C   UNL     1      -6.036  -4.862   4.703  0.00  0.00    +0.217 A 
ATOM     22  N   UNL     1      -5.894  -6.169   4.515  0.00  0.00    -0.181 NA
ATOM     23  C   UNL     1      -4.678  -6.692   4.398  0.00  0.00    +0.217 A 
ATOM     24  N   UNL     1      -3.608  -5.903   4.465  0.00  0.00    -0.202 NA
ATOM     25  N   UNL     1      -4.526  -8.049   4.204  0.00  0.00    -0.327 N 
ATOM     26  N   UNL     1      -7.297  -4.314   4.825  0.00  0.00    -0.327 N 
ATOM     27  H   UNL     1      -5.306  -8.623   4.152  0.00  0.00    +0.145 HD
ATOM     28  H   UNL     1      -3.638  -8.430   4.118  0.00  0.00    +0.145 HD
ATOM     29  H   UNL     1      -7.400  -3.359   4.962  0.00  0.00    +0.145 HD
ATOM     30  H   UNL     1      -8.080  -4.884   4.774  0.00  0.00    +0.145 HD
ENDBRANCH  18  19
ENDBRANCH   4  18
TORSDOF 5
