REMARK  Name = ZINC65225172
REMARK  7 active torsions:
REMARK  status: ('A' for Active; 'I' for Inactive)
REMARK    1  A    between atoms: C_1  and  C_2
REMARK    2  A    between atoms: C_2  and  C_3
REMARK    3  A    between atoms: C_3  and  C_5
REMARK    4  A    between atoms: C_3  and  N_6
REMARK    5  A    between atoms: N_14  and  S_20
REMARK    6  A    between atoms: S_20  and  C_23
REMARK    7  A    between atoms: C_27  and  C_29
REMARK                            x       y       z     vdW  Elec       q    Type
REMARK                         _______ _______ _______ _____ _____    ______ ____
ROOT
ATOM      1  N   UNL     1       2.094  -0.173  -3.370  0.00  0.00    -0.297 N 
ATOM      2  C   UNL     1       2.667  -0.035  -2.158  0.00  0.00    +0.303 C 
ATOM      3  O   UNL     1       2.018  -0.246  -1.152  0.00  0.00    -0.253 OA
ATOM      4  N   UNL     1       3.959   0.336  -2.061  0.00  0.00    -0.281 N 
ATOM      5  C   UNL     1       4.643   0.372  -0.759  0.00  0.00    +0.142 C 
ATOM      6  C   UNL     1       5.314   1.740  -0.602  0.00  0.00    +0.152 C 
ATOM      7  C   UNL     1       4.243   2.821  -0.436  0.00  0.00    +0.142 C 
ATOM      8  N   UNL     1       3.529   2.971  -1.714  0.00  0.00    -0.172 NA
ATOM      9  C   UNL     1       4.332   3.165  -2.931  0.00  0.00    +0.142 C 
ATOM     10  C   UNL     1       5.399   2.069  -2.990  0.00  0.00    +0.152 C 
ATOM     11  C   UNL     1       4.732   0.712  -3.255  0.00  0.00    +0.142 C 
ATOM     12  O   UNL     1       6.103   2.026  -1.757  0.00  0.00    -0.368 OA
ATOM     13  H   UNL     1       2.586   0.071  -4.170  0.00  0.00    +0.151 HD
ENDROOT
BRANCH   8  14
ATOM     14  S   UNL     1       1.875   2.922  -1.779  0.00  0.00    +0.061 S 
ATOM     15  O   UNL     1       1.534   2.442  -3.073  0.00  0.00    -0.153 OA
ATOM     16  O   UNL     1       1.440   2.278  -0.589  0.00  0.00    -0.153 OA
BRANCH  14  17
ATOM     17  C   UNL     1       1.301   4.585  -1.691  0.00  0.00    +0.106 A 
ATOM     18  C   UNL     1       1.036   5.160  -0.462  0.00  0.00    +0.028 A 
ATOM     19  C   UNL     1       0.585   6.465  -0.392  0.00  0.00    +0.002 A 
ATOM     20  C   UNL     1       0.400   7.195  -1.552  0.00  0.00    +0.003 A 
ATOM     21  C   UNL     1       0.665   6.620  -2.780  0.00  0.00    -0.049 A 
ATOM     22  C   UNL     1       1.120   5.316  -2.849  0.00  0.00    +0.032 A 
ATOM     23  C   UNL     1       0.463   7.416  -4.044  0.00  0.00    +0.044 C 
ENDBRANCH  14  17
ENDBRANCH   8  14
BRANCH   1  24
ATOM     24  C   UNL     1       0.729  -0.693  -3.481  0.00  0.00    +0.071 C 
ATOM     25  C   UNL     1      -0.265   0.469  -3.420  0.00  0.00    +0.028 C 
BRANCH  24  27
ATOM     26  C   UNL     1       1.464  -2.672  -4.816  0.00  0.00    +0.005 C 
ATOM     27  C   UNL     1       0.570  -1.431  -4.811  0.00  0.00    +0.019 C 
ENDBRANCH  24  27
ENDBRANCH   1  24
TORSDOF 4
