REMARK  Name = ZINC42846944
REMARK  11 active torsions:
REMARK  status: ('A' for Active; 'I' for Inactive)
REMARK    1  A    between atoms: C_1  and  C_2
REMARK    2  A    between atoms: C_2  and  O_3
REMARK    3  A    between atoms: O_3  and  C_4
REMARK    4  A    between atoms: C_7  and  O_10
REMARK    5  A    between atoms: O_10  and  C_11
REMARK    6  A    between atoms: C_11  and  C_13
REMARK    7  A    between atoms: C_11  and  C_14
REMARK    8  A    between atoms: N_16  and  N_17
REMARK    9  A    between atoms: N_20  and  C_21
REMARK   10  A    between atoms: C_21  and  C_23
REMARK   11  A    between atoms: C_21  and  C_24
REMARK                            x       y       z     vdW  Elec       q    Type
REMARK                         _______ _______ _______ _____ _____    ______ ____
ROOT
ATOM      1  C   UNL     1      -3.313  -7.723   0.902  0.00  0.00    +0.270 C 
ATOM      2  O   UNL     1      -2.268  -8.166   1.329  0.00  0.00    -0.270 OA
ATOM      3  N   UNL     1      -4.468  -8.374   1.140  0.00  0.00    -0.230 N 
ATOM      4  H   UNL     1      -5.304  -8.020   0.798  0.00  0.00    +0.173 HD
ENDROOT
BRANCH   3   5
ATOM      5  N   UNL     1      -4.463  -9.563   1.882  0.00  0.00    -0.218 N 
ATOM      6  C   UNL     1      -5.619 -10.214   2.120  0.00  0.00    +0.316 C 
ATOM      7  O   UNL     1      -5.614 -11.245   2.764  0.00  0.00    -0.251 OA
ATOM      8  N   UNL     1      -6.780  -9.722   1.645  0.00  0.00    -0.292 N 
ATOM      9  H   UNL     1      -3.627  -9.917   2.224  0.00  0.00    +0.174 HD
ATOM     10  H   UNL     1      -6.784  -8.899   1.132  0.00  0.00    +0.151 HD
BRANCH   8  11
ATOM     11  C   UNL     1      -8.036 -10.429   1.904  0.00  0.00    +0.102 C 
ATOM     12  C   UNL     1      -8.586 -10.009   3.269  0.00  0.00    +0.033 C 
BRANCH  11  13
ATOM     13  C   UNL     1      -9.037 -10.085   0.832  0.00  0.00    -0.027 A 
ATOM     14  C   UNL     1      -9.121  -8.790   0.355  0.00  0.00    +0.005 A 
ATOM     15  C   UNL     1     -10.040  -8.474  -0.629  0.00  0.00    +0.000 A 
ATOM     16  C   UNL     1     -10.873  -9.453  -1.136  0.00  0.00    +0.000 A 
ATOM     17  C   UNL     1     -10.788 -10.748  -0.660  0.00  0.00    +0.000 A 
ATOM     18  C   UNL     1      -9.867 -11.065   0.321  0.00  0.00    +0.005 A 
ENDBRANCH  11  13
ENDBRANCH   8  11
ENDBRANCH   3   5
BRANCH   1  19
ATOM     19  C   UNL     1      -3.319  -6.444   0.104  0.00  0.00    +0.257 C 
ATOM     20  C   UNL     1      -3.885  -6.716  -1.291  0.00  0.00    +0.062 C 
BRANCH  19  21
ATOM     21  O   UNL     1      -1.984  -5.949  -0.011  0.00  0.00    -0.480 OA
BRANCH  21  25
ATOM     22  C   UNL     1      -1.538  -1.893  -0.639  0.00  0.00    +0.121 A 
ATOM     23  C   UNL     1      -2.805  -2.458  -0.631  0.00  0.00    +0.049 A 
ATOM     24  C   UNL     1      -2.954  -3.815  -0.421  0.00  0.00    +0.049 A 
ATOM     25  C   UNL     1      -1.837  -4.613  -0.219  0.00  0.00    +0.122 A 
ATOM     26  C   UNL     1      -0.571  -4.047  -0.229  0.00  0.00    +0.049 A 
ATOM     27  C   UNL     1      -0.421  -2.691  -0.443  0.00  0.00    +0.049 A 
BRANCH  22  28
ATOM     28  O   UNL     1      -1.392  -0.557  -0.846  0.00  0.00    -0.492 OA
BRANCH  28  30
ATOM     29  C   UNL     1      -2.223   1.675  -1.257  0.00  0.00    +0.048 C 
ATOM     30  C   UNL     1      -2.585   0.204  -1.041  0.00  0.00    +0.225 C 
ENDBRANCH  28  30
ENDBRANCH  22  28
ENDBRANCH  21  25
ENDBRANCH  19  21
ENDBRANCH   1  19
TORSDOF 8
