REMARK  Name = ZINC20885376
REMARK  11 active torsions:
REMARK  status: ('A' for Active; 'I' for Inactive)
REMARK    1  A    between atoms: C_1  and  O_2
REMARK    2  A    between atoms: O_2  and  C_3
REMARK    3  A    between atoms: C_7  and  C_10
REMARK    4  A    between atoms: C_8  and  O_9
REMARK    5  A    between atoms: C_15  and  C_20
REMARK    6  A    between atoms: C_22  and  O_30
REMARK    7  A    between atoms: C_23  and  O_28
REMARK    8  A    between atoms: C_24  and  O_26
REMARK    9  A    between atoms: O_26  and  C_27
REMARK   10  A    between atoms: O_28  and  C_29
REMARK   11  A    between atoms: O_30  and  C_31
REMARK                            x       y       z     vdW  Elec       q    Type
REMARK                         _______ _______ _______ _____ _____    ______ ____
ROOT
ATOM      1  C   UNL     1      -2.966  -4.126  -0.056  0.00  0.00    +0.140 C 
ATOM      2  C   UNL     1      -2.919  -4.659   1.356  0.00  0.00    +0.037 C 
ATOM      3  C   UNL     1      -3.973  -5.086   2.073  0.00  0.00    +0.017 C 
ATOM      4  C   UNL     1      -3.784  -5.607   3.488  0.00  0.00    +0.059 C 
ATOM      5  C   UNL     1      -2.616  -4.886   4.159  0.00  0.00    +0.032 C 
ATOM      6  C   UNL     1      -1.361  -5.148   3.318  0.00  0.00    +0.088 C 
ATOM      7  C   UNL     1      -1.621  -4.680   1.917  0.00  0.00    +0.163 C 
ATOM      8  O   UNL     1      -0.683  -4.307   1.240  0.00  0.00    -0.292 OA
ATOM      9  N   UNL     1      -5.254  -5.111   1.624  0.00  0.00    -0.316 N 
ATOM     10  C   UNL     1      -5.885  -4.065   0.961  0.00  0.00    +0.052 A 
ATOM     11  C   UNL     1      -6.965  -3.389   1.502  0.00  0.00    +0.025 A 
ATOM     12  C   UNL     1      -7.577  -2.388   0.765  0.00  0.00    +0.002 A 
ATOM     13  C   UNL     1      -7.115  -2.070  -0.499  0.00  0.00    +0.002 A 
ATOM     14  C   UNL     1      -6.023  -2.733  -1.033  0.00  0.00    +0.025 A 
ATOM     15  C   UNL     1      -5.395  -3.719  -0.289  0.00  0.00    +0.049 A 
ATOM     16  N   UNL     1      -4.226  -4.335  -0.737  0.00  0.00    -0.331 N 
ATOM     17  H   UNL     1      -5.873  -6.007   1.777  0.00  0.00    +0.152 HD
ATOM     18  H   UNL     1      -4.272  -4.988  -1.621  0.00  0.00    +0.147 HD
ENDROOT
BRANCH   1  23
ATOM     19  C   UNL     1      -2.059  -0.613  -1.137  0.00  0.00    +0.162 A 
ATOM     20  C   UNL     1      -2.168   0.076   0.061  0.00  0.00    +0.049 A 
ATOM     21  C   UNL     1      -2.534  -0.595   1.213  0.00  0.00    +0.004 A 
ATOM     22  C   UNL     1      -2.792  -1.953   1.174  0.00  0.00    +0.009 A 
ATOM     23  C   UNL     1      -2.685  -2.646  -0.017  0.00  0.00    +0.022 A 
ATOM     24  C   UNL     1      -2.324  -1.979  -1.177  0.00  0.00    +0.164 A 
BRANCH  19  26
ATOM     25  C   UNL     1      -1.449   1.447  -2.156  0.00  0.00    +0.277 C 
ATOM     26  O   UNL     1      -1.700   0.045  -2.271  0.00  0.00    -0.491 OA
ENDBRANCH  19  26
BRANCH  24  27
ATOM     27  O   UNL     1      -2.224  -2.658  -2.351  0.00  0.00    -0.503 OA
ATOM     28  H   UNL     1      -2.433  -3.737  -2.381  0.00  0.00    +0.292 HD
ENDBRANCH  24  27
ENDBRANCH   1  23
BRANCH   5  29
ATOM     29  C   UNL     1      -2.418  -5.422   5.553  0.00  0.00    -0.036 A 
ATOM     30  C   UNL     1      -2.138  -6.763   5.743  0.00  0.00    +0.053 A 
ATOM     31  C   UNL     1      -1.949  -7.259   7.024  0.00  0.00    +0.165 A 
ATOM     32  C   UNL     1      -2.055  -6.409   8.119  0.00  0.00    +0.204 A 
ATOM     33  C   UNL     1      -2.343  -5.064   7.924  0.00  0.00    +0.165 A 
ATOM     34  C   UNL     1      -2.524  -4.574   6.639  0.00  0.00    +0.053 A 
BRANCH  33  35
ATOM     35  O   UNL     1      -2.446  -4.228   8.992  0.00  0.00    -0.491 OA
ATOM     36  C   UNL     1      -2.744  -2.858   8.717  0.00  0.00    +0.277 C 
ENDBRANCH  33  35
BRANCH  32  37
ATOM     37  O   UNL     1      -1.876  -6.894   9.378  0.00  0.00    -0.488 OA
ATOM     38  C   UNL     1      -3.035  -7.380  10.057  0.00  0.00    +0.277 C 
ENDBRANCH  32  37
BRANCH  31  39
ATOM     39  O   UNL     1      -1.668  -8.577   7.209  0.00  0.00    -0.491 OA
ATOM     40  C   UNL     1      -1.575  -9.391   6.038  0.00  0.00    +0.277 C 
ENDBRANCH  31  39
ENDBRANCH   5  29
TORSDOF 7
