REMARK  Name = ZINC28852127
REMARK  6 active torsions:
REMARK  status: ('A' for Active; 'I' for Inactive)
REMARK    1  A    between atoms: C_3  and  N_27
REMARK    2  A    between atoms: C_6  and  C_7
REMARK    3  A    between atoms: C_7  and  O_9
REMARK    4  A    between atoms: O_9  and  C_10
REMARK    5  A    between atoms: C_10  and  C_11
REMARK    6  A    between atoms: N_16  and  C_17
REMARK                            x       y       z     vdW  Elec       q    Type
REMARK                         _______ _______ _______ _____ _____    ______ ____
ROOT
ATOM      1  C   UNL     1      -6.370   6.887  -0.466  0.00  0.00    +0.258 C 
ATOM      2  O   UNL     1      -5.280   7.415  -0.523  0.00  0.00    -0.272 OA
ATOM      3  N   UNL     1      -7.487   7.638  -0.523  0.00  0.00    -0.237 N 
ATOM      4  C   UNL     1      -7.394   8.977  -0.644  0.00  0.00    +0.306 C 
ATOM      5  O   UNL     1      -6.301   9.507  -0.701  0.00  0.00    -0.252 OA
ATOM      6  N   UNL     1      -8.511   9.728  -0.701  0.00  0.00    -0.294 N 
ATOM      7  H   UNL     1      -8.476   7.158  -0.471  0.00  0.00    +0.159 HD
ATOM      8  H   UNL     1      -9.500   9.249  -0.649  0.00  0.00    +0.151 HD
ENDROOT
BRANCH   6   9
ATOM      9  C   UNL     1      -8.409  11.184  -0.833  0.00  0.00    +0.037 C 
ATOM     10  C   UNL     1      -7.643  11.752   0.364  0.00  0.00    +0.029 C 
ATOM     11  C   UNL     1      -7.537  13.272   0.227  0.00  0.00    -0.008 C 
ATOM     12  C   UNL     1      -8.940  13.880   0.185  0.00  0.00    +0.007 C 
ATOM     13  C   UNL     1      -9.706  13.312  -1.012  0.00  0.00    -0.008 C 
ATOM     14  C   UNL     1      -9.813  11.792  -0.875  0.00  0.00    +0.029 C 
ATOM     15  C   UNL     1      -8.962  13.656  -2.304  0.00  0.00    +0.007 C 
ATOM     16  C   UNL     1      -7.559  13.049  -2.262  0.00  0.00    -0.008 C 
ATOM     17  C   UNL     1      -6.793  13.616  -1.065  0.00  0.00    +0.007 C 
ATOM     18  C   UNL     1      -7.665  11.528  -2.125  0.00  0.00    +0.029 C 
ENDBRANCH   6   9
BRANCH   1  19
ATOM     19  C   UNL     1      -6.475   5.389  -0.331  0.00  0.00    +0.328 C 
BRANCH  19  20
ATOM     20  O   UNL     1      -5.143   4.812  -0.291  0.00  0.00    -0.452 OA
BRANCH  20  21
ATOM     21  C   UNL     1      -5.060   3.473  -0.171  0.00  0.00    +0.340 C 
ATOM     22  O   UNL     1      -6.072   2.805  -0.102  0.00  0.00    -0.245 OA
BRANCH  21  28
ATOM     23  C   UNL     1      -3.652   1.428  -0.001  0.00  0.00    +0.017 A 
ATOM     24  C   UNL     1      -2.418   0.819   0.043  0.00  0.00    +0.024 A 
ATOM     25  C   UNL     1      -1.259   1.585  -0.037  0.00  0.00    +0.035 A 
ATOM     26  C   UNL     1      -1.343   2.970  -0.155  0.00  0.00    +0.024 A 
ATOM     27  C   UNL     1      -2.573   3.584  -0.204  0.00  0.00    +0.017 A 
ATOM     28  C   UNL     1      -3.740   2.817  -0.124  0.00  0.00    +0.059 A 
BRANCH  25  29
ATOM     29  N   UNL     1      -0.011   0.966   0.007  0.00  0.00    -0.270 N 
ATOM     30  C   UNL     1       1.023   1.577   0.618  0.00  0.00    +0.301 C 
ATOM     31  O   UNL     1       0.889   2.701   1.062  0.00  0.00    -0.253 OA
ATOM     32  N   UNL     1       2.206   0.942   0.737  0.00  0.00    -0.313 N 
ATOM     33  H   UNL     1       0.129  -0.022  -0.456  0.00  0.00    +0.156 HD
ATOM     34  H   UNL     1       3.050   1.441   1.235  0.00  0.00    +0.146 HD
ATOM     35  H   UNL     1       2.327  -0.075   0.336  0.00  0.00    +0.146 HD
ENDBRANCH  25  29
ENDBRANCH  21  28
ENDBRANCH  20  21
ENDBRANCH  19  20
ENDBRANCH   1  19
TORSDOF 6
