REMARK  Name = ZINC44593255
REMARK  5 active torsions:
REMARK  status: ('A' for Active; 'I' for Inactive)
REMARK    1  A    between atoms: C_6  and  C_20
REMARK    2  A    between atoms: N_13  and  C_14
REMARK    3  A    between atoms: C_14  and  C_15
REMARK    4  A    between atoms: C_15  and  S_16
REMARK    5  A    between atoms: S_16  and  N_19
REMARK                            x       y       z     vdW  Elec       q    Type
REMARK                         _______ _______ _______ _____ _____    ______ ____
ROOT
ATOM      1  C   UNL     1       0.544   0.948  -0.585  0.00  0.00    +0.014 A 
ATOM      2  C   UNL     1       1.833   1.262  -0.848  0.00  0.00    +0.046 A 
ATOM      3  S   UNL     1       2.638  -0.325  -0.690  0.00  0.00    -0.101 S 
ATOM      4  C   UNL     1       1.201  -1.284  -0.289  0.00  0.00    -0.003 A 
ATOM      5  C   UNL     1       0.194  -0.369  -0.290  0.00  0.00    -0.006 A 
ATOM      6  C   UNL     1      -1.236  -0.803   0.027  0.00  0.00    +0.222 C 
ATOM      7  N   UNL     1      -1.281  -2.271  -0.021  0.00  0.00    -0.268 N 
ATOM      8  C   UNL     1      -0.234  -3.041   0.668  0.00  0.00    +0.115 C 
ATOM      9  C   UNL     1       1.109  -2.750  -0.018  0.00  0.00    +0.062 C 
ATOM     10  C   UNL     1      -2.267  -2.903  -0.688  0.00  0.00    +0.303 C 
ATOM     11  O   UNL     1      -3.080  -2.260  -1.323  0.00  0.00    -0.253 OA
ATOM     12  N   UNL     1      -2.352  -4.247  -0.650  0.00  0.00    -0.298 N 
ATOM     13  H   UNL     1      -1.750  -4.756  -0.085  0.00  0.00    +0.150 HD
ENDROOT
BRANCH   6  14
ATOM     14  C   UNL     1      -2.183  -0.229  -0.995  0.00  0.00    +0.381 C 
ATOM     15  O   UNL     1      -2.107  -0.577  -2.160  0.00  0.00    -0.244 OA
ATOM     16  O   UNL     1      -3.025   0.585  -0.655  0.00  0.00    -0.244 OA
ENDBRANCH   6  14
BRANCH  12  17
ATOM     17  C   UNL     1      -3.354  -4.941  -1.464  0.00  0.00    +0.130 C 
BRANCH  17  18
ATOM     18  C   UNL     1      -3.238  -6.450  -1.238  0.00  0.00    +0.203 C 
BRANCH  18  19
ATOM     19  S   UNL     1      -4.478  -7.309  -2.246  0.00  0.00    +0.028 S 
ATOM     20  O   UNL     1      -5.784  -7.020  -1.766  0.00  0.00    -0.158 OA
ATOM     21  O   UNL     1      -4.166  -7.174  -3.626  0.00  0.00    -0.158 OA
BRANCH  19  22
ATOM     22  N   UNL     1      -4.254  -8.916  -1.918  0.00  0.00    -0.208 NA
ATOM     23  H   UNL     1      -3.564  -9.193  -1.294  0.00  0.00    +0.144 HD
ATOM     24  H   UNL     1      -4.812  -9.582  -2.349  0.00  0.00    +0.144 HD
ENDBRANCH  19  22
ENDBRANCH  18  19
ENDBRANCH  17  18
ENDBRANCH  12  17
TORSDOF 5
