REMARK  Name = ZINC08790619
REMARK  5 active torsions:
REMARK  status: ('A' for Active; 'I' for Inactive)
REMARK    1  A    between atoms: C_12  and  C_14
REMARK    2  A    between atoms: C_14  and  C_15
REMARK    3  A    between atoms: C_18  and  O_22
REMARK    4  A    between atoms: C_19  and  O_21
REMARK    5  A    between atoms: N_25  and  C_28
REMARK                            x       y       z     vdW  Elec       q    Type
REMARK                         _______ _______ _______ _____ _____    ______ ____
ROOT
ATOM      1  C   UNL     1       0.988  -1.460  -2.793  0.00  0.00    +0.000 A 
ATOM      2  C   UNL     1       2.286  -1.905  -2.962  0.00  0.00    +0.002 A 
ATOM      3  C   UNL     1       3.350  -1.097  -2.617  0.00  0.00    +0.023 A 
ATOM      4  C   UNL     1       3.123   0.175  -2.096  0.00  0.00    +0.036 A 
ATOM      5  C   UNL     1       1.812   0.612  -1.930  0.00  0.00    -0.028 A 
ATOM      6  C   UNL     1       0.754  -0.198  -2.276  0.00  0.00    +0.004 A 
ATOM      7  C   UNL     1       1.911   1.997  -1.357  0.00  0.00    +0.050 C 
ATOM      8  C   UNL     1       1.208   2.098   0.002  0.00  0.00    +0.088 C 
ATOM      9  C   UNL     1       0.606   3.531   0.024  0.00  0.00    +0.073 C 
ATOM     10  C   UNL     1       1.014   4.154  -1.328  0.00  0.00    -0.053 C 
ATOM     11  C   UNL     1      -0.885   3.284   0.031  0.00  0.00    +0.224 C 
ATOM     12  O   UNL     1      -1.738   4.145   0.042  0.00  0.00    -0.275 OA
ATOM     13  N   UNL     1      -1.117   1.966   0.018  0.00  0.00    -0.239 N 
ATOM     14  C   UNL     1      -0.014   1.208   0.009  0.00  0.00    +0.225 C 
ATOM     15  O   UNL     1       0.002  -0.004   0.002  0.00  0.00    -0.275 OA
ATOM     16  C   UNL     1       3.387   2.265  -1.232  0.00  0.00    +0.211 C 
ATOM     17  O   UNL     1       3.906   3.276  -0.810  0.00  0.00    -0.277 OA
ATOM     18  N   UNL     1       4.019   1.163  -1.679  0.00  0.00    -0.286 N 
ATOM     19  H   UNL     1       4.983   1.066  -1.708  0.00  0.00    +0.155 HD
ATOM     20  N   UNL     1       1.265   2.996  -2.190  0.00  0.00    +0.394 N 
ATOM     21  H   UNL     1       0.380   2.631  -2.560  0.00  0.00    -0.083 HD
ATOM     22  H   UNL     1       1.879   3.260  -2.969  0.00  0.00    -0.083 HD
ENDROOT
BRANCH  13  23
ATOM     23  C   UNL     1      -2.468   1.399   0.018  0.00  0.00    +0.084 C 
ATOM     24  C   UNL     1      -3.263   1.928  -1.194  0.00  0.00    +0.023 C 
ATOM     25  C   UNL     1      -4.702   2.114  -0.652  0.00  0.00    +0.002 C 
ATOM     26  C   UNL     1      -4.461   2.642   0.784  0.00  0.00    +0.002 C 
ATOM     27  C   UNL     1      -3.230   1.853   1.275  0.00  0.00    +0.023 C 
ENDBRANCH  13  23
BRANCH  10  28
ATOM     28  C   UNL     1      -0.119   5.023  -1.877  0.00  0.00    +0.020 C 
BRANCH  28  29
ATOM     29  C   UNL     1       0.343   5.717  -3.132  0.00  0.00    -0.045 A 
ATOM     30  C   UNL     1       0.941   6.961  -3.052  0.00  0.00    +0.007 A 
ATOM     31  C   UNL     1       1.371   7.600  -4.200  0.00  0.00    +0.049 A 
ATOM     32  C   UNL     1       1.194   6.998  -5.436  0.00  0.00    +0.158 A 
ATOM     33  C   UNL     1       0.588   5.748  -5.517  0.00  0.00    +0.158 A 
ATOM     34  C   UNL     1       0.163   5.111  -4.362  0.00  0.00    +0.052 A 
BRANCH  33  35
ATOM     35  O   UNL     1       0.411   5.153  -6.727  0.00  0.00    -0.503 OA
ATOM     36  H   UNL     1      -0.430   5.370  -7.153  0.00  0.00    +0.292 HD
ENDBRANCH  33  35
BRANCH  32  37
ATOM     37  O   UNL     1       1.612   7.627  -6.567  0.00  0.00    -0.503 OA
ATOM     38  H   UNL     1       0.943   8.197  -6.970  0.00  0.00    +0.292 HD
ENDBRANCH  32  37
ENDBRANCH  28  29
ENDBRANCH  10  28
TORSDOF 5
