REMARK  Name = ZINC35333147
REMARK  4 active torsions:
REMARK  status: ('A' for Active; 'I' for Inactive)
REMARK    1  A    between atoms: C_3  and  C_19
REMARK    2  A    between atoms: C_5  and  O_7
REMARK    3  A    between atoms: O_7  and  C_8
REMARK    4  A    between atoms: C_11  and  N_18
REMARK                            x       y       z     vdW  Elec       q    Type
REMARK                         _______ _______ _______ _____ _____    ______ ____
ROOT
ATOM      1  C   UNL     1       0.034  -2.695   0.092  0.00  0.00    +0.136 A 
ATOM      2  C   UNL     1      -1.145  -1.984   0.100  0.00  0.00    +0.049 A 
ATOM      3  C   UNL     1      -2.370  -2.633   0.214  0.00  0.00    +0.027 A 
ATOM      4  C   UNL     1      -2.437  -4.007   0.322  0.00  0.00    +0.034 A 
ATOM      5  C   UNL     1      -1.247  -4.762   0.317  0.00  0.00    +0.024 A 
ATOM      6  C   UNL     1       0.001  -4.096   0.195  0.00  0.00    +0.029 A 
ATOM      7  C   UNL     1       1.172  -4.875   0.187  0.00  0.00    +0.032 A 
ATOM      8  C   UNL     1       1.058  -6.228   0.291  0.00  0.00    +0.111 A 
ATOM      9  N   UNL     1      -0.122  -6.825   0.398  0.00  0.00    -0.263 NA
ATOM     10  C   UNL     1      -1.254  -6.160   0.424  0.00  0.00    +0.121 A 
ENDROOT
BRANCH   4  11
ATOM     11  N   UNL     1      -3.673  -4.644   0.437  0.00  0.00    -0.357 N 
ATOM     12  H   UNL     1      -4.489  -4.120   0.440  0.00  0.00    +0.142 HD
ATOM     13  H   UNL     1      -3.715  -5.610   0.513  0.00  0.00    +0.142 HD
ENDBRANCH   4  11
BRANCH   1  14
ATOM     14  O   UNL     1       1.224  -2.046  -0.021  0.00  0.00    -0.455 OA
BRANCH  14  19
ATOM     15  C   UNL     1       1.540   1.414  -1.112  0.00  0.00    +0.005 A 
ATOM     16  C   UNL     1       1.200   2.089   0.043  0.00  0.00    +0.019 A 
ATOM     17  C   UNL     1       0.862   1.374   1.194  0.00  0.00    +0.055 A 
ATOM     18  C   UNL     1       0.871  -0.021   1.171  0.00  0.00    +0.065 A 
ATOM     19  C   UNL     1       1.214  -0.688   0.006  0.00  0.00    +0.130 A 
ATOM     20  C   UNL     1       1.548   0.032  -1.134  0.00  0.00    +0.046 A 
BRANCH  17  21
ATOM     21  C   UNL     1       0.509   2.071   2.394  0.00  0.00    +0.099 C 
ATOM     22  N   UNL     1       0.229   2.624   3.346  0.00  0.00    -0.191 NA
ENDBRANCH  17  21
ENDBRANCH  14  19
ENDBRANCH   1  14
TORSDOF 4
