REMARK  Name = ZINC67315084
REMARK  8 active torsions:
REMARK  status: ('A' for Active; 'I' for Inactive)
REMARK    1  A    between atoms: C_1  and  C_2
REMARK    2  A    between atoms: C_2  and  N_3
REMARK    3  A    between atoms: N_3  and  C_4
REMARK    4  A    between atoms: C_4  and  C_6
REMARK    5  A    between atoms: C_4  and  C_7
REMARK    6  A    between atoms: N_18  and  C_19
REMARK    7  A    between atoms: C_22  and  C_28
REMARK    8  A    between atoms: C_23  and  C_25
REMARK                            x       y       z     vdW  Elec       q    Type
REMARK                         _______ _______ _______ _____ _____    ______ ____
ROOT
ATOM      1  N   UNL     1       0.635  -0.604  -1.724  0.00  0.00    -0.276 N 
ATOM      2  C   UNL     1      -0.317  -0.537  -2.676  0.00  0.00    +0.307 C 
ATOM      3  O   UNL     1      -0.089  -0.957  -3.794  0.00  0.00    -0.252 OA
ATOM      4  N   UNL     1      -1.521  -0.004  -2.389  0.00  0.00    -0.269 N 
ATOM      5  H   UNL     1      -1.680   0.393  -1.518  0.00  0.00    +0.156 HD
ENDROOT
BRANCH   4   6
ATOM      6  C   UNL     1      -2.542  -0.024  -3.346  0.00  0.00    +0.036 A 
ATOM      7  C   UNL     1      -3.863  -0.190  -2.950  0.00  0.00    +0.023 A 
ATOM      8  C   UNL     1      -4.875  -0.210  -3.891  0.00  0.00    +0.006 A 
ATOM      9  C   UNL     1      -4.579  -0.065  -5.231  0.00  0.00    -0.038 A 
ATOM     10  C   UNL     1      -3.255   0.103  -5.640  0.00  0.00    +0.041 A 
ATOM     11  C   UNL     1      -2.235   0.128  -4.689  0.00  0.00    +0.036 A 
ATOM     12  C   UNL     1      -5.686  -0.088  -6.254  0.00  0.00    +0.044 C 
BRANCH  10  13
ATOM     13  C   UNL     1      -2.936   0.258  -7.075  0.00  0.00    +0.242 C 
ATOM     14  O   UNL     1      -3.832   0.346  -7.891  0.00  0.00    -0.270 OA
ATOM     15  N   UNL     1      -1.651   0.303  -7.479  0.00  0.00    -0.325 N 
ATOM     16  H   UNL     1      -0.935   0.233  -6.827  0.00  0.00    +0.145 HD
ATOM     17  H   UNL     1      -1.441   0.405  -8.420  0.00  0.00    +0.145 HD
ENDBRANCH  10  13
ENDBRANCH   4   6
BRANCH   1  19
ATOM     18  C   UNL     1       0.625   1.409  -0.335  0.00  0.00    +0.024 C 
ATOM     19  C   UNL     1       0.361  -0.098  -0.377  0.00  0.00    +0.107 C 
ENDBRANCH   1  19
BRANCH   1  20
ATOM     20  C   UNL     1       1.944  -1.184  -2.037  0.00  0.00    +0.140 C 
ATOM     21  C   UNL     1       2.549  -0.458  -3.240  0.00  0.00    +0.036 C 
BRANCH  20  22
ATOM     22  C   UNL     1       1.781  -2.646  -2.362  0.00  0.00    +0.126 A 
ATOM     23  C   UNL     1       2.661  -3.605  -2.043  0.00  0.00    +0.055 A 
ATOM     24  C   UNL     1       2.097  -4.862  -2.550  0.00  0.00    +0.020 A 
ATOM     25  C   UNL     1       2.516  -6.192  -2.541  0.00  0.00    +0.011 A 
ATOM     26  C   UNL     1       1.733  -7.153  -3.118  0.00  0.00    +0.001 A 
ATOM     27  C   UNL     1       0.527  -6.812  -3.714  0.00  0.00    +0.004 A 
ATOM     28  C   UNL     1       0.097  -5.503  -3.733  0.00  0.00    +0.047 A 
ATOM     29  C   UNL     1       0.877  -4.511  -3.151  0.00  0.00    +0.135 A 
ATOM     30  O   UNL     1       0.729  -3.179  -3.009  0.00  0.00    -0.458 OA
ENDBRANCH  20  22
ENDBRANCH   1  20
TORSDOF 5
