REMARK  Name = ZINC29451229
REMARK  7 active torsions:
REMARK  status: ('A' for Active; 'I' for Inactive)
REMARK    1  A    between atoms: C_1  and  C_2
REMARK    2  A    between atoms: C_6  and  C_9
REMARK    3  A    between atoms: C_7  and  N_8
REMARK    4  A    between atoms: C_9  and  O_11
REMARK    5  A    between atoms: O_11  and  C_12
REMARK    6  A    between atoms: C_12  and  C_13
REMARK    7  A    between atoms: C_17  and  C_26
REMARK                            x       y       z     vdW  Elec       q    Type
REMARK                         _______ _______ _______ _____ _____    ______ ____
ROOT
ATOM      1  C   UNL     1      -2.722   0.548   2.294  0.00  0.00    +0.258 C 
ATOM      2  O   UNL     1      -2.105   0.422   3.330  0.00  0.00    -0.272 OA
ATOM      3  N   UNL     1      -2.107   1.033   1.198  0.00  0.00    -0.261 N 
ATOM      4  C   UNL     1      -2.809   1.114  -0.098  0.00  0.00    +0.168 C 
ATOM      5  C   UNL     1      -2.443   2.462  -0.735  0.00  0.00    +0.276 C 
ATOM      6  O   UNL     1      -1.023   2.534  -0.884  0.00  0.00    -0.476 OA
ATOM      7  C   UNL     1      -0.257   2.229   0.196  0.00  0.00    +0.143 A 
ATOM      8  C   UNL     1      -0.775   1.478   1.248  0.00  0.00    +0.078 A 
ATOM      9  C   UNL     1       0.019   1.171   2.341  0.00  0.00    +0.027 A 
ATOM     10  C   UNL     1       1.328   1.614   2.388  0.00  0.00    +0.002 A 
ATOM     11  C   UNL     1       1.844   2.362   1.346  0.00  0.00    +0.004 A 
ATOM     12  C   UNL     1       1.056   2.671   0.253  0.00  0.00    +0.047 A 
ENDROOT
BRANCH   5  13
ATOM     13  C   UNL     1      -3.099   2.576  -2.087  0.00  0.00    +0.253 C 
ATOM     14  O   UNL     1      -2.418   2.620  -3.090  0.00  0.00    -0.272 OA
ATOM     15  N   UNL     1      -4.442   2.630  -2.182  0.00  0.00    -0.326 N 
ATOM     16  H   UNL     1      -4.921   2.713  -3.169  0.00  0.00    +0.145 HD
ATOM     17  H   UNL     1      -5.060   2.590  -1.273  0.00  0.00    +0.145 HD
ENDBRANCH   5  13
BRANCH   1  18
ATOM     18  C   UNL     1      -4.178   0.164   2.233  0.00  0.00    +0.328 C 
BRANCH  18  19
ATOM     19  O   UNL     1      -4.635  -0.215   3.558  0.00  0.00    -0.452 OA
BRANCH  19  20
ATOM     20  C   UNL     1      -5.924  -0.589   3.678  0.00  0.00    +0.341 C 
ATOM     21  O   UNL     1      -6.647  -0.598   2.701  0.00  0.00    -0.245 OA
BRANCH  20  27
ATOM     22  C   UNL     1      -9.655  -2.402   6.474  0.00  0.00    +0.045 C 
ATOM     23  C   UNL     1      -8.254  -1.861   6.348  0.00  0.00    -0.029 A 
ATOM     24  C   UNL     1      -7.460  -1.735   7.469  0.00  0.00    +0.005 A 
ATOM     25  C   UNL     1      -6.171  -1.238   7.364  0.00  0.00    +0.001 A 
ATOM     26  C   UNL     1      -5.664  -0.870   6.137  0.00  0.00    +0.017 A 
ATOM     27  C   UNL     1      -6.457  -0.986   4.992  0.00  0.00    +0.080 A 
ATOM     28  C   UNL     1      -7.764  -1.489   5.102  0.00  0.00    +0.042 A 
BRANCH  28  29
ATOM     29  N   UNL     1      -8.561  -1.615   3.972  0.00  0.00    -0.357 N 
ATOM     30  H   UNL     1      -8.169  -1.320   2.987  0.00  0.00    +0.142 HD
ATOM     31  H   UNL     1      -9.583  -2.010   4.062  0.00  0.00    +0.142 HD
ENDBRANCH  28  29
ENDBRANCH  20  27
ENDBRANCH  19  20
ENDBRANCH  18  19
ENDBRANCH   1  18
TORSDOF 6
