REMARK  Name = ZINC36813139
REMARK  6 active torsions:
REMARK  status: ('A' for Active; 'I' for Inactive)
REMARK    1  A    between atoms: CB_1  and  CA_2
REMARK    2  A    between atoms: CA_2  and  C_4
REMARK    3  A    between atoms: CA_2  and  N_6
REMARK    4  A    between atoms: C_4  and  O_5
REMARK    5  A    between atoms: N_6  and  C_7
REMARK    6  A    between atoms: C_16  and  N_17
REMARK                            x       y       z     vdW  Elec       q    Type
REMARK                         _______ _______ _______ _____ _____    ______ ____
ROOT
ATOM      1  C   UNK A   0       0.181  -0.369   2.431  0.00  0.00    +0.059 A 
ATOM      2  C   UNK A   0       0.983  -0.400   3.594  0.00  0.00    +0.022 A 
ATOM      3  C   UNK A   0       2.313   0.045   3.574  0.00  0.00    +0.027 A 
ATOM      4  C   UNK A   0       3.055   0.001   4.716  0.00  0.00    +0.019 A 
ATOM      5  C   UNK A   0       2.509  -0.482   5.904  0.00  0.00    +0.017 A 
ATOM      6  C   UNK A   0       1.222  -0.922   5.957  0.00  0.00    +0.027 A 
ATOM      7  C   UNK A   0       0.425  -0.891   4.799  0.00  0.00    +0.048 A 
ATOM      8  N   UNK A   0      -0.843  -1.316   4.826  0.00  0.00    -0.359 N 
ATOM      9  C   UNK A   0      -1.601  -1.295   3.755  0.00  0.00    +0.107 A 
ATOM     10  C   UNK A   0      -1.130  -0.822   2.532  0.00  0.00    +0.062 A 
ATOM     11 BR   UNK A   0       4.848   0.600   4.689  0.00  0.00    -0.050 Br
ATOM     12  H   UNK A   0      -1.211  -1.650   5.659  0.00  0.00    +0.165 HD
ENDROOT
BRANCH  10  13
ATOM     13  N   UNK A   0      -1.970  -0.807   1.409  0.00  0.00    -0.355 N 
ATOM     14  H   UNK A   0      -1.606  -0.604   0.533  0.00  0.00    +0.142 HD
ATOM     15  H   UNK A   0      -2.916  -1.000   1.509  0.00  0.00    +0.142 HD
ENDBRANCH  10  13
BRANCH   1  16
ATOM     16  N   ALA A   1       0.686   0.105   1.223  0.00  0.00    -0.337 N 
ATOM     17  H   ALA A   1       0.918   1.042   1.129  0.00  0.00    +0.146 HD
BRANCH  16  19
ATOM     18  CB  ALA A   1       1.052  -0.006  -1.192  0.00  0.00    +0.030 C 
ATOM     19  CA  ALA A   1       0.866  -0.812   0.095  0.00  0.00    +0.093 C 
BRANCH  19  20
ATOM     20  C   ALA A   1       2.102  -1.681   0.336  0.00  0.00    +0.177 C 
BRANCH  20  21
ATOM     21  O   ALA A   1       3.269  -0.857   0.344  0.00  0.00    -0.393 OA
ATOM     22  H   ALA A   1       4.092  -1.342   0.491  0.00  0.00    +0.209 HD
ENDBRANCH  20  21
ENDBRANCH  19  20
ENDBRANCH  16  19
ENDBRANCH   1  16
TORSDOF 5
