REMARK  Name = ZINC21169552
REMARK  8 active torsions:
REMARK  status: ('A' for Active; 'I' for Inactive)
REMARK    1  A    between atoms: C_1  and  C_2
REMARK    2  A    between atoms: C_9  and  C_21
REMARK    3  A    between atoms: C_11  and  C_13
REMARK    4  A    between atoms: C_16  and  O_19
REMARK    5  A    between atoms: O_19  and  C_20
REMARK    6  A    between atoms: C_24  and  N_27
REMARK    7  A    between atoms: N_27  and  C_28
REMARK    8  A    between atoms: N_27  and  C_29
REMARK                            x       y       z     vdW  Elec       q    Type
REMARK                         _______ _______ _______ _____ _____    ______ ____
ROOT
ATOM      1  C   UNL     1      -0.074   1.487  -0.007  0.00  0.00    +0.044 C 
ATOM      2  C   UNL     1      -0.036  -0.020  -0.012  0.00  0.00    -0.048 A 
ATOM      3  C   UNL     1      -0.019  -0.704  -1.212  0.00  0.00    +0.005 A 
ATOM      4  C   UNL     1       0.032  -2.090  -1.225  0.00  0.00    +0.025 A 
ATOM      5  C   UNL     1       0.059  -2.791  -0.036  0.00  0.00    +0.058 A 
ATOM      6  C   UNL     1       0.015  -2.106   1.185  0.00  0.00    +0.088 A 
ATOM      7  C   UNL     1      -0.012  -0.711   1.186  0.00  0.00    +0.033 A 
ATOM      8  N   UNL     1      -0.046  -2.786   2.365  0.00  0.00    -0.226 NA
ATOM      9  C   UNL     1       0.590  -3.877   2.656  0.00  0.00    +0.162 C 
ATOM     10  N   UNL     1       1.442  -4.557   1.875  0.00  0.00    -0.212 NA
ATOM     11  C   UNL     1       1.238  -4.771   0.596  0.00  0.00    +0.133 C 
ATOM     12  N   UNL     1       0.159  -4.197  -0.045  0.00  0.00    -0.297 N 
ATOM     13  H   UNL     1      -0.509  -4.744  -0.488  0.00  0.00    +0.154 HD
ENDROOT
BRANCH  11  14
ATOM     14  C   UNL     1       2.166  -5.629  -0.160  0.00  0.00    +0.015 A 
ATOM     15  C   UNL     1       1.958  -5.857  -1.524  0.00  0.00    +0.015 A 
ATOM     16  C   UNL     1       2.829  -6.660  -2.226  0.00  0.00    +0.046 A 
ATOM     17  C   UNL     1       3.913  -7.244  -1.581  0.00  0.00    +0.120 A 
ATOM     18  C   UNL     1       4.124  -7.020  -0.225  0.00  0.00    +0.046 A 
ATOM     19  C   UNL     1       3.262  -6.213   0.484  0.00  0.00    +0.015 A 
BRANCH  17  20
ATOM     20  O   UNL     1       4.768  -8.035  -2.277  0.00  0.00    -0.495 OA
ATOM     21  C   UNL     1       5.861  -8.603  -1.553  0.00  0.00    +0.277 C 
ENDBRANCH  17  20
ENDBRANCH  11  14
BRANCH   9  22
ATOM     22  C   UNL     1       0.348  -4.436   4.003  0.00  0.00    +0.019 A 
ATOM     23  C   UNL     1      -0.530  -3.794   4.880  0.00  0.00    +0.013 A 
ATOM     24  C   UNL     1      -0.753  -4.317   6.134  0.00  0.00    +0.024 A 
ATOM     25  C   UNL     1      -0.105  -5.484   6.528  0.00  0.00    +0.029 A 
ATOM     26  C   UNL     1       0.770  -6.125   5.657  0.00  0.00    +0.024 A 
ATOM     27  C   UNL     1       0.993  -5.610   4.399  0.00  0.00    +0.013 A 
BRANCH  25  28
ATOM     28  N   UNL     1      -0.332  -6.010   7.797  0.00  0.00    -0.336 N 
ATOM     29  C   UNL     1      -1.152  -5.271   8.760  0.00  0.00    +0.129 C 
ATOM     30  C   UNL     1       0.250  -7.302   8.170  0.00  0.00    +0.129 C 
ENDBRANCH  25  28
ENDBRANCH   9  22
TORSDOF 4
