REMARK  Name = ZINC03838400
REMARK  12 active torsions:
REMARK  status: ('A' for Active; 'I' for Inactive)
REMARK    1  A    between atoms: C_1  and  C_2
REMARK    2  A    between atoms: C_2  and  C_35
REMARK    3  A    between atoms: C_3  and  C_4
REMARK    4  A    between atoms: N_6  and  C_7
REMARK    5  A    between atoms: C_10  and  C_20
REMARK    6  A    between atoms: C_14  and  C_16
REMARK    7  A    between atoms: C_17  and  C_18
REMARK    8  A    between atoms: C_17  and  C_19
REMARK    9  A    between atoms: N_22  and  C_23
REMARK   10  A    between atoms: C_23  and  C_25
REMARK   11  A    between atoms: C_23  and  C_32
REMARK   12  A    between atoms: C_25  and  C_26
REMARK                            x       y       z     vdW  Elec       q    Type
REMARK                         _______ _______ _______ _____ _____    ______ ____
ROOT
ATOM      1  C   UNL     1      -8.516   6.000  -1.752  0.00  0.00    +0.093 C 
ATOM      2  C   UNL     1      -7.026   6.011  -1.318  0.00  0.00    +0.055 C 
ATOM      3  C   UNL     1      -6.655   7.502  -1.518  0.00  0.00    +0.164 C 
ATOM      4  N   UNL     1      -7.388   7.914  -2.729  0.00  0.00    -0.285 N 
ATOM      5  C   UNL     1      -8.549   7.028  -2.902  0.00  0.00    +0.131 C 
ATOM      6  C   UNL     1      -7.049   8.934  -3.543  0.00  0.00    +0.240 C 
ATOM      7  O   UNL     1      -6.063   9.603  -3.301  0.00  0.00    -0.271 OA
ENDROOT
BRANCH   1  10
ATOM      8  C   UNL     1     -10.198   4.290  -2.179  0.00  0.00    +0.237 C 
ATOM      9  O   UNL     1     -11.039   5.047  -1.734  0.00  0.00    -0.271 OA
ATOM     10  N   UNL     1      -8.906   4.673  -2.232  0.00  0.00    -0.307 N 
ATOM     11  H   UNL     1      -8.236   4.069  -2.587  0.00  0.00    +0.149 HD
BRANCH   8  14
ATOM     12  C   UNL     1     -12.802   3.330  -1.655  0.00  0.00    +0.039 C 
ATOM     13  C   UNL     1     -11.837   2.527  -2.489  0.00  0.00    -0.071 C 
ATOM     14  C   UNL     1     -10.590   2.957  -2.662  0.00  0.00    +0.066 C 
ATOM     15  C   UNL     1     -12.284   1.237  -3.126  0.00  0.00    +0.039 C 
ENDBRANCH   8  14
ENDBRANCH   1  10
BRANCH   6  16
ATOM     16  C   UNL     1      -7.873   9.237  -4.723  0.00  0.00    +0.066 C 
ATOM     17  C   UNL     1      -7.620  10.322  -5.450  0.00  0.00    -0.071 C 
ATOM     18  C   UNL     1      -6.602  11.326  -4.975  0.00  0.00    +0.039 C 
ATOM     19  C   UNL     1      -8.350  10.546  -6.749  0.00  0.00    +0.039 C 
ENDBRANCH   6  16
BRANCH   3  20
ATOM     20  C   UNL     1      -5.170   7.648  -1.728  0.00  0.00    +0.234 C 
ATOM     21  O   UNL     1      -4.726   7.784  -2.849  0.00  0.00    -0.274 OA
ATOM     22  N   UNL     1      -4.334   7.628  -0.671  0.00  0.00    -0.302 N 
ATOM     23  H   UNL     1      -4.689   7.520   0.225  0.00  0.00    +0.150 HD
BRANCH  22  24
ATOM     24  C   UNL     1      -2.891   7.771  -0.875  0.00  0.00    +0.163 C 
BRANCH  24  25
ATOM     25  C   UNL     1      -2.535   9.234  -0.945  0.00  0.00    +0.231 C 
ATOM     26  O   UNL     1      -3.403  10.075  -0.835  0.00  0.00    -0.274 OA
ATOM     27  N   UNL     1      -1.254   9.608  -1.130  0.00  0.00    -0.328 N 
ATOM     28  H   UNL     1      -0.560   8.936  -1.218  0.00  0.00    +0.145 HD
ATOM     29  H   UNL     1      -1.026  10.550  -1.179  0.00  0.00    +0.145 HD
ENDBRANCH  24  25
BRANCH  24  30
ATOM     30  C   UNL     1      -2.144   7.120   0.291  0.00  0.00    +0.067 C 
BRANCH  30  31
ATOM     31  C   UNL     1      -2.402   5.635   0.286  0.00  0.00    -0.045 A 
ATOM     32  C   UNL     1      -3.472   5.118   0.992  0.00  0.00    +0.004 A 
ATOM     33  C   UNL     1      -3.712   3.756   0.985  0.00  0.00    +0.000 A 
ATOM     34  C   UNL     1      -2.876   2.912   0.278  0.00  0.00    +0.000 A 
ATOM     35  C   UNL     1      -1.803   3.428  -0.423  0.00  0.00    +0.000 A 
ATOM     36  C   UNL     1      -1.566   4.790  -0.419  0.00  0.00    +0.004 A 
ENDBRANCH  30  31
ENDBRANCH  24  30
ENDBRANCH  22  24
ENDBRANCH   3  20
TORSDOF 8
