REMARK  Name = ZINC02502644
REMARK  10 active torsions:
REMARK  status: ('A' for Active; 'I' for Inactive)
REMARK    1  A    between atoms: C_1  and  C_2
REMARK    2  A    between atoms: C_2  and  O_3
REMARK    3  A    between atoms: O_3  and  C_4
REMARK    4  A    between atoms: C_6  and  C_14
REMARK    5  A    between atoms: C_9  and  O_10
REMARK    6  A    between atoms: O_10  and  C_11
REMARK    7  A    between atoms: C_11  and  C_12
REMARK    8  A    between atoms: C_19  and  O_28
REMARK    9  A    between atoms: C_23  and  N_27
REMARK   10  A    between atoms: C_24  and  C_25
REMARK                            x       y       z     vdW  Elec       q    Type
REMARK                         _______ _______ _______ _____ _____    ______ ____
ROOT
ATOM      1  C   UNL     1       1.296  -0.768  -0.013  0.00  0.00    +0.098 C 
ATOM      2  C   UNL     1       2.428   0.134  -0.429  0.00  0.00    +0.008 A 
ATOM      3  C   UNL     1       3.625  -0.424  -0.843  0.00  0.00    +0.012 A 
ATOM      4  C   UNL     1       4.674   0.387  -1.228  0.00  0.00    +0.046 A 
ATOM      5  C   UNL     1       4.530   1.767  -1.201  0.00  0.00    +0.120 A 
ATOM      6  C   UNL     1       3.333   2.329  -0.787  0.00  0.00    +0.092 A 
ATOM      7  C   UNL     1       2.279   1.511  -0.400  0.00  0.00    +0.138 A 
ATOM      8  O   UNL     1       1.114   2.076   0.003  0.00  0.00    -0.441 OA
ATOM      9  C   UNL     1      -0.016   1.350   0.009  0.00  0.00    +0.199 C 
ATOM     10  C   UNL     1       0.002  -0.004   0.002  0.00  0.00    +0.098 C 
ENDROOT
BRANCH   1  13
ATOM     11  C   UNL     1       1.943  -3.175   2.826  0.00  0.00    +0.162 A 
ATOM     12  C   UNL     1       1.685  -2.675   1.560  0.00  0.00    +0.054 A 
ATOM     13  C   UNL     1       1.571  -1.311   1.366  0.00  0.00    -0.031 A 
ATOM     14  C   UNL     1       1.704  -0.444   2.434  0.00  0.00    +0.008 A 
ATOM     15  C   UNL     1       1.957  -0.937   3.701  0.00  0.00    +0.050 A 
ATOM     16  C   UNL     1       2.077  -2.303   3.901  0.00  0.00    +0.163 A 
BRANCH  11  17
ATOM     17  O   UNL     1       2.059  -4.517   3.018  0.00  0.00    -0.489 OA
BRANCH  17  19
ATOM     18  C   UNL     1       2.073  -6.817   2.277  0.00  0.00    +0.048 C 
ATOM     19  C   UNL     1       1.910  -5.352   1.868  0.00  0.00    +0.226 C 
ENDBRANCH  17  19
ENDBRANCH  11  17
BRANCH  16  20
ATOM     20  O   UNL     1       2.325  -2.790   5.147  0.00  0.00    -0.476 OA
BRANCH  20  21
ATOM     21  C   UNL     1       2.450  -1.835   6.203  0.00  0.00    +0.317 C 
BRANCH  21  22
ATOM     22  C   UNL     1       2.715  -2.537   7.470  0.00  0.00    -0.065 C 
ATOM     23  C   UNL     1       2.927  -3.097   8.480  0.00  0.00    +0.007 C 
ENDBRANCH  21  22
ENDBRANCH  20  21
ENDBRANCH  16  20
ENDBRANCH   1  13
BRANCH   9  24
ATOM     24  N   UNL     1      -1.226   1.999   0.019  0.00  0.00    -0.328 N 
ATOM     25  H   UNL     1      -2.050   1.489   0.020  0.00  0.00    +0.145 HD
ATOM     26  H   UNL     1      -1.255   2.969   0.024  0.00  0.00    +0.145 HD
ENDBRANCH   9  24
BRANCH  10  27
ATOM     27  C   UNL     1      -1.237  -0.723   0.009  0.00  0.00    +0.101 C 
ATOM     28  N   UNL     1      -2.219  -1.292   0.015  0.00  0.00    -0.191 NA
ENDBRANCH  10  27
BRANCH   5  29
ATOM     29  O   UNL     1       5.562   2.567  -1.580  0.00  0.00    -0.507 OA
ATOM     30  H   UNL     1       6.155   2.813  -0.857  0.00  0.00    +0.292 HD
ENDBRANCH   5  29
TORSDOF 9
