REMARK  Name = ZINC42485353
REMARK  8 active torsions:
REMARK  status: ('A' for Active; 'I' for Inactive)
REMARK    1  A    between atoms: C_1  and  C_2
REMARK    2  A    between atoms: C_2  and  C_3
REMARK    3  A    between atoms: C_3  and  C_20
REMARK    4  A    between atoms: N_6  and  C_10
REMARK    5  A    between atoms: C_10  and  C_11
REMARK    6  A    between atoms: C_11  and  O_13
REMARK    7  A    between atoms: O_13  and  C_14
REMARK    8  A    between atoms: C_20  and  C_21
REMARK                            x       y       z     vdW  Elec       q    Type
REMARK                         _______ _______ _______ _____ _____    ______ ____
ROOT
ATOM      1  C   UNL     1      -1.433  -0.534   0.013  0.00  0.00    +0.112 C 
ATOM      2  C   UNL     1      -2.205   0.042   1.184  0.00  0.00    +0.247 C 
ATOM      3  O   UNL     1      -1.958  -0.098   2.363  0.00  0.00    -0.273 OA
ATOM      4  N   UNL     1      -3.222   0.740   0.642  0.00  0.00    -0.213 N 
ATOM      5  C   UNL     1      -3.200   0.687  -0.695  0.00  0.00    +0.310 C 
ATOM      6  O   UNL     1      -4.016   1.240  -1.406  0.00  0.00    -0.252 OA
ATOM      7  N   UNL     1      -2.175  -0.046  -1.163  0.00  0.00    -0.285 N 
ATOM      8  H   UNL     1      -1.964  -0.220  -2.094  0.00  0.00    +0.151 HD
ENDROOT
BRANCH   1  10
ATOM      9  C   UNL     1      -0.019   1.526   0.010  0.00  0.00    +0.006 C 
ATOM     10  C   UNL     1       0.002  -0.004   0.002  0.00  0.00    +0.032 C 
ENDBRANCH   1  10
BRANCH   1  11
ATOM     11  C   UNL     1      -1.441  -2.063   0.058  0.00  0.00    +0.032 C 
ATOM     12  C   UNL     1      -2.880  -2.570  -0.058  0.00  0.00    +0.006 C 
ENDBRANCH   1  11
BRANCH   4  13
ATOM     13  C   UNL     1      -4.228   1.468   1.421  0.00  0.00    +0.238 C 
BRANCH  13  14
ATOM     14  C   UNL     1      -3.756   2.880   1.656  0.00  0.00    +0.325 C 
ATOM     15  O   UNL     1      -2.690   3.241   1.218  0.00  0.00    -0.249 OA
BRANCH  14  16
ATOM     16  O   UNL     1      -4.521   3.736   2.351  0.00  0.00    -0.460 OA
BRANCH  16  17
ATOM     17  C   UNL     1      -4.012   5.058   2.536  0.00  0.00    +0.176 C 
ATOM     18  C   UNL     1      -3.187   5.112   3.823  0.00  0.00    +0.044 C 
ATOM     19  C   UNL     1      -2.642   6.528   4.021  0.00  0.00    +0.004 C 
ATOM     20  C   UNL     1      -3.808   7.514   4.120  0.00  0.00    +0.000 C 
ATOM     21  C   UNL     1      -4.633   7.460   2.833  0.00  0.00    +0.004 C 
ATOM     22  C   UNL     1      -5.178   6.044   2.635  0.00  0.00    +0.044 C 
ENDBRANCH  16  17
ENDBRANCH  14  16
ENDBRANCH  13  14
ENDBRANCH   4  13
TORSDOF 6
