REMARK  Name = ZINC37938775
REMARK  9 active torsions:
REMARK  status: ('A' for Active; 'I' for Inactive)
REMARK    1  A    between atoms: C_1  and  C_2
REMARK    2  A    between atoms: C_4  and  C_10
REMARK    3  A    between atoms: C_6  and  C_9
REMARK    4  A    between atoms: C_7  and  O_8
REMARK    5  A    between atoms: C_10  and  C_12
REMARK    6  A    between atoms: C_10  and  N_14
REMARK    7  A    between atoms: N_14  and  C_15
REMARK    8  A    between atoms: C_20  and  O_21
REMARK    9  A    between atoms: O_21  and  C_22
REMARK                            x       y       z     vdW  Elec       q    Type
REMARK                         _______ _______ _______ _____ _____    ______ ____
ROOT
ATOM      1  C   UNL     1       0.028  -2.816  -2.516  0.00  0.00    +0.205 C 
ENDROOT
BRANCH   1   5
ATOM      2  C   UNL     1      -0.018   1.503   0.010  0.00  0.00    +0.047 C 
ATOM      3  C   UNL     1       0.002  -0.004   0.002  0.00  0.00    -0.008 A 
ATOM      4  C   UNL     1       0.006  -0.689  -1.198  0.00  0.00    +0.013 A 
ATOM      5  C   UNL     1       0.024  -2.071  -1.206  0.00  0.00    -0.013 A 
ATOM      6  C   UNL     1       0.040  -2.772  -0.014  0.00  0.00    +0.013 A 
ATOM      7  C   UNL     1       0.036  -2.092   1.188  0.00  0.00    -0.008 A 
ATOM      8  C   UNL     1       0.023  -0.705   1.199  0.00  0.00    +0.123 A 
ATOM      9  C   UNL     1       0.052  -2.856   2.487  0.00  0.00    +0.047 C 
BRANCH   8  10
ATOM     10  O   UNL     1       0.025  -0.033   2.381  0.00  0.00    -0.506 OA
ATOM     11  H   UNL     1      -0.857   0.149   2.731  0.00  0.00    +0.292 HD
ENDBRANCH   8  10
ENDBRANCH   1   5
BRANCH   1  12
ATOM     12  C   UNL     1      -1.334  -3.286  -2.817  0.00  0.00    +0.090 C 
ATOM     13  N   UNL     1      -2.385  -3.649  -3.049  0.00  0.00    -0.194 NA
ENDBRANCH   1  12
BRANCH   1  14
ATOM     14  N   UNL     1       0.932  -3.965  -2.423  0.00  0.00    -0.322 N 
ATOM     15  H   UNL     1       1.127  -4.359  -1.558  0.00  0.00    +0.148 HD
BRANCH  14  16
ATOM     16  C   UNL     1       1.514  -4.493  -3.581  0.00  0.00    +0.071 A 
ATOM     17  C   UNL     1       1.242  -3.926  -4.817  0.00  0.00    +0.026 A 
ATOM     18  C   UNL     1       1.818  -4.450  -5.959  0.00  0.00    +0.002 A 
ATOM     19  C   UNL     1       2.667  -5.537  -5.873  0.00  0.00    +0.004 A 
ATOM     20  C   UNL     1       2.944  -6.107  -4.644  0.00  0.00    +0.047 A 
ATOM     21  C   UNL     1       2.374  -5.586  -3.494  0.00  0.00    +0.141 A 
BRANCH  21  22
ATOM     22  O   UNL     1       2.650  -6.142  -2.284  0.00  0.00    -0.493 OA
ATOM     23  C   UNL     1       3.540  -7.260  -2.271  0.00  0.00    +0.277 C 
ENDBRANCH  21  22
ENDBRANCH  14  16
ENDBRANCH   1  14
TORSDOF 6
