REMARK  Name = ZINC47147111
REMARK  4 active torsions:
REMARK  status: ('A' for Active; 'I' for Inactive)
REMARK    1  A    between atoms: C_4  and  O_36
REMARK    2  A    between atoms: C_5  and  C_7
REMARK    3  A    between atoms: N_23  and  C_26
REMARK    4  A    between atoms: C_31  and  C_32
REMARK                            x       y       z     vdW  Elec       q    Type
REMARK                         _______ _______ _______ _____ _____    ______ ____
ROOT
ATOM      1  C   UNL     1       1.227  -2.187  -0.022  0.00  0.00    +0.075 C 
ATOM      2  C   UNL     1       0.716  -2.666   1.288  0.00  0.00    +0.033 A 
ATOM      3  C   UNL     1      -0.196  -3.623   1.537  0.00  0.00    +0.088 A 
ATOM      4  N   UNL     1      -0.436  -3.862   2.872  0.00  0.00    -0.311 N 
ATOM      5  H   UNL     1      -1.066  -4.551   3.135  0.00  0.00    +0.170 HD
ATOM      6  C   UNL     1       0.204  -3.142   3.811  0.00  0.00    +0.289 A 
ATOM      7  O   UNL     1       0.104  -3.221   5.023  0.00  0.00    -0.260 OA
ATOM      8  S   UNL     1       1.175  -2.107   2.910  0.00  0.00    -0.030 S 
ATOM      9  S   UNL     1      -1.025  -4.471   0.218  0.00  0.00    -0.093 S 
ATOM     10  C   UNL     1       0.002  -4.112  -1.243  0.00  0.00    +0.152 C 
ATOM     11  C   UNL     1       0.474  -2.654  -1.209  0.00  0.00    +0.110 C 
ATOM     12  C   UNL     1      -0.728  -1.885  -1.663  0.00  0.00    +0.232 C 
ATOM     13  O   UNL     1      -1.008  -0.738  -1.387  0.00  0.00    -0.274 OA
ATOM     14  N   UNL     1      -1.437  -2.733  -2.445  0.00  0.00    -0.209 N 
ATOM     15  C   UNL     1      -0.986  -4.005  -2.419  0.00  0.00    +0.240 C 
ATOM     16  O   UNL     1      -1.304  -4.899  -3.173  0.00  0.00    -0.274 OA
ENDROOT
BRANCH   1  21
ATOM     17  C   UNL     1       0.159   1.377   0.624  0.00  0.00    +0.001 A 
ATOM     18  C   UNL     1       1.170   2.088   0.003  0.00  0.00    +0.004 A 
ATOM     19  C   UNL     1       2.200   1.419  -0.627  0.00  0.00    +0.046 A 
ATOM     20  C   UNL     1       2.222   0.031  -0.637  0.00  0.00    +0.121 A 
ATOM     21  C   UNL     1       1.207  -0.680  -0.013  0.00  0.00    +0.003 A 
ATOM     22  C   UNL     1       0.178  -0.005   0.615  0.00  0.00    +0.008 A 
BRANCH  20  23
ATOM     23  O   UNL     1       3.235  -0.630  -1.256  0.00  0.00    -0.506 OA
ATOM     24  H   UNL     1       3.990  -0.819  -0.683  0.00  0.00    +0.292 HD
ENDBRANCH  20  23
ENDBRANCH   1  21
BRANCH  14  25
ATOM     25  C   UNL     1      -2.533  -2.325  -3.218  0.00  0.00    +0.056 A 
ATOM     26  C   UNL     1      -2.341  -1.894  -4.524  0.00  0.00    +0.024 A 
ATOM     27  C   UNL     1      -3.423  -1.493  -5.283  0.00  0.00    +0.002 A 
ATOM     28  C   UNL     1      -4.696  -1.519  -4.743  0.00  0.00    +0.001 A 
ATOM     29  C   UNL     1      -4.890  -1.947  -3.443  0.00  0.00    +0.014 A 
ATOM     30  C   UNL     1      -3.813  -2.355  -2.681  0.00  0.00    +0.077 A 
BRANCH  30  31
ATOM     31  C   UNL     1      -4.026  -2.827  -1.266  0.00  0.00    +0.419 C 
ATOM     32  F   UNL     1      -5.388  -2.768  -0.954  0.00  0.00    -0.166 F 
ATOM     33  F   UNL     1      -3.576  -4.146  -1.141  0.00  0.00    -0.166 F 
ATOM     34  F   UNL     1      -3.311  -2.006  -0.387  0.00  0.00    -0.166 F 
ENDBRANCH  30  31
ENDBRANCH  14  25
TORSDOF 4
