REMARK  Name = ZINC39856389
REMARK  6 active torsions:
REMARK  status: ('A' for Active; 'I' for Inactive)
REMARK    1  A    between atoms: C_1  and  C_2
REMARK    2  A    between atoms: C_8  and  C_10
REMARK    3  A    between atoms: C_11  and  C_26
REMARK    4  A    between atoms: C_16  and  C_24
REMARK    5  A    between atoms: C_16  and  C_25
REMARK    6  A    between atoms: N_19  and  N_20
REMARK                            x       y       z     vdW  Elec       q    Type
REMARK                         _______ _______ _______ _____ _____    ______ ____
ROOT
ATOM      1  C   UNL     1      -3.622  -4.355  -0.006  0.00  0.00    +0.193 A 
ATOM      2  C   UNL     1      -4.989  -4.365  -0.004  0.00  0.00    +0.009 A 
ATOM      3  C   UNL     1      -5.371  -5.712  -0.008  0.00  0.00    +0.042 A 
ATOM      4  C   UNL     1      -4.222  -6.467  -0.009  0.00  0.00    +0.116 A 
ATOM      5  O   UNL     1      -3.183  -5.635  -0.015  0.00  0.00    -0.454 OA
ATOM      6  C   UNL     1      -4.231  -7.974  -0.007  0.00  0.00    +0.081 C 
ATOM      7  C   UNL     1      -5.584  -8.474   0.505  0.00  0.00    -0.023 C 
ATOM      8  C   UNL     1      -6.731  -7.832  -0.282  0.00  0.00    +0.064 C 
ATOM      9  C   UNL     1      -6.714  -6.334  -0.012  0.00  0.00    +0.071 C 
ATOM     10  N   UNL     1      -7.797  -5.653   0.200  0.00  0.00    -0.183 NA
ATOM     11  C   UNL     1      -5.653  -9.995   0.346  0.00  0.00    +0.011 C 
ATOM     12  C   UNL     1      -5.726  -8.116   1.986  0.00  0.00    +0.011 C 
ATOM     13  C   UNL     1      -5.902  -3.166  -0.001  0.00  0.00    +0.048 C 
ENDROOT
BRANCH   1  21
ATOM     14  C   UNL     1      -0.018   1.503   0.010  0.00  0.00    +0.089 C 
ATOM     15  C   UNL     1       0.002  -0.004   0.002  0.00  0.00    +0.136 A 
ATOM     16  C   UNL     1      -1.076  -0.807   0.003  0.00  0.00    +0.091 A 
ATOM     17  C   UNL     1      -0.625  -2.147  -0.007  0.00  0.00    +0.168 A 
ATOM     18  N   UNL     1       0.683  -2.130  -0.013  0.00  0.00    -0.063 NA
ATOM     19  O   UNL     1       1.100  -0.776  -0.013  0.00  0.00    -0.358 OA
ATOM     20  N   UNL     1      -1.431  -3.284  -0.010  0.00  0.00    -0.261 N 
ATOM     21  C   UNL     1      -2.773  -3.159  -0.003  0.00  0.00    +0.285 C 
ATOM     22  O   UNL     1      -3.281  -2.053   0.006  0.00  0.00    -0.266 OA
ATOM     23  H   UNL     1      -1.027  -4.165  -0.017  0.00  0.00    +0.157 HD
ENDBRANCH   1  21
BRANCH  10  24
ATOM     24  N   UNL     1      -9.042  -6.295   0.184  0.00  0.00    -0.191 N 
ATOM     25  C   UNL     1     -10.168  -5.587   0.404  0.00  0.00    +0.317 C 
ATOM     26  O   UNL     1     -11.249  -6.144   0.391  0.00  0.00    -0.251 OA
ATOM     27  N   UNL     1     -10.096  -4.262   0.638  0.00  0.00    -0.312 N 
ATOM     28  H   UNL     1      -9.094  -7.249   0.016  0.00  0.00    +0.179 HD
ATOM     29  H   UNL     1      -9.233  -3.817   0.649  0.00  0.00    +0.147 HD
ATOM     30  H   UNL     1     -10.906  -3.752   0.796  0.00  0.00    +0.147 HD
ENDBRANCH  10  24
TORSDOF 2
