REMARK  Name = ZINC66739298
REMARK  4 active torsions:
REMARK  status: ('A' for Active; 'I' for Inactive)
REMARK    1  A    between atoms: C_1  and  C_2
REMARK    2  A    between atoms: C_2  and  N_3
REMARK    3  A    between atoms: C_4  and  C_15
REMARK    4  A    between atoms: C_18  and  C_20
REMARK                            x       y       z     vdW  Elec       q    Type
REMARK                         _______ _______ _______ _____ _____    ______ ____
ROOT
ATOM      1  N   UNL     1       0.809  -0.522   1.058  0.00  0.00    -0.279 N 
ATOM      2  C   UNL     1       2.271  -0.646   1.107  0.00  0.00    +0.195 C 
ATOM      3  N   UNL     1       2.634  -0.692   2.543  0.00  0.00    -0.280 NA
ATOM      4  C   UNL     1       1.418  -1.245   3.177  0.00  0.00    +0.098 C 
ATOM      5  C   UNL     1       0.285  -0.869   2.253  0.00  0.00    +0.237 C 
ATOM      6  O   UNL     1      -0.894  -0.880   2.535  0.00  0.00    -0.274 OA
ATOM      7  C   UNL     1       1.534  -2.761   3.296  0.00  0.00    +0.031 C 
ATOM      8  C   UNL     1       0.265  -3.324   3.942  0.00  0.00    +0.002 C 
ATOM      9  C   UNL     1       0.081  -2.701   5.328  0.00  0.00    +0.000 C 
ATOM     10  C   UNL     1      -0.056  -1.183   5.191  0.00  0.00    +0.002 C 
ATOM     11  C   UNL     1       1.211  -0.613   4.550  0.00  0.00    +0.031 C 
ATOM     12  H   UNL     1       3.428  -1.296   2.696  0.00  0.00    +0.125 HD
ENDROOT
BRANCH   2  13
ATOM     13  C   UNL     1       2.915   0.546   0.447  0.00  0.00    +0.084 A 
ATOM     14  C   UNL     1       3.592   0.430  -0.724  0.00  0.00    +0.073 A 
ATOM     15  S   UNL     1       4.098   2.123  -0.981  0.00  0.00    -0.080 S 
ATOM     16  C   UNL     1       3.405   2.784   0.404  0.00  0.00    +0.082 A 
ATOM     17  N   UNL     1       2.841   1.751   0.978  0.00  0.00    -0.245 NA
BRANCH  16  18
ATOM     18  C   UNL     1       3.425   4.218   0.868  0.00  0.00    +0.045 C 
ATOM     19  C   UNL     1       3.980   5.265  -0.099  0.00  0.00    +0.011 C 
ATOM     20  C   UNL     1       4.790   4.856   1.132  0.00  0.00    +0.011 C 
ENDBRANCH  16  18
ENDBRANCH   2  13
BRANCH   1  22
ATOM     21  C   UNL     1      -0.246   1.416   0.004  0.00  0.00    +0.024 C 
ATOM     22  C   UNL     1       0.037  -0.083  -0.107  0.00  0.00    +0.106 C 
ENDBRANCH   1  22
TORSDOF 3
