REMARK  Name = ZINC25081374
REMARK  4 active torsions:
REMARK  status: ('A' for Active; 'I' for Inactive)
REMARK    1  A    between atoms: C_1  and  C_2
REMARK    2  A    between atoms: C_5  and  C_7
REMARK    3  A    between atoms: C_10  and  N_12
REMARK    4  A    between atoms: C_13  and  C_15
REMARK                            x       y       z     vdW  Elec       q    Type
REMARK                         _______ _______ _______ _____ _____    ______ ____
ROOT
ATOM      1  N   UNL     1       4.834   5.580  -0.117  0.00  0.00    -0.182 NA
ATOM      2  C   UNL     1       4.863   4.236  -0.023  0.00  0.00    +0.285 C 
ATOM      3  O   UNL     1       5.928   3.655   0.059  0.00  0.00    -0.265 OA
ENDROOT
BRANCH   2   4
ATOM      4  C   UNL     1       3.605   3.471  -0.019  0.00  0.00    +0.106 A 
ATOM      5  C   UNL     1       3.627   2.088  -0.041  0.00  0.00    +0.028 A 
ATOM      6  C   UNL     1       2.401   1.380  -0.037  0.00  0.00    -0.001 A 
ATOM      7  C   UNL     1       2.394  -0.023  -0.060  0.00  0.00    +0.010 A 
ATOM      8  C   UNL     1       1.207  -0.697  -0.056  0.00  0.00    +0.001 A 
ATOM      9  C   UNL     1       0.003  -0.005  -0.030  0.00  0.00    +0.002 A 
ATOM     10  C   UNL     1      -0.016   1.372  -0.007  0.00  0.00    +0.026 A 
ATOM     11  C   UNL     1       1.181   2.083  -0.011  0.00  0.00    +0.049 A 
ATOM     12  N   UNL     1       1.167   3.462   0.012  0.00  0.00    -0.321 N 
ATOM     13  H   UNL     1       0.208   4.001   0.033  0.00  0.00    +0.169 HD
ATOM     14  C   UNL     1       2.314   4.166   0.009  0.00  0.00    +0.262 A 
ATOM     15  O   UNL     1       2.279   5.383   0.029  0.00  0.00    -0.267 OA
ENDBRANCH   2   4
BRANCH   1  19
ATOM     16  C   UNL     1       7.423   8.116  -0.435  0.00  0.00    +0.087 A 
ATOM     17  C   UNL     1       8.506   7.280  -0.432  0.00  0.00    +0.077 A 
ATOM     18  S   UNL     1       7.701   5.691  -0.276  0.00  0.00    -0.056 S 
ATOM     19  C   UNL     1       6.019   6.294  -0.230  0.00  0.00    +0.196 A 
ATOM     20  N   UNL     1       6.201   7.597  -0.338  0.00  0.00    -0.221 NA
BRANCH  16  25
ATOM     21  C   UNL     1       9.094  13.479  -0.908  0.00  0.00    +0.051 C 
ATOM     22  C   UNL     1       8.403  12.146  -0.775  0.00  0.00    -0.013 A 
ATOM     23  C   UNL     1       7.076  11.878  -0.686  0.00  0.00    +0.011 A 
ATOM     24  C   UNL     1       6.661  10.568  -0.575  0.00  0.00    +0.018 A 
ATOM     25  C   UNL     1       7.607   9.579  -0.549  0.00  0.00    +0.038 A 
ATOM     26  S   UNL     1       9.121  10.514  -0.696  0.00  0.00    -0.092 S 
ENDBRANCH  16  25
ENDBRANCH   1  19
TORSDOF 3
