REMARK  Name = ZINC40024827
REMARK  8 active torsions:
REMARK  status: ('A' for Active; 'I' for Inactive)
REMARK    1  A    between atoms: C_1  and  C_2
REMARK    2  A    between atoms: C_2  and  C_4
REMARK    3  A    between atoms: C_2  and  N_10
REMARK    4  A    between atoms: N_6  and  C_7
REMARK    5  A    between atoms: N_13  and  C_16
REMARK    6  A    between atoms: C_16  and  C_18
REMARK    7  A    between atoms: C_16  and  C_19
REMARK    8  A    between atoms: N_24  and  C_25
REMARK                            x       y       z     vdW  Elec       q    Type
REMARK                         _______ _______ _______ _____ _____    ______ ____
ROOT
ATOM      1  C   UNL     1      -3.454  -3.831  -2.268  0.00  0.00    +0.140 C 
ATOM      2  C   UNL     1      -4.470  -3.878  -1.125  0.00  0.00    +0.034 C 
ENDROOT
BRANCH   1   3
ATOM      3  C   UNL     1      -2.867  -5.204  -2.474  0.00  0.00    +0.237 C 
ATOM      4  O   UNL     1      -1.673  -5.377  -2.354  0.00  0.00    -0.274 OA
ATOM      5  N   UNL     1      -3.669  -6.239  -2.793  0.00  0.00    -0.239 N 
ATOM      6  C   UNL     1      -3.144  -7.466  -2.978  0.00  0.00    +0.306 C 
ATOM      7  O   UNL     1      -1.947  -7.640  -2.857  0.00  0.00    -0.252 OA
ATOM      8  N   UNL     1      -3.946  -8.502  -3.297  0.00  0.00    -0.294 N 
ATOM      9  H   UNL     1      -4.624  -6.101  -2.890  0.00  0.00    +0.159 HD
ATOM     10  H   UNL     1      -4.901  -8.363  -3.393  0.00  0.00    +0.151 HD
BRANCH   8  11
ATOM     11  C   UNL     1      -3.375  -9.836  -3.497  0.00  0.00    +0.037 C 
ATOM     12  C   UNL     1      -2.359  -9.790  -4.641  0.00  0.00    +0.029 C 
ATOM     13  C   UNL     1      -1.763 -11.183  -4.850  0.00  0.00    -0.008 C 
ATOM     14  C   UNL     1      -2.880 -12.168  -5.200  0.00  0.00    +0.007 C 
ATOM     15  C   UNL     1      -3.896 -12.215  -4.057  0.00  0.00    -0.008 C 
ATOM     16  C   UNL     1      -4.492 -10.821  -3.847  0.00  0.00    +0.029 C 
ATOM     17  C   UNL     1      -3.199 -12.669  -2.773  0.00  0.00    +0.007 C 
ATOM     18  C   UNL     1      -2.082 -11.684  -2.423  0.00  0.00    -0.008 C 
ATOM     19  C   UNL     1      -1.066 -11.637  -3.566  0.00  0.00    +0.007 C 
ATOM     20  C   UNL     1      -2.678 -10.290  -2.214  0.00  0.00    +0.029 C 
ENDBRANCH   8  11
ENDBRANCH   1   3
BRANCH   1  24
ATOM     21  N   UNL     1      -1.096  -0.936  -0.287  0.00  0.00    +0.389 N 
ATOM     22  C   UNL     1      -1.744  -0.553  -1.548  0.00  0.00    -0.062 C 
ATOM     23  C   UNL     1      -2.900  -1.513  -1.840  0.00  0.00    +0.066 C 
ATOM     24  N   UNL     1      -2.381  -2.885  -1.932  0.00  0.00    -0.295 NA
ATOM     25  C   UNL     1      -1.708  -3.274  -0.685  0.00  0.00    +0.066 C 
ATOM     26  C   UNL     1      -0.562  -2.300  -0.403  0.00  0.00    -0.062 C 
ATOM     27  H   UNL     1      -1.771  -0.902   0.462  0.00  0.00    -0.081 HD
BRANCH  21  29
ATOM     28  C   UNL     1      -0.555   1.415   0.131  0.00  0.00    -0.004 C 
ATOM     29  C   UNL     1       0.002  -0.004   0.002  0.00  0.00    +0.016 C 
BRANCH  29  30
ATOM     30  C   UNL     1       0.671  -0.401   1.293  0.00  0.00    +0.199 C 
ATOM     31  O   UNL     1       0.037  -0.972   2.154  0.00  0.00    -0.278 OA
ATOM     32  N   UNL     1       1.974  -0.120   1.490  0.00  0.00    -0.314 N 
ATOM     33  H   UNL     1       2.482   0.338   0.801  0.00  0.00    +0.149 HD
BRANCH  32  34
ATOM     34  C   UNL     1       2.625  -0.505   2.745  0.00  0.00    +0.073 C 
ATOM     35  C   UNL     1       3.549   0.520   3.405  0.00  0.00    +0.024 C 
ATOM     36  C   UNL     1       4.141  -0.714   2.720  0.00  0.00    +0.024 C 
ENDBRANCH  32  34
ENDBRANCH  29  30
ENDBRANCH  21  29
ENDBRANCH   1  24
TORSDOF 6
