REMARK  Name = ZINC43257233
REMARK  7 active torsions:
REMARK  status: ('A' for Active; 'I' for Inactive)
REMARK    1  A    between atoms: C_1  and  C_2
REMARK    2  A    between atoms: C_2  and  C_4
REMARK    3  A    between atoms: C_2  and  N_23
REMARK    4  A    between atoms: C_4  and  C_6
REMARK    5  A    between atoms: C_4  and  S_12
REMARK    6  A    between atoms: S_12  and  C_13
REMARK    7  A    between atoms: N_17  and  C_18
REMARK                            x       y       z     vdW  Elec       q    Type
REMARK                         _______ _______ _______ _____ _____    ______ ____
ROOT
ATOM      1  C   UNL     1      -1.433  -0.534   0.013  0.00  0.00    +0.076 C 
ENDROOT
BRANCH   1   2
ATOM      2  C   UNL     1      -2.100  -0.151   1.309  0.00  0.00    +0.003 A 
ATOM      3  C   UNL     1      -3.212   0.598   1.508  0.00  0.00    +0.014 A 
ATOM      4  C   UNL     1      -3.647   0.822   2.801  0.00  0.00    +0.028 A 
ATOM      5  C   UNL     1      -2.947   0.285   3.832  0.00  0.00    +0.078 A 
ATOM      6  S   UNL     1      -1.635  -0.574   2.980  0.00  0.00    -0.081 S 
ATOM      7 CL   UNL     1      -3.253   0.399   5.537  0.00  0.00    -0.076 Cl
ENDBRANCH   1   2
BRANCH   1   9
ATOM      8  C   UNL     1      -0.019   1.526   0.010  0.00  0.00    -0.013 C 
ATOM      9  C   UNL     1       0.002  -0.004   0.002  0.00  0.00    -0.060 C 
BRANCH   9  10
ATOM     10  N   UNL     1       0.713  -0.491   1.192  0.00  0.00    +0.381 N 
ATOM     11  H   UNL     1       0.240  -0.165   2.022  0.00  0.00    -0.090 HD
ATOM     12  H   UNL     1       0.726  -1.500   1.187  0.00  0.00    -0.090 HD
ATOM     13  H   UNL     1       1.659  -0.141   1.185  0.00  0.00    -0.090 HD
ENDBRANCH   9  10
ENDBRANCH   1   9
BRANCH   1  14
ATOM     14  S   UNL     1      -1.412  -2.341  -0.146  0.00  0.00    -0.078 S 
BRANCH  14  15
ATOM     15  C   UNL     1      -0.747  -2.619  -1.754  0.00  0.00    +0.210 A 
ATOM     16  N   UNL     1      -0.360  -1.699  -2.610  0.00  0.00    -0.101 NA
ATOM     17  N   UNL     1       0.076  -2.242  -3.688  0.00  0.00    -0.022 NA
ATOM     18  N   UNL     1       0.001  -3.527  -3.605  0.00  0.00    -0.043 NA
ATOM     19  N   UNL     1      -0.533  -3.822  -2.338  0.00  0.00    -0.217 N 
BRANCH  19  20
ATOM     20  C   UNL     1      -0.802  -5.146  -1.773  0.00  0.00    +0.112 C 
ATOM     21  C   UNL     1       0.491  -5.987  -1.758  0.00  0.00    +0.027 C 
ATOM     22  C   UNL     1       0.014  -7.422  -2.095  0.00  0.00    +0.002 C 
ATOM     23  C   UNL     1      -1.092  -7.176  -3.151  0.00  0.00    +0.002 C 
ATOM     24  C   UNL     1      -1.808  -5.902  -2.658  0.00  0.00    +0.027 C 
ENDBRANCH  19  20
ENDBRANCH  14  15
ENDBRANCH   1  14
TORSDOF 6
