REMARK  Name = ZINC35420913
REMARK  7 active torsions:
REMARK  status: ('A' for Active; 'I' for Inactive)
REMARK    1  A    between atoms: C_1  and  C_2
REMARK    2  A    between atoms: C_3  and  C_33
REMARK    3  A    between atoms: C_8  and  C_25
REMARK    4  A    between atoms: C_10  and  C_15
REMARK    5  A    between atoms: C_15  and  C_17
REMARK    6  A    between atoms: C_18  and  C_19
REMARK    7  A    between atoms: C_33  and  C_35
REMARK                            x       y       z     vdW  Elec       q    Type
REMARK                         _______ _______ _______ _____ _____    ______ ____
ROOT
ATOM      1  C   UNL     1      -0.018   1.503   0.010  0.00  0.00    +0.067 C 
ATOM      2  C   UNL     1       0.002  -0.004   0.002  0.00  0.00    +0.058 A 
ATOM      3  C   UNL     1       0.006  -0.734  -1.186  0.00  0.00    +0.078 A 
ATOM      4  S   UNL     1       0.033  -2.401  -0.546  0.00  0.00    -0.049 S 
ATOM      5  C   UNL     1       0.036  -2.022   1.093  0.00  0.00    +0.169 A 
ATOM      6  N   UNL     1       0.022  -0.700   1.108  0.00  0.00    -0.229 NA
ATOM      7  N   UNL     1       0.053  -2.887   2.169  0.00  0.00    -0.232 N 
ATOM      8  C   UNL     1       0.049  -2.504   3.586  0.00  0.00    +0.152 C 
ATOM      9  C   UNL     1       0.073  -3.795   4.371  0.00  0.00    +0.076 C 
ATOM     10  C   UNL     1       0.088  -4.801   3.466  0.00  0.00    +0.250 C 
ATOM     11  C   UNL     1       0.071  -4.231   2.105  0.00  0.00    +0.293 C 
ATOM     12  O   UNL     1       0.075  -4.879   1.077  0.00  0.00    -0.266 OA
ATOM     13  O   UNL     1       0.112  -6.122   3.762  0.00  0.00    -0.282 OA
ENDROOT
BRANCH   8  14
ATOM     14  C   UNL     1       1.271  -1.680   3.904  0.00  0.00    -0.021 A 
ATOM     15  C   UNL     1       2.492  -2.013   3.347  0.00  0.00    +0.007 A 
ATOM     16  C   UNL     1       3.613  -1.258   3.638  0.00  0.00    +0.022 A 
ATOM     17  C   UNL     1       3.513  -0.170   4.486  0.00  0.00    +0.059 A 
ATOM     18  C   UNL     1       2.290   0.163   5.043  0.00  0.00    +0.060 A 
ATOM     19  C   UNL     1       1.168  -0.590   4.747  0.00  0.00    +0.027 A 
ATOM     20 CL   UNL     1       2.164   1.529   6.108  0.00  0.00    -0.082 Cl
ATOM     21 CL   UNL     1       4.921   0.778   4.852  0.00  0.00    -0.082 Cl
ENDBRANCH   8  14
BRANCH   3  22
ATOM     22  C   UNL     1      -0.007  -0.281  -2.520  0.00  0.00    +0.168 C 
ATOM     23  O   UNL     1      -0.025   0.910  -2.758  0.00  0.00    -0.292 OA
ATOM     24  C   UNL     1       0.001  -1.275  -3.653  0.00  0.00    +0.092 C 
ENDBRANCH   3  22
BRANCH   9  25
ATOM     25  C   UNL     1       0.078  -3.931   5.832  0.00  0.00    +0.188 C 
ATOM     26  O   UNL     1       0.098  -5.038   6.341  0.00  0.00    -0.287 OA
BRANCH  25  27
ATOM     27  C   UNL     1       0.060  -2.737   6.679  0.00  0.00    +0.052 C 
ATOM     28  C   UNL     1       0.065  -2.863   8.024  0.00  0.00    +0.011 C 
BRANCH  28  29
ATOM     29  C   UNL     1       0.046  -1.663   8.874  0.00  0.00    -0.025 A 
ATOM     30  C   UNL     1       0.018  -0.390   8.294  0.00  0.00    +0.008 A 
ATOM     31  C   UNL     1      -0.000   0.730   9.099  0.00  0.00    +0.001 A 
ATOM     32  C   UNL     1       0.011   0.597  10.476  0.00  0.00    +0.000 A 
ATOM     33  C   UNL     1       0.040  -0.659  11.058  0.00  0.00    +0.001 A 
ATOM     34  C   UNL     1       0.051  -1.789  10.268  0.00  0.00    +0.008 A 
ENDBRANCH  28  29
ENDBRANCH  25  27
ENDBRANCH   9  25
TORSDOF 5
