REMARK  Name = ZINC04766260
REMARK  8 active torsions:
REMARK  status: ('A' for Active; 'I' for Inactive)
REMARK    1  A    between atoms: C_1  and  C_2
REMARK    2  A    between atoms: C_5  and  N_26
REMARK    3  A    between atoms: C_7  and  N_8
REMARK    4  A    between atoms: C_9  and  C_11
REMARK    5  A    between atoms: C_11  and  O_12
REMARK    6  A    between atoms: O_12  and  C_13
REMARK    7  A    between atoms: C_13  and  C_15
REMARK    8  A    between atoms: C_17  and  C_25
REMARK                            x       y       z     vdW  Elec       q    Type
REMARK                         _______ _______ _______ _____ _____    ______ ____
ROOT
ATOM      1  C   UNL     1      -6.341   2.586   1.257  0.00  0.00    +0.328 C 
ENDROOT
BRANCH   1   3
ATOM      2  N   UNL     1      -8.274   2.559  -0.287  0.00  0.00    -0.282 N 
ATOM      3  C   UNL     1      -6.951   2.375  -0.105  0.00  0.00    +0.255 C 
ATOM      4  O   UNL     1      -6.252   2.039  -1.037  0.00  0.00    -0.272 OA
ATOM      5  H   UNL     1      -8.824   2.882   0.444  0.00  0.00    +0.155 HD
BRANCH   2  12
ATOM      6  C   UNL     1     -11.041   1.901  -0.363  0.00  0.00    +0.045 C 
ATOM      7  C   UNL     1     -10.201   1.959  -1.613  0.00  0.00    -0.029 A 
ATOM      8  C   UNL     1     -10.771   1.688  -2.842  0.00  0.00    +0.007 A 
ATOM      9  C   UNL     1     -10.001   1.741  -3.989  0.00  0.00    +0.033 A 
ATOM     10  C   UNL     1      -8.659   2.065  -3.910  0.00  0.00    +0.128 A 
ATOM     11  C   UNL     1      -8.084   2.342  -2.686  0.00  0.00    +0.056 A 
ATOM     12  C   UNL     1      -8.854   2.284  -1.531  0.00  0.00    +0.039 A 
BRANCH  10  13
ATOM     13  N   UNL     1      -7.838   2.120  -5.141  0.00  0.00    +0.056 N 
ATOM     14  O   UNL     1      -8.345   1.881  -6.222  0.00  0.00    -0.126 OA
ATOM     15  O   UNL     1      -6.656   2.406  -5.072  0.00  0.00    -0.126 OA
ENDBRANCH  10  13
ENDBRANCH   2  12
ENDBRANCH   1   3
BRANCH   1  16
ATOM     16  O   UNL     1      -4.914   2.326   1.194  0.00  0.00    -0.452 OA
BRANCH  16  17
ATOM     17  C   UNL     1      -4.215   2.471   2.336  0.00  0.00    +0.340 C 
ATOM     18  O   UNL     1      -4.782   2.805   3.357  0.00  0.00    -0.245 OA
BRANCH  17  19
ATOM     19  C   UNL     1      -2.758   2.224   2.347  0.00  0.00    +0.070 A 
ATOM     20  C   UNL     1      -2.104   1.734   1.223  0.00  0.00    +0.038 A 
ATOM     21  C   UNL     1      -0.731   1.508   1.271  0.00  0.00    +0.040 A 
ATOM     22  N   UNL     1      -0.026   1.754   2.348  0.00  0.00    -0.252 NA
ATOM     23  C   UNL     1      -0.586   2.231   3.462  0.00  0.00    +0.072 A 
ATOM     24  C   UNL     1      -1.979   2.485   3.503  0.00  0.00    +0.014 A 
ATOM     25  C   UNL     1      -2.559   2.986   4.676  0.00  0.00    +0.011 A 
ATOM     26  C   UNL     1      -1.778   3.224   5.766  0.00  0.00    +0.001 A 
ATOM     27  C   UNL     1      -0.407   2.975   5.730  0.00  0.00    +0.002 A 
ATOM     28  C   UNL     1       0.189   2.489   4.608  0.00  0.00    +0.028 A 
ATOM     29  C   UNL     1      -0.035   0.970   0.048  0.00  0.00    +0.065 C 
ENDBRANCH  17  19
ENDBRANCH  16  17
ENDBRANCH   1  16
TORSDOF 6
