REMARK  Name = ZINC67537665
REMARK  5 active torsions:
REMARK  status: ('A' for Active; 'I' for Inactive)
REMARK    1  A    between atoms: C_1  and  C_2
REMARK    2  A    between atoms: C_9  and  C_11
REMARK    3  A    between atoms: C_11  and  C_13
REMARK    4  A    between atoms: C_11  and  N_14
REMARK    5  A    between atoms: N_17  and  C_18
REMARK                            x       y       z     vdW  Elec       q    Type
REMARK                         _______ _______ _______ _____ _____    ______ ____
ROOT
ATOM      1  N   UNL     1       2.713   1.002   3.990  0.00  0.00    -0.288 N 
ATOM      2  C   UNL     1       3.083   0.705   5.251  0.00  0.00    +0.304 C 
ATOM      3  O   UNL     1       3.349  -0.443   5.553  0.00  0.00    -0.252 OA
ATOM      4  N   UNL     1       3.160   1.681   6.178  0.00  0.00    -0.269 N 
ATOM      5  H   UNL     1       2.501   1.917   3.749  0.00  0.00    +0.151 HD
ATOM      6  H   UNL     1       2.880   2.583   5.957  0.00  0.00    +0.156 HD
ENDROOT
BRANCH   4   7
ATOM      7  C   UNL     1       3.643   1.392   7.461  0.00  0.00    +0.038 A 
ATOM      8  C   UNL     1       4.388   2.338   8.152  0.00  0.00    +0.027 A 
ATOM      9  C   UNL     1       4.866   2.055   9.417  0.00  0.00    +0.051 A 
ATOM     10  C   UNL     1       4.603   0.827  10.000  0.00  0.00    +0.167 A 
ATOM     11  C   UNL     1       3.855  -0.125   9.310  0.00  0.00    +0.169 A 
ATOM     12  C   UNL     1       3.373   0.161   8.044  0.00  0.00    +0.073 A 
ATOM     13  O   UNL     1       3.740  -1.241  10.091  0.00  0.00    -0.447 OA
ATOM     14  C   UNL     1       4.749  -1.102  11.095  0.00  0.00    +0.254 C 
ATOM     15  O   UNL     1       4.956   0.308  11.216  0.00  0.00    -0.448 OA
ATOM     16  C   UNL     1       4.289  -1.710  12.427  0.00  0.00    +0.093 C 
ATOM     17  C   UNL     1       4.951  -3.112  12.447  0.00  0.00    +0.008 C 
ATOM     18  C   UNL     1       6.333  -2.850  11.796  0.00  0.00    +0.008 C 
ATOM     19  C   UNL     1       6.039  -1.817  10.685  0.00  0.00    +0.093 C 
ENDBRANCH   4   7
BRANCH   1  20
ATOM     20  C   UNL     1       2.630  -0.059   2.982  0.00  0.00    +0.157 C 
ATOM     21  C   UNL     1       4.012  -0.286   2.366  0.00  0.00    +0.038 C 
BRANCH  20  29
ATOM     22  C   UNL     1       0.242   1.346  -0.150  0.00  0.00    +0.028 C 
ATOM     23  C   UNL     1       0.306  -0.180  -0.067  0.00  0.00    +0.073 C 
ATOM     24  C   UNL     1       0.889  -0.742  -1.367  0.00  0.00    +0.022 C 
ATOM     25  C   UNL     1       1.080  -2.254  -1.225  0.00  0.00    +0.003 C 
ATOM     26  C   UNL     1       2.066  -2.540  -0.090  0.00  0.00    +0.019 C 
ATOM     27  C   UNL     1       1.496  -1.999   1.225  0.00  0.00    +0.108 C 
ATOM     28  N   UNL     1       1.171  -0.576   1.053  0.00  0.00    -0.297 N 
ATOM     29  C   UNL     1       1.661   0.348   1.903  0.00  0.00    +0.236 C 
ATOM     30  O   UNL     1       1.320   1.508   1.799  0.00  0.00    -0.274 OA
ENDBRANCH  20  29
ENDBRANCH   1  20
TORSDOF 3
