REMARK  Name = ZINC39590283
REMARK  4 active torsions:
REMARK  status: ('A' for Active; 'I' for Inactive)
REMARK    1  A    between atoms: C_3  and  N_4
REMARK    2  A    between atoms: C_5  and  C_7
REMARK    3  A    between atoms: C_10  and  N_14
REMARK    4  A    between atoms: C_15  and  C_17
REMARK                            x       y       z     vdW  Elec       q    Type
REMARK                         _______ _______ _______ _____ _____    ______ ____
ROOT
ATOM      1  C   UNL     1      -1.190  -2.643   2.347  0.00  0.00    +0.086 C 
ATOM      2  C   UNL     1      -1.688  -3.896   2.311  0.00  0.00    +0.021 C 
ATOM      3  N   UNL     1      -2.038  -4.550   3.438  0.00  0.00    -0.320 N 
ATOM      4  C   UNL     1      -3.033  -5.636   3.299  0.00  0.00    +0.219 C 
ATOM      5  S   UNL     1      -2.675  -6.197   1.578  0.00  0.00    -0.114 S 
ATOM      6  C   UNL     1      -1.886  -4.636   0.997  0.00  0.00    +0.123 C 
ATOM      7  H   UNL     1      -1.656  -4.318   4.299  0.00  0.00    +0.148 HD
ENDROOT
BRANCH   1   9
ATOM      8  N   UNL     1      -0.342  -0.734   1.180  0.00  0.00    -0.309 N 
ATOM      9  C   UNL     1      -0.839  -1.986   1.144  0.00  0.00    +0.239 C 
ATOM     10  O   UNL     1      -0.986  -2.552   0.076  0.00  0.00    -0.271 OA
ATOM     11  H   UNL     1      -0.225  -0.283   2.031  0.00  0.00    +0.149 HD
BRANCH   8  14
ATOM     12  C   UNL     1       0.013   1.476  -0.064  0.00  0.00    +0.024 C 
ATOM     13  C   UNL     1       1.342   0.718  -0.089  0.00  0.00    +0.024 C 
ATOM     14  C   UNL     1       0.021  -0.054  -0.066  0.00  0.00    +0.073 C 
ENDBRANCH   8  14
ENDBRANCH   1   9
BRANCH   4  15
ATOM     15  N   UNL     1      -2.788  -6.707   4.268  0.00  0.00    -0.284 N 
ATOM     16  C   UNL     1      -3.741  -7.628   4.510  0.00  0.00    +0.251 C 
ATOM     17  O   UNL     1      -4.838  -7.519   3.994  0.00  0.00    -0.270 OA
ATOM     18  H   UNL     1      -1.940  -6.752   4.737  0.00  0.00    +0.152 HD
BRANCH  16  19
ATOM     19  C   UNL     1      -3.456  -8.766   5.397  0.00  0.00    +0.101 A 
ATOM     20  C   UNL     1      -4.388  -9.789   5.561  0.00  0.00    +0.020 A 
ATOM     21  C   UNL     1      -4.083 -10.852   6.410  0.00  0.00    +0.018 A 
ATOM     22  C   UNL     1      -2.893 -10.882   7.063  0.00  0.00    +0.086 A 
ATOM     23  N   UNL     1      -1.982  -9.891   6.909  0.00  0.00    -0.328 N 
ATOM     24  C   UNL     1      -2.224  -8.845   6.096  0.00  0.00    +0.261 A 
ATOM     25  O   UNL     1      -1.390  -7.967   5.966  0.00  0.00    -0.267 OA
ATOM     26  H   UNL     1      -1.140  -9.938   7.389  0.00  0.00    +0.168 HD
ENDBRANCH  16  19
ENDBRANCH   4  15
TORSDOF 4
