REMARK  Name = ZINC13456552
REMARK  13 active torsions:
REMARK  status: ('A' for Active; 'I' for Inactive)
REMARK    1  A    between atoms: C_4  and  C_7
REMARK    2  A    between atoms: N_9  and  C_10
REMARK    3  A    between atoms: C_10  and  C_11
REMARK    4  A    between atoms: C_11  and  C_12
REMARK    5  A    between atoms: C_12  and  N_13
REMARK    6  A    between atoms: N_15  and  C_16
REMARK    7  A    between atoms: C_16  and  C_17
REMARK    8  A    between atoms: C_17  and  C_18
REMARK    9  A    between atoms: C_18  and  O_19
REMARK   10  A    between atoms: O_19  and  C_20
REMARK   11  A    between atoms: C_24  and  C_26
REMARK   12  A    between atoms: C_26  and  N_27
REMARK   13  A    between atoms: N_33  and  C_34
REMARK                            x       y       z     vdW  Elec       q    Type
REMARK                         _______ _______ _______ _____ _____    ______ ____
ROOT
ATOM      1  N   UNL     1       5.819  -6.437  -0.096  0.00  0.00    -0.251 NA
ATOM      2  C   UNL     1       6.096  -7.141  -1.155  0.00  0.00    +0.206 C 
ATOM      3  N   UNL     1       5.788  -8.481  -1.190  0.00  0.00    -0.355 N 
ATOM      4  N   UNL     1       6.698  -6.544  -2.243  0.00  0.00    -0.263 N 
ATOM      5  H   UNL     1       5.365  -8.901  -0.425  0.00  0.00    +0.162 HD
ATOM      6  H   UNL     1       6.993  -5.621  -2.188  0.00  0.00    +0.181 HD
ENDROOT
BRANCH   4   7
ATOM      7  C   UNL     1       6.878  -7.245  -3.388  0.00  0.00    +0.184 C 
ATOM      8  N   UNL     1       7.029  -7.834  -4.348  0.00  0.00    -0.171 NA
ENDBRANCH   4   7
BRANCH   1   9
ATOM      9  C   UNL     1       6.027  -4.987  -0.105  0.00  0.00    +0.147 C 
BRANCH   9  10
ATOM     10  C   UNL     1       4.684  -4.277   0.077  0.00  0.00    +0.042 C 
BRANCH  10  11
ATOM     11  C   UNL     1       4.901  -2.763   0.067  0.00  0.00    +0.106 C 
BRANCH  11  14
ATOM     12  C   UNL     1       3.561  -0.737   0.266  0.00  0.00    +0.244 C 
ATOM     13  O   UNL     1       4.580  -0.086   0.141  0.00  0.00    -0.270 OA
ATOM     14  N   UNL     1       3.615  -2.084   0.242  0.00  0.00    -0.311 N 
ATOM     15  H   UNL     1       2.801  -2.603   0.342  0.00  0.00    +0.149 HD
BRANCH  12  19
ATOM     16  C   UNL     1      -0.168   1.232   0.772  0.00  0.00    +0.000 A 
ATOM     17  C   UNL     1       0.990   1.976   0.631  0.00  0.00    +0.001 A 
ATOM     18  C   UNL     1       2.204   1.342   0.467  0.00  0.00    +0.013 A 
ATOM     19  C   UNL     1       2.263  -0.052   0.442  0.00  0.00    +0.037 A 
ATOM     20  C   UNL     1       1.091  -0.797   0.585  0.00  0.00    +0.013 A 
ATOM     21  C   UNL     1      -0.117  -0.151   0.749  0.00  0.00    +0.001 A 
ENDBRANCH  12  19
ENDBRANCH  11  14
ENDBRANCH  10  11
ENDBRANCH   9  10
ENDBRANCH   1   9
BRANCH   3  22
ATOM     22  C   UNL     1       6.100  -9.274  -2.382  0.00  0.00    +0.119 C 
BRANCH  22  23
ATOM     23  C   UNL     1       5.659 -10.722  -2.161  0.00  0.00    +0.062 C 
BRANCH  23  24
ATOM     24  C   UNL     1       5.984 -11.550  -3.406  0.00  0.00    +0.231 C 
BRANCH  24  25
ATOM     25  O   UNL     1       5.572 -12.902  -3.200  0.00  0.00    -0.492 OA
BRANCH  25  26
ATOM     26  C   UNL     1       5.791 -13.776  -4.217  0.00  0.00    +0.121 A 
ATOM     27  C   UNL     1       6.395 -13.341  -5.388  0.00  0.00    +0.045 A 
ATOM     28  C   UNL     1       6.617 -14.232  -6.421  0.00  0.00    +0.004 A 
ATOM     29  C   UNL     1       6.237 -15.555  -6.288  0.00  0.00    +0.002 A 
ATOM     30  C   UNL     1       5.634 -15.990  -5.123  0.00  0.00    -0.060 A 
ATOM     31  C   UNL     1       5.415 -15.105  -4.085  0.00  0.00    +0.047 A 
BRANCH  30  32
ATOM     32  C   UNL     1       5.221 -17.432  -4.982  0.00  0.00    -0.043 C 
BRANCH  32  33
ATOM     33  N   UNL     1       6.330 -18.205  -4.407  0.00  0.00    +0.382 N 
ATOM     34  C   UNL     1       7.461 -18.206  -5.343  0.00  0.00    -0.078 C 
ATOM     35  C   UNL     1       8.647 -18.941  -4.715  0.00  0.00    -0.019 C 
ATOM     36  C   UNL     1       8.239 -20.384  -4.403  0.00  0.00    -0.004 C 
ATOM     37  C   UNL     1       7.013 -20.371  -3.486  0.00  0.00    -0.019 C 
ATOM     38  C   UNL     1       5.887 -19.583  -4.160  0.00  0.00    -0.078 C 
ATOM     39  H   UNL     1       6.617 -17.784  -3.537  0.00  0.00    -0.081 HD
ENDBRANCH  32  33
ENDBRANCH  30  32
ENDBRANCH  25  26
ENDBRANCH  24  25
ENDBRANCH  23  24
ENDBRANCH  22  23
ENDBRANCH   3  22
TORSDOF 13
