REMARK  Name = ZINC58436200
REMARK  6 active torsions:
REMARK  status: ('A' for Active; 'I' for Inactive)
REMARK    1  A    between atoms: C_1  and  C_2
REMARK    2  A    between atoms: C_6  and  C_11
REMARK    3  A    between atoms: N_13  and  C_14
REMARK    4  A    between atoms: C_19  and  N_20
REMARK    5  A    between atoms: N_23  and  C_24
REMARK    6  A    between atoms: N_23  and  C_25
REMARK                            x       y       z     vdW  Elec       q    Type
REMARK                         _______ _______ _______ _____ _____    ______ ____
ROOT
ATOM      1  C   UNL     1      -1.432  -5.046   0.452  0.00  0.00    +0.249 C 
ATOM      2  O   UNL     1      -2.250  -4.638  -0.350  0.00  0.00    -0.270 OA
ATOM      3  N   UNL     1      -1.400  -6.355   0.774  0.00  0.00    -0.280 N 
ATOM      4  H   UNL     1      -0.698  -6.695   1.350  0.00  0.00    +0.155 HD
ENDROOT
BRANCH   1  10
ATOM      5  C   UNL     1      -0.058   1.533   0.027  0.00  0.00    +0.008 C 
ATOM      6  C   UNL     1      -0.028   0.004   0.018  0.00  0.00    -0.009 C 
ATOM      7  C   UNL     1      -1.461  -0.537   0.020  0.00  0.00    +0.008 C 
ATOM      8  C   UNL     1      -1.450  -2.046  -0.238  0.00  0.00    +0.037 C 
ATOM      9  C   UNL     1      -0.488  -2.700   0.743  0.00  0.00    -0.025 A 
ATOM     10  C   UNL     1      -0.478  -4.112   1.070  0.00  0.00    +0.047 A 
ATOM     11  C   UNL     1       0.458  -4.547   1.981  0.00  0.00    +0.058 A 
ATOM     12  S   UNL     1       1.301  -3.157   2.400  0.00  0.00    -0.101 S 
ATOM     13  C   UNL     1       0.451  -1.976   1.395  0.00  0.00    -0.006 A 
ATOM     14  C   UNL     1       0.696  -0.504   1.274  0.00  0.00    +0.046 C 
ENDBRANCH   1  10
BRANCH   3  15
ATOM     15  C   UNL     1      -2.380  -7.223   0.277  0.00  0.00    +0.055 A 
ATOM     16  C   UNL     1      -3.624  -6.730  -0.091  0.00  0.00    +0.025 A 
ATOM     17  C   UNL     1      -4.589  -7.589  -0.581  0.00  0.00    +0.002 A 
ATOM     18  C   UNL     1      -4.320  -8.939  -0.707  0.00  0.00    +0.002 A 
ATOM     19  C   UNL     1      -3.084  -9.439  -0.343  0.00  0.00    +0.025 A 
ATOM     20  C   UNL     1      -2.107  -8.584   0.144  0.00  0.00    +0.056 A 
BRANCH  20  21
ATOM     21  N   UNL     1      -0.850  -9.087   0.508  0.00  0.00    -0.268 N 
ATOM     22  C   UNL     1      -0.721 -10.379   0.868  0.00  0.00    +0.306 C 
ATOM     23  O   UNL     1      -1.707 -11.082   0.976  0.00  0.00    -0.252 OA
ATOM     24  N   UNL     1       0.502 -10.892   1.109  0.00  0.00    -0.291 N 
ATOM     25  C   UNL     1       0.643 -12.296   1.500  0.00  0.00    +0.133 C 
ATOM     26  C   UNL     1       1.690 -10.045   0.978  0.00  0.00    +0.133 C 
ATOM     27  H   UNL     1      -0.074  -8.505   0.500  0.00  0.00    +0.156 HD
ENDBRANCH  20  21
ENDBRANCH   3  15
TORSDOF 3
