REMARK  Name = ZINC65119298
REMARK  6 active torsions:
REMARK  status: ('A' for Active; 'I' for Inactive)
REMARK    1  A    between atoms: C_1  and  C_2
REMARK    2  A    between atoms: C_2  and  C_3
REMARK    3  A    between atoms: C_6  and  N_9
REMARK    4  A    between atoms: N_9  and  S_10
REMARK    5  A    between atoms: S_10  and  C_13
REMARK    6  A    between atoms: C_15  and  C_18
REMARK                            x       y       z     vdW  Elec       q    Type
REMARK                         _______ _______ _______ _____ _____    ______ ____
ROOT
ATOM      1  C   UNL     1      -7.715  -2.848  -0.983  0.00  0.00    +0.148 A 
ATOM      2  C   UNL     1      -8.855  -2.148  -0.791  0.00  0.00    +0.046 A 
ATOM      3  C   UNL     1     -10.024  -2.835  -0.477  0.00  0.00    +0.011 A 
ATOM      4  C   UNL     1      -9.973  -4.197  -0.376  0.00  0.00    +0.057 A 
ATOM      5  S   UNL     1      -8.256  -4.530  -0.733  0.00  0.00    -0.076 S 
ENDROOT
BRANCH   3   6
ATOM      6  C   UNL     1     -11.297  -2.106  -0.258  0.00  0.00    +0.092 A 
ATOM      7  C   UNL     1     -12.474  -2.822   0.060  0.00  0.00    +0.035 A 
ATOM      8  C   UNL     1     -13.626  -2.118   0.255  0.00  0.00    +0.073 A 
ATOM      9  C   UNL     1     -13.571  -0.713   0.127  0.00  0.00    +0.265 A 
ATOM     10  O   UNL     1     -14.576  -0.040   0.293  0.00  0.00    -0.266 OA
ATOM     11  N   UNL     1     -12.402  -0.119  -0.178  0.00  0.00    -0.243 N 
ATOM     12  N   UNL     1     -11.325  -0.797  -0.354  0.00  0.00    -0.171 NA
ATOM     13  H   UNL     1     -12.371   0.846  -0.265  0.00  0.00    +0.192 HD
ENDBRANCH   3   6
BRANCH   1  14
ATOM     14  S   UNL     1      -6.106  -2.253  -1.386  0.00  0.00    +0.098 S 
ATOM     15  O   UNL     1      -6.285  -0.989  -2.010  0.00  0.00    -0.148 OA
ATOM     16  O   UNL     1      -5.423  -3.325  -2.020  0.00  0.00    -0.148 OA
BRANCH  14  17
ATOM     17  N   UNL     1      -5.318  -1.967   0.042  0.00  0.00    -0.097 NA
BRANCH  17  21
ATOM     18  C   UNL     1      -1.412  -0.526   0.013  0.00  0.00    -0.047 A 
ATOM     19  C   UNL     1      -2.049  -0.766   1.216  0.00  0.00    +0.005 A 
ATOM     20  C   UNL     1      -3.345  -1.244   1.230  0.00  0.00    +0.027 A 
ATOM     21  C   UNL     1      -4.008  -1.483   0.032  0.00  0.00    +0.074 A 
ATOM     22  C   UNL     1      -3.364  -1.241  -1.175  0.00  0.00    +0.027 A 
ATOM     23  C   UNL     1      -2.070  -0.758  -1.181  0.00  0.00    +0.005 A 
BRANCH  18  25
ATOM     24  C   UNL     1      -0.019   1.526   0.010  0.00  0.00    +0.009 C 
ATOM     25  C   UNL     1       0.002  -0.004   0.002  0.00  0.00    +0.032 C 
ENDBRANCH  18  25
ENDBRANCH  17  21
ENDBRANCH  14  17
ENDBRANCH   1  14
TORSDOF 5
