REMARK  Name = ZINC23425540
REMARK  9 active torsions:
REMARK  status: ('A' for Active; 'I' for Inactive)
REMARK    1  A    between atoms: C_1  and  C_2
REMARK    2  A    between atoms: C_2  and  C_3
REMARK    3  A    between atoms: C_3  and  N_4
REMARK    4  A    between atoms: C_5  and  N_26
REMARK    5  A    between atoms: C_6  and  C_13
REMARK    6  A    between atoms: C_13  and  C_15
REMARK    7  A    between atoms: C_15  and  N_16
REMARK    8  A    between atoms: C_18  and  C_25
REMARK    9  A    between atoms: C_21  and  C_24
REMARK                            x       y       z     vdW  Elec       q    Type
REMARK                         _______ _______ _______ _____ _____    ______ ____
ROOT
ATOM      1  N   UNL     1      -3.067  -3.784   0.655  0.00  0.00    -0.281 N 
ATOM      2  C   UNL     1      -2.886  -2.431   0.639  0.00  0.00    +0.116 A 
ATOM      3  C   UNL     1      -1.620  -1.918   0.307  0.00  0.00    +0.121 A 
ATOM      4  C   UNL     1      -0.554  -2.876  -0.013  0.00  0.00    +0.266 A 
ATOM      5  O   UNL     1       0.560  -2.488  -0.312  0.00  0.00    -0.267 OA
ATOM      6  N   UNL     1      -0.834  -4.194   0.038  0.00  0.00    -0.274 N 
ATOM      7  H   UNL     1      -0.050  -4.932  -0.189  0.00  0.00    +0.173 HD
ATOM      8  C   UNL     1      -2.063  -4.626   0.362  0.00  0.00    +0.331 A 
ATOM      9  O   UNL     1      -2.275  -5.822   0.391  0.00  0.00    -0.246 OA
ENDROOT
BRANCH   2  10
ATOM     10  N   UNL     1      -3.914  -1.592   0.940  0.00  0.00    -0.344 N 
ATOM     11  H   UNL     1      -3.759  -0.504   0.924  0.00  0.00    +0.144 HD
ATOM     12  H   UNL     1      -4.901  -2.003   1.199  0.00  0.00    +0.144 HD
ENDBRANCH   2  10
BRANCH   3  13
ATOM     13  C   UNL     1      -1.383  -0.527   0.276  0.00  0.00    +0.185 C 
ATOM     14  O   UNL     1      -2.304   0.249   0.434  0.00  0.00    -0.290 OA
BRANCH  13  15
ATOM     15  C   UNL     1       0.012  -0.005   0.046  0.00  0.00    +0.164 C 
BRANCH  15  16
ATOM     16  N   UNL     1      -0.006   1.463   0.058  0.00  0.00    -0.290 NA
ATOM     17  C   UNL     1      -0.763   1.990  -1.087  0.00  0.00    +0.116 C 
ATOM     18  C   UNL     1      -0.807   3.518  -1.003  0.00  0.00    +0.130 C 
ATOM     19  O   UNL     1       0.529   4.027  -0.956  0.00  0.00    -0.371 OA
ATOM     20  C   UNL     1       1.294   3.535   0.148  0.00  0.00    +0.130 C 
ATOM     21  C   UNL     1       1.359   2.007   0.075  0.00  0.00    +0.116 C 
ATOM     22  C   UNL     1       2.710   4.111   0.086  0.00  0.00    +0.039 C 
ATOM     23  C   UNL     1      -1.559   3.940   0.261  0.00  0.00    +0.039 C 
ENDBRANCH  15  16
ENDBRANCH  13  15
ENDBRANCH   3  13
BRANCH   1  24
ATOM     24  C   UNL     1      -4.383  -4.329   1.000  0.00  0.00    +0.128 C 
BRANCH  24  26
ATOM     25  C   UNL     1      -6.593  -5.053   0.089  0.00  0.00    +0.005 C 
ATOM     26  C   UNL     1      -5.219  -4.484  -0.271  0.00  0.00    +0.018 C 
ENDBRANCH  24  26
ENDBRANCH   1  24
TORSDOF 6
