REMARK  Name = ZINC48546215
REMARK  1 active torsions:
REMARK  status: ('A' for Active; 'I' for Inactive)
REMARK    1  A    between atoms: C_1  and  C_2
REMARK                            x       y       z     vdW  Elec       q    Type
REMARK                         _______ _______ _______ _____ _____    ______ ____
ROOT
ATOM      1  C   UNL     1      -0.019   1.526   0.010  0.00  0.00    +0.029 C 
ATOM      2  C   UNL     1       0.002  -0.004   0.002  0.00  0.00    +0.082 C 
ATOM      3  C   UNL     1       0.778  -0.520  -1.221  0.00  0.00    +0.059 C 
ATOM      4  C   UNL     1       1.932  -1.304  -0.636  0.00  0.00    -0.024 A 
ATOM      5  C   UNL     1       2.960  -1.994  -1.247  0.00  0.00    +0.005 A 
ATOM      6  C   UNL     1       3.912  -2.643  -0.483  0.00  0.00    +0.000 A 
ATOM      7  C   UNL     1       3.833  -2.598   0.897  0.00  0.00    +0.002 A 
ATOM      8  C   UNL     1       2.809  -1.911   1.512  0.00  0.00    +0.024 A 
ATOM      9  C   UNL     1       1.843  -1.253   0.746  0.00  0.00    +0.039 A 
ATOM     10  N   UNL     1       0.735  -0.509   1.166  0.00  0.00    -0.282 N 
ATOM     11  C   UNL     1       0.383  -0.281   2.487  0.00  0.00    +0.132 A 
ATOM     12  C   UNL     1      -0.803   0.386   2.799  0.00  0.00    +0.084 A 
ATOM     13  C   UNL     1      -1.114   0.591   4.131  0.00  0.00    +0.136 A 
ATOM     14  N   UNL     1      -0.282   0.152   5.066  0.00  0.00    -0.203 NA
ATOM     15  C   UNL     1       0.837  -0.478   4.740  0.00  0.00    +0.216 A 
ATOM     16  N   UNL     1       1.168  -0.698   3.476  0.00  0.00    -0.199 NA
ATOM     17  N   UNL     1       1.679  -0.921   5.745  0.00  0.00    -0.327 N 
ATOM     18 CL   UNL     1      -2.577   1.415   4.574  0.00  0.00    -0.062 Cl
ATOM     19  H   UNL     1       1.446  -0.769   6.674  0.00  0.00    +0.145 HD
ATOM     20  H   UNL     1       2.501  -1.383   5.520  0.00  0.00    +0.145 HD
ENDROOT
TORSDOF 0
