REMARK  Name = ZINC35672052
REMARK  6 active torsions:
REMARK  status: ('A' for Active; 'I' for Inactive)
REMARK    1  A    between atoms: C_1  and  C_2
REMARK    2  A    between atoms: C_5  and  C_8
REMARK    3  A    between atoms: C_9  and  C_14
REMARK    4  A    between atoms: C_10  and  C_13
REMARK    5  A    between atoms: N_16  and  C_17
REMARK    6  A    between atoms: C_17  and  C_18
REMARK                            x       y       z     vdW  Elec       q    Type
REMARK                         _______ _______ _______ _____ _____    ______ ____
ROOT
ATOM      1  C   UNL     1       0.061  -4.249  -0.021  0.00  0.00    +0.180 A 
ATOM      2  C   UNL     1       0.072  -5.079   1.093  0.00  0.00    +0.106 A 
ATOM      3  C   UNL     1       0.090  -6.415   0.622  0.00  0.00    +0.093 A 
ATOM      4  N   UNL     1       0.089  -6.386  -0.677  0.00  0.00    -0.082 NA
ATOM      5  O   UNL     1       0.065  -5.039  -1.107  0.00  0.00    -0.354 OA
ATOM      6  C   UNL     1       0.108  -7.654   1.478  0.00  0.00    +0.070 C 
ENDROOT
BRANCH   1  11
ATOM      7  C   UNL     1      -0.018   1.503   0.010  0.00  0.00    +0.044 C 
ATOM      8  C   UNL     1       0.002  -0.004   0.002  0.00  0.00    -0.050 A 
ATOM      9  C   UNL     1       0.006  -0.686  -1.202  0.00  0.00    +0.004 A 
ATOM     10  C   UNL     1       0.025  -2.065  -1.217  0.00  0.00    +0.012 A 
ATOM     11  C   UNL     1       0.041  -2.773  -0.013  0.00  0.00    +0.021 A 
ATOM     12  C   UNL     1       0.037  -2.078   1.198  0.00  0.00    +0.012 A 
ATOM     13  C   UNL     1       0.023  -0.699   1.198  0.00  0.00    +0.004 A 
ENDBRANCH   1  11
BRANCH   2  14
ATOM     14  C   UNL     1       0.067  -4.650   2.501  0.00  0.00    +0.250 C 
ATOM     15  O   UNL     1      -0.989  -4.487   3.083  0.00  0.00    -0.270 OA
ATOM     16  N   UNL     1       1.232  -4.438   3.145  0.00  0.00    -0.304 N 
ATOM     17  H   UNL     1       2.073  -4.569   2.680  0.00  0.00    +0.149 HD
BRANCH  16  18
ATOM     18  C   UNL     1       1.227  -4.011   4.546  0.00  0.00    +0.179 C 
BRANCH  18  19
ATOM     19  C   UNL     1       2.646  -3.846   5.026  0.00  0.00    +0.122 A 
ATOM     20  C   UNL     1       3.371  -2.715   4.963  0.00  0.00    +0.046 A 
ATOM     21  C   UNL     1       4.636  -3.009   5.521  0.00  0.00    +0.041 A 
ATOM     22  C   UNL     1       4.609  -4.302   5.891  0.00  0.00    +0.195 A 
ATOM     23  O   UNL     1       3.399  -4.803   5.594  0.00  0.00    -0.466 OA
ENDBRANCH  18  19
ENDBRANCH  16  18
ENDBRANCH   2  14
TORSDOF 4
