REMARK  Name = ZINC41153990
REMARK  5 active torsions:
REMARK  status: ('A' for Active; 'I' for Inactive)
REMARK    1  A    between atoms: C_1  and  C_2
REMARK    2  A    between atoms: C_5  and  C_8
REMARK    3  A    between atoms: C_5  and  N_24
REMARK    4  A    between atoms: C_10  and  C_13
REMARK    5  A    between atoms: C_13  and  C_14
REMARK                            x       y       z     vdW  Elec       q    Type
REMARK                         _______ _______ _______ _____ _____    ______ ____
ROOT
ATOM      1  C   UNL     1      -2.115  -0.061   3.751  0.00  0.00    +0.161 A 
ATOM      2  N   UNL     1      -2.639  -0.840   4.704  0.00  0.00    -0.198 NA
ATOM      3  C   UNL     1      -3.176  -0.106   5.638  0.00  0.00    +0.228 A 
ATOM      4  O   UNL     1      -3.010   1.181   5.307  0.00  0.00    -0.338 OA
ATOM      5  N   UNL     1      -2.309   1.186   4.072  0.00  0.00    -0.063 NA
ENDROOT
BRANCH   1  10
ATOM      6  C   UNL     1      -0.019   1.526   0.010  0.00  0.00    +0.007 C 
ATOM      7  C   UNL     1       0.002  -0.004   0.002  0.00  0.00    -0.014 C 
ATOM      8  C   UNL     1      -1.433  -0.534   0.013  0.00  0.00    +0.002 C 
ATOM      9  C   UNL     1      -2.149  -0.040   1.272  0.00  0.00    -0.005 C 
ATOM     10  C   UNL     1      -1.409  -0.547   2.511  0.00  0.00    -0.006 C 
ATOM     11  C   UNL     1       0.026  -0.018   2.500  0.00  0.00    -0.005 C 
ATOM     12  C   UNL     1       0.742  -0.511   1.242  0.00  0.00    +0.002 C 
BRANCH  10  13
ATOM     13  N   UNL     1      -1.389  -2.016   2.503  0.00  0.00    +0.387 N 
ATOM     14  H   UNL     1      -0.917  -2.341   1.673  0.00  0.00    -0.089 HD
ATOM     15  H   UNL     1      -0.901  -2.350   3.321  0.00  0.00    -0.089 HD
ATOM     16  H   UNL     1      -2.336  -2.365   2.510  0.00  0.00    -0.089 HD
ENDBRANCH  10  13
ENDBRANCH   1  10
BRANCH   3  17
ATOM     17  C   UNL     1      -3.865  -0.617   6.877  0.00  0.00    +0.102 C 
BRANCH  17  18
ATOM     18  C   UNL     1      -2.841  -0.770   8.003  0.00  0.00    +0.001 C 
ATOM     19  C   UNL     1      -1.851  -1.912   7.680  0.00  0.00    +0.008 C 
ATOM     20  C   UNL     1      -2.049  -2.944   8.832  0.00  0.00    -0.010 C 
ATOM     21  C   UNL     1      -1.430  -2.255  10.085  0.00  0.00    +0.004 C 
ATOM     22  C   UNL     1      -2.405  -1.103  10.420  0.00  0.00    +0.004 C 
ATOM     23  C   UNL     1      -3.545  -1.217   9.321  0.00  0.00    -0.007 C 
ATOM     24  C   UNL     1      -3.584  -2.775   9.111  0.00  0.00    +0.007 C 
ENDBRANCH  17  18
ENDBRANCH   3  17
TORSDOF 4
