REMARK  Name = ZINC16323593
REMARK  8 active torsions:
REMARK  status: ('A' for Active; 'I' for Inactive)
REMARK    1  A    between atoms: C_1  and  C_2
REMARK    2  A    between atoms: C_2  and  C_4
REMARK    3  A    between atoms: C_2  and  S_13
REMARK    4  A    between atoms: N_9  and  C_10
REMARK    5  A    between atoms: C_10  and  C_11
REMARK    6  A    between atoms: C_10  and  C_12
REMARK    7  A    between atoms: S_13  and  C_14
REMARK    8  A    between atoms: N_27  and  C_28
REMARK                            x       y       z     vdW  Elec       q    Type
REMARK                         _______ _______ _______ _____ _____    ______ ____
ROOT
ATOM      1  C   UNL     1      -2.365  -0.093  -1.525  0.00  0.00    +0.198 A 
ATOM      2  N   UNL     1      -1.728   0.596  -2.440  0.00  0.00    -0.120 NA
ATOM      3  N   UNL     1      -2.608   0.819  -3.506  0.00  0.00    -0.109 NA
ATOM      4  C   UNL     1      -3.759   0.257  -3.211  0.00  0.00    +0.240 A 
ATOM      5  N   UNL     1      -3.635  -0.327  -1.979  0.00  0.00    -0.256 N 
ATOM      6  C   UNL     1      -4.707  -1.008  -1.408  0.00  0.00    +0.064 A 
ATOM      7  C   UNL     1      -4.593  -1.600  -0.159  0.00  0.00    +0.027 A 
ATOM      8  C   UNL     1      -5.671  -2.269   0.386  0.00  0.00    +0.002 A 
ATOM      9  C   UNL     1      -6.869  -2.356  -0.306  0.00  0.00    +0.001 A 
ATOM     10  C   UNL     1      -7.000  -1.774  -1.549  0.00  0.00    +0.015 A 
ATOM     11  C   UNL     1      -5.919  -1.095  -2.109  0.00  0.00    +0.064 A 
ATOM     12  C   UNL     1      -6.018  -0.459  -3.435  0.00  0.00    +0.263 A 
ATOM     13  O   UNL     1      -7.053  -0.514  -4.072  0.00  0.00    -0.267 OA
ATOM     14  N   UNL     1      -4.945   0.193  -3.926  0.00  0.00    -0.280 N 
ATOM     15  C   UNL     1      -5.027   0.828  -5.244  0.00  0.00    +0.155 C 
ENDROOT
BRANCH   1  16
ATOM     16  S   UNL     1      -1.700  -0.632   0.015  0.00  0.00    -0.073 S 
BRANCH  16  18
ATOM     17  C   UNL     1      -0.019   1.526   0.010  0.00  0.00    +0.029 C 
ATOM     18  C   UNL     1       0.002  -0.004   0.002  0.00  0.00    +0.137 C 
BRANCH  18  19
ATOM     19  C   UNL     1       0.731  -0.503   1.223  0.00  0.00    +0.233 C 
ATOM     20  O   UNL     1       0.105  -0.891   2.186  0.00  0.00    -0.274 OA
ATOM     21  N   UNL     1       2.079  -0.519   1.244  0.00  0.00    -0.239 N 
ATOM     22  C   UNL     1       2.730  -0.965   2.336  0.00  0.00    +0.306 C 
ATOM     23  O   UNL     1       2.103  -1.354   3.301  0.00  0.00    -0.252 OA
ATOM     24  N   UNL     1       4.078  -0.981   2.357  0.00  0.00    -0.297 N 
ATOM     25  H   UNL     1       2.579  -0.208   0.473  0.00  0.00    +0.159 HD
ATOM     26  H   UNL     1       4.579  -0.670   1.586  0.00  0.00    +0.151 HD
BRANCH  24  27
ATOM     27  C   UNL     1       4.786  -1.466   3.544  0.00  0.00    +0.068 C 
ATOM     28  C   UNL     1       6.174  -1.967   3.140  0.00  0.00    +0.027 C 
ATOM     29  C   UNL     1       4.930  -0.326   4.554  0.00  0.00    +0.027 C 
ENDBRANCH  24  27
ENDBRANCH  18  19
ENDBRANCH  16  18
ENDBRANCH   1  16
TORSDOF 4
