REMARK  Name = ZINC13131174
REMARK  4 active torsions:
REMARK  status: ('A' for Active; 'I' for Inactive)
REMARK    1  A    between atoms: C_12  and  C_14
REMARK    2  A    between atoms: C_17  and  S_23
REMARK    3  A    between atoms: C_18  and  N_20
REMARK    4  A    between atoms: S_23  and  C_24
REMARK                            x       y       z     vdW  Elec       q    Type
REMARK                         _______ _______ _______ _____ _____    ______ ____
ROOT
ATOM      1  C   UNL     1       1.182   1.781   0.011  0.00  0.00    +0.039 A 
ATOM      2  C   UNL     1       1.135   3.078   0.532  0.00  0.00    +0.014 A 
ATOM      3  C   UNL     1      -0.051   3.754   0.578  0.00  0.00    +0.018 A 
ATOM      4  C   UNL     1      -1.217   3.155   0.106  0.00  0.00    +0.043 A 
ATOM      5  C   UNL     1      -1.178   1.866  -0.420  0.00  0.00    +0.141 A 
ATOM      6  C   UNL     1       0.013   1.178  -0.464  0.00  0.00    +0.047 A 
ENDROOT
BRANCH   1  18
ATOM      7  C   UNL     1       7.275  -0.230  -0.602  0.00  0.00    +0.002 A 
ATOM      8  C   UNL     1       6.261  -0.818   0.133  0.00  0.00    +0.002 A 
ATOM      9  C   UNL     1       5.043  -0.179   0.274  0.00  0.00    +0.025 A 
ATOM     10  C   UNL     1       4.841   1.052  -0.319  0.00  0.00    +0.058 A 
ATOM     11  C   UNL     1       5.861   1.646  -1.071  0.00  0.00    +0.055 A 
ATOM     12  C   UNL     1       7.079   0.999  -1.204  0.00  0.00    +0.025 A 
ATOM     13  N   UNL     1       5.640   2.888  -1.676  0.00  0.00    -0.283 N 
ATOM     14  C   UNL     1       4.581   3.644  -1.329  0.00  0.00    +0.235 C 
ATOM     15  O   UNL     1       4.386   4.697  -1.898  0.00  0.00    -0.274 OA
ATOM     16  C   UNL     1       3.637   3.198  -0.242  0.00  0.00    +0.210 C 
ATOM     17  N   UNL     1       3.618   1.728  -0.198  0.00  0.00    -0.257 N 
ATOM     18  C   UNL     1       2.463   1.052  -0.039  0.00  0.00    +0.251 C 
ATOM     19  O   UNL     1       2.477  -0.160   0.063  0.00  0.00    -0.270 OA
ATOM     20  H   UNL     1       6.257   3.208  -2.353  0.00  0.00    +0.155 HD
ENDBRANCH   1  18
BRANCH   5  21
ATOM     21  N   UNL     1      -2.417   1.234  -0.926  0.00  0.00    +0.058 N 
ATOM     22  O   UNL     1      -2.383   0.105  -1.381  0.00  0.00    -0.126 OA
ATOM     23  O   UNL     1      -3.471   1.843  -0.887  0.00  0.00    -0.126 OA
ENDBRANCH   5  21
BRANCH   4  24
ATOM     24  S   UNL     1      -2.744   4.033   0.168  0.00  0.00    -0.087 S 
BRANCH  24  25
ATOM     25  C   UNL     1      -3.580   3.334   1.553  0.00  0.00    +0.013 A 
ATOM     26  C   UNL     1      -3.026   2.254   2.228  0.00  0.00    +0.018 A 
ATOM     27  C   UNL     1      -3.681   1.711   3.316  0.00  0.00    +0.039 A 
ATOM     28  C   UNL     1      -4.895   2.236   3.727  0.00  0.00    +0.123 A 
ATOM     29  C   UNL     1      -5.453   3.308   3.051  0.00  0.00    +0.039 A 
ATOM     30  C   UNL     1      -4.799   3.858   1.967  0.00  0.00    +0.018 A 
ATOM     31  F   UNL     1      -5.537   1.700   4.788  0.00  0.00    -0.205 F 
ENDBRANCH  24  25
ENDBRANCH   4  24
TORSDOF 4
