REMARK  Name = ZINC06723174
REMARK  14 active torsions:
REMARK  status: ('A' for Active; 'I' for Inactive)
REMARK    1  A    between atoms: C_1  and  C_2
REMARK    2  A    between atoms: C_2  and  N_3
REMARK    3  A    between atoms: N_6  and  C_7
REMARK    4  A    between atoms: C_10  and  N_29
REMARK    5  A    between atoms: C_11  and  C_13
REMARK    6  A    between atoms: C_13  and  N_14
REMARK    7  A    between atoms: N_14  and  C_15
REMARK    8  A    between atoms: C_15  and  C_16
REMARK    9  A    between atoms: N_24  and  C_25
REMARK   10  A    between atoms: C_25  and  C_26
REMARK   11  A    between atoms: C_25  and  C_27
REMARK   12  A    between atoms: C_25  and  C_28
REMARK   13  A    between atoms: N_29  and  C_30
REMARK   14  A    between atoms: N_29  and  C_31
REMARK                            x       y       z     vdW  Elec       q    Type
REMARK                         _______ _______ _______ _____ _____    ______ ____
ROOT
ATOM      1  C   UNL     1      -2.944   4.112  -3.474  0.00  0.00    +0.035 A 
ATOM      2  C   UNL     1      -1.953   3.284  -3.983  0.00  0.00    +0.025 A 
ATOM      3  C   UNL     1      -1.123   2.591  -3.124  0.00  0.00    +0.025 A 
ATOM      4  C   UNL     1      -1.287   2.714  -1.751  0.00  0.00    +0.034 A 
ATOM      5  C   UNL     1      -2.278   3.543  -1.241  0.00  0.00    -0.007 A 
ATOM      6  C   UNL     1      -3.104   4.240  -2.100  0.00  0.00    +0.030 A 
ENDROOT
BRANCH   1  10
ATOM      7  N   UNL     1      -4.849   5.004  -6.414  0.00  0.00    -0.299 N 
ATOM      8  C   UNL     1      -4.133   4.281  -5.530  0.00  0.00    +0.304 C 
ATOM      9  O   UNL     1      -3.804   3.143  -5.801  0.00  0.00    -0.253 OA
ATOM     10  N   UNL     1      -3.782   4.821  -4.346  0.00  0.00    -0.269 N 
ATOM     11  H   UNL     1      -5.112   5.912  -6.198  0.00  0.00    +0.150 HD
ATOM     12  H   UNL     1      -4.109   5.700  -4.097  0.00  0.00    +0.156 HD
BRANCH   7  14
ATOM     13  C   UNL     1      -6.032   5.439  -8.510  0.00  0.00    +0.024 C 
ATOM     14  C   UNL     1      -5.231   4.417  -7.701  0.00  0.00    +0.102 C 
ENDBRANCH   7  14
ENDBRANCH   1  10
BRANCH   4  15
ATOM     15  N   UNL     1      -0.450   2.008  -0.880  0.00  0.00    -0.336 N 
ATOM     16  C   UNL     1      -0.678   0.561  -0.988  0.00  0.00    +0.129 C 
ATOM     17  C   UNL     1       0.961   2.337  -1.123  0.00  0.00    +0.129 C 
ENDBRANCH   4  15
BRANCH   5  18
ATOM     18  C   UNL     1      -2.451   3.682   0.249  0.00  0.00    +0.146 C 
BRANCH  18  19
ATOM     19  N   UNL     1      -1.504   4.675   0.761  0.00  0.00    -0.279 N 
ATOM     20  C   UNL     1      -0.329   4.277   1.288  0.00  0.00    +0.303 C 
ATOM     21  O   UNL     1      -0.014   3.103   1.253  0.00  0.00    -0.253 OA
ATOM     22  N   UNL     1       0.497   5.180   1.852  0.00  0.00    -0.294 N 
ATOM     23  H   UNL     1       0.218   6.105   1.938  0.00  0.00    +0.151 HD
BRANCH  22  24
ATOM     24  C   UNL     1       1.816   4.764   2.337  0.00  0.00    +0.028 C 
ATOM     25  C   UNL     1       2.642   4.223   1.168  0.00  0.00    +0.031 C 
ATOM     26  C   UNL     1       2.533   5.965   2.956  0.00  0.00    +0.031 C 
ATOM     27  C   UNL     1       1.649   3.670   3.393  0.00  0.00    +0.031 C 
ENDBRANCH  22  24
BRANCH  19  28
ATOM     28  C   UNL     1      -1.833   6.101   0.700  0.00  0.00    +0.141 C 
BRANCH  28  29
ATOM     29  C   UNL     1      -2.561   6.512   1.981  0.00  0.00    +0.136 C 
ATOM     30  C   UNL     1      -2.912   8.011   1.927  0.00  0.00    +0.035 C 
ATOM     31  C   UNL     1      -4.453   8.046   2.074  0.00  0.00    +0.031 C 
ATOM     32  C   UNL     1      -4.748   6.671   2.727  0.00  0.00    +0.160 C 
ATOM     33  O   UNL     1      -3.797   5.787   2.095  0.00  0.00    -0.375 OA
ENDBRANCH  28  29
ENDBRANCH  19  28
ENDBRANCH  18  19
ENDBRANCH   5  18
TORSDOF 8
