REMARK  Name = ZINC46865064
REMARK  11 active torsions:
REMARK  status: ('A' for Active; 'I' for Inactive)
REMARK    1  A    between atoms: C_1  and  N_2
REMARK    2  A    between atoms: N_2  and  C_3
REMARK    3  A    between atoms: N_2  and  C_28
REMARK    4  A    between atoms: C_3  and  C_4
REMARK    5  A    between atoms: C_4  and  C_5
REMARK    6  A    between atoms: C_5  and  N_6
REMARK    7  A    between atoms: C_7  and  C_9
REMARK    8  A    between atoms: C_14  and  N_15
REMARK    9  A    between atoms: C_16  and  C_18
REMARK   10  A    between atoms: C_21  and  N_25
REMARK   11  A    between atoms: C_28  and  C_29
REMARK                            x       y       z     vdW  Elec       q    Type
REMARK                         _______ _______ _______ _____ _____    ______ ____
ROOT
ATOM      1  C   UNL     1      -1.716  -0.993  -8.069  0.00  0.00    +0.058 A 
ATOM      2  C   UNL     1      -3.011  -0.469  -8.044  0.00  0.00    +0.015 A 
ATOM      3  C   UNL     1      -3.747  -0.398  -9.207  0.00  0.00    +0.001 A 
ATOM      4  C   UNL     1      -3.209  -0.843 -10.403  0.00  0.00    +0.002 A 
ATOM      5  C   UNL     1      -1.931  -1.364 -10.444  0.00  0.00    +0.024 A 
ATOM      6  C   UNL     1      -1.173  -1.438  -9.283  0.00  0.00    +0.046 A 
ENDROOT
BRANCH   1   8
ATOM      7  N   UNL     1      -1.480  -0.728  -5.649  0.00  0.00    -0.311 N 
ATOM      8  C   UNL     1      -0.923  -1.072  -6.828  0.00  0.00    +0.246 C 
ATOM      9  O   UNL     1       0.233  -1.447  -6.867  0.00  0.00    -0.270 OA
ATOM     10  H   UNL     1      -2.402  -0.429  -5.618  0.00  0.00    +0.149 HD
BRANCH   7  11
ATOM     11  C   UNL     1      -0.693  -0.807  -4.417  0.00  0.00    +0.102 C 
BRANCH  11  12
ATOM     12  C   UNL     1      -1.554  -0.364  -3.232  0.00  0.00    +0.000 C 
BRANCH  12  13
ATOM     13  C   UNL     1      -0.732  -0.446  -1.944  0.00  0.00    -0.077 C 
BRANCH  13  15
ATOM     14  C   UNL     1      -1.906   1.398  -0.957  0.00  0.00    -0.096 C 
ATOM     15  N   UNL     1      -1.559  -0.022  -0.807  0.00  0.00    +0.384 N 
ATOM     16  H   UNL     1      -2.403  -0.574  -0.781  0.00  0.00    -0.082 HD
BRANCH  15  17
ATOM     17  C   UNL     1      -0.810  -0.214   0.442  0.00  0.00    +0.036 C 
BRANCH  17  18
ATOM     18  C   UNL     1      -1.710   0.119   1.633  0.00  0.00    +0.376 C 
ATOM     19  F   UNL     1      -2.898  -0.615   1.539  0.00  0.00    -0.173 F 
ATOM     20  F   UNL     1      -1.051  -0.211   2.822  0.00  0.00    -0.173 F 
ATOM     21  F   UNL     1      -2.006   1.486   1.627  0.00  0.00    -0.173 F 
ENDBRANCH  17  18
ENDBRANCH  15  17
ENDBRANCH  13  15
ENDBRANCH  12  13
ENDBRANCH  11  12
ENDBRANCH   7  11
ENDBRANCH   1   8
BRANCH   6  22
ATOM     22  N   UNL     1       0.118  -1.957  -9.323  0.00  0.00    -0.281 N 
ATOM     23  C   UNL     1       0.401  -3.001 -10.128  0.00  0.00    +0.250 C 
ATOM     24  O   UNL     1      -0.450  -3.435 -10.881  0.00  0.00    -0.270 OA
ATOM     25  H   UNL     1       0.815  -1.568  -8.772  0.00  0.00    +0.155 HD
BRANCH  23  26
ATOM     26  C   UNL     1       1.743  -3.617 -10.095  0.00  0.00    +0.055 A 
ATOM     27  C   UNL     1       2.720  -3.124  -9.228  0.00  0.00    +0.017 A 
ATOM     28  C   UNL     1       3.971  -3.704  -9.202  0.00  0.00    +0.033 A 
ATOM     29  C   UNL     1       4.260  -4.772 -10.034  0.00  0.00    +0.128 A 
ATOM     30  C   UNL     1       3.298  -5.265 -10.897  0.00  0.00    +0.053 A 
ATOM     31  C   UNL     1       2.039  -4.699 -10.928  0.00  0.00    +0.055 A 
ATOM     32 CL   UNL     1       0.830  -5.324 -12.005  0.00  0.00    -0.083 Cl
BRANCH  29  33
ATOM     33  N   UNL     1       5.606  -5.388 -10.001  0.00  0.00    +0.056 N 
ATOM     34  O   UNL     1       6.449  -4.958  -9.249  0.00  0.00    -0.126 OA
ATOM     35  O   UNL     1       5.861  -6.321 -10.726  0.00  0.00    -0.126 OA
ENDBRANCH  29  33
ENDBRANCH  23  26
ENDBRANCH   6  22
TORSDOF 10
