REMARK  Name = ZINC09051266
REMARK  8 active torsions:
REMARK  status: ('A' for Active; 'I' for Inactive)
REMARK    1  A    between atoms: C_1  and  C_2
REMARK    2  A    between atoms: C_2  and  C_3
REMARK    3  A    between atoms: C_2  and  C_4
REMARK    4  A    between atoms: C_7  and  N_10
REMARK    5  A    between atoms: C_14  and  C_17
REMARK    6  A    between atoms: C_15  and  N_16
REMARK    7  A    between atoms: N_23  and  C_24
REMARK    8  A    between atoms: N_23  and  C_25
REMARK                            x       y       z     vdW  Elec       q    Type
REMARK                         _______ _______ _______ _____ _____    ______ ____
ROOT
ATOM      1  N   UNL     1      -2.662   2.915   4.681  0.00  0.00    -0.227 N 
ATOM      2  C   UNL     1      -3.274   2.105   5.564  0.00  0.00    +0.230 C 
ATOM      3  O   UNL     1      -3.348   0.896   5.512  0.00  0.00    -0.275 OA
ATOM      4  C   UNL     1      -3.851   3.005   6.639  0.00  0.00    +0.138 C 
ATOM      5  C   UNL     1      -3.462   4.398   6.188  0.00  0.00    +0.042 C 
ATOM      6  C   UNL     1      -2.770   4.239   5.034  0.00  0.00    +0.102 C 
ENDROOT
BRANCH   5   7
ATOM      7  C   UNL     1      -3.771   5.659   6.861  0.00  0.00    +0.166 A 
ATOM      8  N   UNL     1      -4.473   5.656   7.999  0.00  0.00    -0.195 NA
ATOM      9  C   UNL     1      -4.747   6.803   8.610  0.00  0.00    +0.217 A 
ATOM     10  N   UNL     1      -4.333   7.953   8.086  0.00  0.00    -0.181 NA
ATOM     11  C   UNL     1      -3.639   7.960   6.952  0.00  0.00    +0.222 A 
ATOM     12  N   UNL     1      -3.357   6.817   6.338  0.00  0.00    -0.195 NA
ATOM     13  N   UNL     1      -3.212   9.157   6.412  0.00  0.00    -0.306 N 
ATOM     14  C   UNL     1      -2.448   9.165   5.162  0.00  0.00    +0.132 C 
ATOM     15  C   UNL     1      -3.524  10.418   7.089  0.00  0.00    +0.132 C 
ATOM     16  N   UNL     1      -5.467   6.800   9.788  0.00  0.00    -0.327 N 
ATOM     17  H   UNL     1      -5.670   7.638  10.234  0.00  0.00    +0.145 HD
ATOM     18  H   UNL     1      -5.769   5.962  10.171  0.00  0.00    +0.145 HD
ENDBRANCH   5   7
BRANCH   1  22
ATOM     19  C   UNL     1      -0.688   1.568   1.266  0.00  0.00    -0.045 A 
ATOM     20  C   UNL     1      -1.850   2.308   1.145  0.00  0.00    +0.006 A 
ATOM     21  C   UNL     1      -2.509   2.752   2.275  0.00  0.00    +0.024 A 
ATOM     22  C   UNL     1      -1.998   2.463   3.533  0.00  0.00    +0.042 A 
ATOM     23  C   UNL     1      -0.829   1.724   3.652  0.00  0.00    +0.024 A 
ATOM     24  C   UNL     1      -0.177   1.280   2.518  0.00  0.00    +0.006 A 
BRANCH  19  26
ATOM     25  C   UNL     1       0.431   2.279  -0.829  0.00  0.00    +0.012 C 
ATOM     26  C   UNL     1       0.025   1.081   0.032  0.00  0.00    +0.013 C 
ATOM     27  C   UNL     1      -0.906   0.169  -0.769  0.00  0.00    +0.012 C 
ENDBRANCH  19  26
ENDBRANCH   1  22
BRANCH   6  28
ATOM     28  N   UNL     1      -2.239   5.279   4.304  0.00  0.00    -0.346 N 
ATOM     29  H   UNL     1      -1.821   5.105   3.446  0.00  0.00    +0.143 HD
ATOM     30  H   UNL     1      -2.282   6.185   4.647  0.00  0.00    +0.143 HD
ENDBRANCH   6  28
TORSDOF 4
