REMARK  Name = ZINC04225087
REMARK  5 active torsions:
REMARK  status: ('A' for Active; 'I' for Inactive)
REMARK    1  A    between atoms: C_1  and  C_2
REMARK    2  A    between atoms: C_5  and  N_9
REMARK    3  A    between atoms: C_6  and  C_8
REMARK    4  A    between atoms: C_15  and  C_18
REMARK    5  A    between atoms: C_18  and  C_19
REMARK                            x       y       z     vdW  Elec       q    Type
REMARK                         _______ _______ _______ _____ _____    ______ ____
ROOT
ATOM      1  N   UNL     1       3.528   1.966  -0.021  0.00  0.00    -0.284 N 
ATOM      2  C   UNL     1       2.315   1.330  -0.012  0.00  0.00    +0.220 A 
ATOM      3  N   UNL     1       1.167   2.062   0.024  0.00  0.00    -0.292 N 
ATOM      4  H   UNL     1       1.199   3.062   0.044  0.00  0.00    +0.172 HD
ATOM      5  C   UNL     1      -0.017   1.408   0.033  0.00  0.00    +0.275 A 
ATOM      6  O   UNL     1      -1.071   2.020   0.060  0.00  0.00    -0.266 OA
ATOM      7  C   UNL     1       0.002  -0.004   0.003  0.00  0.00    +0.135 A 
ATOM      8  N   UNL     1       1.153  -0.632  -0.031  0.00  0.00    -0.145 NA
ATOM      9  N   UNL     1       2.267   0.009  -0.038  0.00  0.00    -0.114 NA
ATOM     10  H   UNL     1       3.568   2.933  -0.091  0.00  0.00    +0.155 HD
ENDROOT
BRANCH   1  15
ATOM     11  C   UNL     1       8.317  -1.052   0.342  0.00  0.00    +0.044 C 
ATOM     12  C   UNL     1       7.045  -0.250   0.246  0.00  0.00    -0.050 A 
ATOM     13  C   UNL     1       5.866  -0.763   0.755  0.00  0.00    +0.005 A 
ATOM     14  C   UNL     1       4.698  -0.031   0.668  0.00  0.00    +0.024 A 
ATOM     15  C   UNL     1       4.709   1.222   0.068  0.00  0.00    +0.037 A 
ATOM     16  C   UNL     1       5.894   1.732  -0.447  0.00  0.00    -0.029 A 
ATOM     17  C   UNL     1       7.059   0.997  -0.352  0.00  0.00    +0.008 A 
ATOM     18  C   UNL     1       5.908   3.088  -1.104  0.00  0.00    +0.045 C 
ENDBRANCH   1  15
BRANCH   7  19
ATOM     19  C   UNL     1      -1.289  -0.782   0.011  0.00  0.00    +0.137 C 
BRANCH  19  20
ATOM     20  C   UNL     1      -0.986  -2.258  -0.025  0.00  0.00    +0.111 A 
ATOM     21  C   UNL     1      -0.802  -3.050   1.047  0.00  0.00    +0.045 A 
ATOM     22  C   UNL     1      -0.547  -4.351   0.556  0.00  0.00    +0.041 A 
ATOM     23  C   UNL     1      -0.582  -4.274  -0.787  0.00  0.00    +0.195 A 
ATOM     24  O   UNL     1      -0.848  -3.004  -1.133  0.00  0.00    -0.467 OA
ENDBRANCH  19  20
ENDBRANCH   7  19
TORSDOF 3
