REMARK  Name = ZINC40801530
REMARK  7 active torsions:
REMARK  status: ('A' for Active; 'I' for Inactive)
REMARK    1  A    between atoms: N_3  and  C_6
REMARK    2  A    between atoms: C_6  and  C_7
REMARK    3  A    between atoms: C_7  and  C_8
REMARK    4  A    between atoms: C_8  and  N_9
REMARK    5  A    between atoms: C_11  and  N_28
REMARK    6  A    between atoms: C_12  and  N_16
REMARK    7  A    between atoms: C_20  and  C_23
REMARK                            x       y       z     vdW  Elec       q    Type
REMARK                         _______ _______ _______ _____ _____    ______ ____
ROOT
ATOM      1  N   UNL     1       6.075   0.589   2.771  0.00  0.00    -0.327 N 
ATOM      2  C   UNL     1       7.444   0.569   3.012  0.00  0.00    +0.145 A 
ATOM      3  C   UNL     1       7.934   0.550   4.320  0.00  0.00    +0.105 A 
ATOM      4  C   UNL     1       9.317   0.530   4.505  0.00  0.00    +0.150 A 
ATOM      5  N   UNL     1      10.111   0.531   3.437  0.00  0.00    -0.219 NA
ATOM      6  C   UNL     1       9.608   0.549   2.219  0.00  0.00    +0.225 A 
ATOM      7  N   UNL     1       8.308   0.562   2.000  0.00  0.00    -0.219 NA
ATOM      8  H   UNL     1       5.452   0.594   3.514  0.00  0.00    +0.148 HD
ENDROOT
BRANCH   4   9
ATOM      9  N   UNL     1       9.857   0.511   5.787  0.00  0.00    -0.282 N 
ATOM     10  C   UNL     1      11.238   0.491   5.959  0.00  0.00    +0.142 A 
ATOM     11  C   UNL     1      11.773   0.467   7.245  0.00  0.00    +0.081 A 
ATOM     12  C   UNL     1      13.148   0.447   7.401  0.00  0.00    +0.037 A 
ATOM     13  C   UNL     1      13.944   0.454   6.263  0.00  0.00    +0.074 A 
ATOM     14  C   UNL     1      13.346   0.479   5.019  0.00  0.00    +0.125 A 
ATOM     15  N   UNL     1      12.032   0.491   4.900  0.00  0.00    -0.238 NA
ATOM     16 CL   UNL     1      10.729   0.460   8.632  0.00  0.00    -0.080 Cl
ATOM     17  H   UNL     1       9.272   0.511   6.560  0.00  0.00    +0.155 HD
BRANCH  13  18
ATOM     18  C   UNL     1      15.446   0.434   6.385  0.00  0.00    +0.419 C 
ATOM     19  F   UNL     1      15.895  -0.890   6.404  0.00  0.00    -0.166 F 
ATOM     20  F   UNL     1      16.012   1.103   5.294  0.00  0.00    -0.166 F 
ATOM     21  F   UNL     1      15.826   1.073   7.571  0.00  0.00    -0.166 F 
ENDBRANCH  13  18
ENDBRANCH   4   9
BRANCH   3  22
ATOM     22  N   UNL     1       7.059   0.550   5.418  0.00  0.00    -0.353 N 
ATOM     23  H   UNL     1       6.100   0.564   5.274  0.00  0.00    +0.143 HD
ATOM     24  H   UNL     1       7.413   0.537   6.320  0.00  0.00    +0.143 HD
ENDBRANCH   3  22
BRANCH   1  25
ATOM     25  C   UNL     1       5.574   0.603   1.395  0.00  0.00    +0.105 C 
BRANCH  25  26
ATOM     26  C   UNL     1       4.044   0.624   1.409  0.00  0.00    +0.040 C 
BRANCH  26  27
ATOM     27  C   UNL     1       3.521   0.638  -0.028  0.00  0.00    +0.124 C 
BRANCH  27  30
ATOM     28  C   UNL     1      -0.016   1.337   0.009  0.00  0.00    +0.101 A 
ATOM     29  C   UNL     1       1.259   1.771  -0.000  0.00  0.00    +0.104 A 
ATOM     30  N   UNL     1       2.056   0.658  -0.014  0.00  0.00    -0.338 N 
ATOM     31  C   UNL     1       1.240  -0.418  -0.012  0.00  0.00    +0.173 A 
ATOM     32  N   UNL     1       0.002  -0.004   0.002  0.00  0.00    -0.352 N 
ATOM     33  H   UNL     1      -0.781  -0.576   0.007  0.00  0.00    +0.166 HD
ENDBRANCH  27  30
ENDBRANCH  26  27
ENDBRANCH  25  26
ENDBRANCH   1  25
TORSDOF 7
