REMARK  Name = ZINC00723984
REMARK  9 active torsions:
REMARK  status: ('A' for Active; 'I' for Inactive)
REMARK    1  A    between atoms: C_1  and  C_2
REMARK    2  A    between atoms: C_2  and  O_3
REMARK    3  A    between atoms: O_3  and  C_4
REMARK    4  A    between atoms: C_6  and  C_18
REMARK    5  A    between atoms: C_9  and  O_10
REMARK    6  A    between atoms: O_10  and  C_11
REMARK    7  A    between atoms: C_11  and  C_12
REMARK    8  A    between atoms: C_20  and  C_27
REMARK    9  A    between atoms: C_21  and  C_26
REMARK                            x       y       z     vdW  Elec       q    Type
REMARK                         _______ _______ _______ _____ _____    ______ ____
ROOT
ATOM      1  C   UNL     1       1.549  -0.190  -0.537  0.00  0.00    +0.139 C 
ATOM      2  C   UNL     1       2.663   0.666   0.033  0.00  0.00    +0.056 C 
ATOM      3  C   UNL     1       2.321   1.833   0.619  0.00  0.00    +0.017 C 
ATOM      4  N   UNL     1       1.016   2.228   0.695  0.00  0.00    -0.300 N 
ATOM      5  C   UNL     1      -0.006   1.512   0.209  0.00  0.00    +0.135 C 
ATOM      6  S   UNL     1      -1.596   2.127   0.366  0.00  0.00    -0.019 S 
ATOM      7  N   UNL     1       0.176   0.325  -0.403  0.00  0.00    -0.315 N 
ATOM      8  C   UNL     1       3.397   2.715   1.197  0.00  0.00    +0.061 C 
ATOM      9  H   UNL     1       0.818   3.074   1.125  0.00  0.00    +0.154 HD
ATOM     10  H   UNL     1      -0.578  -0.177  -0.748  0.00  0.00    +0.149 HD
ENDROOT
BRANCH   2  11
ATOM     11  C   UNL     1       4.015   0.256  -0.048  0.00  0.00    +0.249 C 
ATOM     12  O   UNL     1       4.606   0.310  -1.111  0.00  0.00    -0.270 OA
ATOM     13  N   UNL     1       4.649  -0.196   1.053  0.00  0.00    -0.267 N 
ATOM     14  C   UNL     1       6.010  -0.488   1.002  0.00  0.00    +0.125 A 
ATOM     15  C   UNL     1       6.613  -0.752  -0.223  0.00  0.00    +0.044 A 
ATOM     16  C   UNL     1       7.967  -1.036  -0.259  0.00  0.00    +0.005 A 
ATOM     17  C   UNL     1       8.672  -1.056   0.937  0.00  0.00    +0.020 A 
ATOM     18  C   UNL     1       8.008  -0.790   2.117  0.00  0.00    +0.113 A 
ATOM     19  N   UNL     1       6.717  -0.517   2.121  0.00  0.00    -0.240 NA
ATOM     20  H   UNL     1       4.158  -0.317   1.880  0.00  0.00    +0.157 HD
ENDBRANCH   2  11
BRANCH   1  23
ATOM     21  C   UNL     1       2.260  -3.844   0.112  0.00  0.00    +0.162 A 
ATOM     22  C   UNL     1       2.201  -2.606  -0.508  0.00  0.00    +0.055 A 
ATOM     23  C   UNL     1       1.608  -1.537   0.137  0.00  0.00    -0.019 A 
ATOM     24  C   UNL     1       1.063  -1.702   1.397  0.00  0.00    +0.009 A 
ATOM     25  C   UNL     1       1.114  -2.935   2.019  0.00  0.00    +0.050 A 
ATOM     26  C   UNL     1       1.712  -4.009   1.381  0.00  0.00    +0.162 A 
BRANCH  21  27
ATOM     27  O   UNL     1       2.849  -4.895  -0.519  0.00  0.00    -0.489 OA
BRANCH  27  29
ATOM     28  C   UNL     1       4.005  -5.941  -2.365  0.00  0.00    +0.048 C 
ATOM     29  C   UNL     1       3.390  -4.651  -1.819  0.00  0.00    +0.226 C 
ENDBRANCH  27  29
ENDBRANCH  21  27
BRANCH  26  30
ATOM     30  O   UNL     1       1.763  -5.223   1.992  0.00  0.00    -0.484 OA
BRANCH  30  31
ATOM     31  C   UNL     1       1.181  -5.319   3.293  0.00  0.00    +0.264 C 
BRANCH  31  32
ATOM     32  C   UNL     1       1.331  -6.728   3.808  0.00  0.00    -0.010 A 
ATOM     33  C   UNL     1       0.346  -7.665   3.556  0.00  0.00    +0.007 A 
ATOM     34  C   UNL     1       0.487  -8.958   4.024  0.00  0.00    +0.000 A 
ATOM     35  C   UNL     1       1.608  -9.311   4.753  0.00  0.00    +0.000 A 
ATOM     36  C   UNL     1       2.590  -8.373   5.009  0.00  0.00    +0.000 A 
ATOM     37  C   UNL     1       2.452  -7.081   4.536  0.00  0.00    +0.007 A 
ENDBRANCH  31  32
ENDBRANCH  30  31
ENDBRANCH  26  30
ENDBRANCH   1  23
TORSDOF 7
