REMARK  Name = ZINC12782639
REMARK  8 active torsions:
REMARK  status: ('A' for Active; 'I' for Inactive)
REMARK    1  A    between atoms: C_1  and  C_2
REMARK    2  A    between atoms: C_5  and  C_8
REMARK    3  A    between atoms: C_9  and  C_30
REMARK    4  A    between atoms: C_17  and  C_19
REMARK    5  A    between atoms: C_19  and  N_20
REMARK    6  A    between atoms: N_20  and  C_21
REMARK    7  A    between atoms: C_21  and  C_22
REMARK    8  A    between atoms: C_21  and  C_23
REMARK                            x       y       z     vdW  Elec       q    Type
REMARK                         _______ _______ _______ _____ _____    ______ ____
ROOT
ATOM      1  C   UNL     1       0.060  -4.255  -0.021  0.00  0.00    +0.007 A 
ATOM      2  C   UNL     1      -0.988  -4.956  -0.517  0.00  0.00    -0.003 A 
ATOM      3  S   UNL     1      -0.486  -6.653  -0.304  0.00  0.00    -0.073 S 
ATOM      4  C   UNL     1       1.102  -6.384   0.439  0.00  0.00    +0.116 A 
ATOM      5  C   UNL     1       1.209  -4.985   0.499  0.00  0.00    +0.080 A 
ATOM      6  C   UNL     1       2.424  -4.480   1.063  0.00  0.00    +0.260 A 
ATOM      7  O   UNL     1       2.607  -3.279   1.162  0.00  0.00    -0.267 OA
ATOM      8  N   UNL     1       3.360  -5.351   1.484  0.00  0.00    -0.309 N 
ATOM      9  H   UNL     1       4.184  -5.014   1.868  0.00  0.00    +0.170 HD
ATOM     10  C   UNL     1       3.171  -6.692   1.383  0.00  0.00    +0.125 A 
ATOM     11  N   UNL     1       2.070  -7.183   0.881  0.00  0.00    -0.225 NA
ATOM     12  C   UNL     1      -2.270  -4.428  -1.108  0.00  0.00    +0.052 C 
ENDROOT
BRANCH   1  17
ATOM     13  C   UNL     1      -0.018   1.503   0.010  0.00  0.00    +0.044 C 
ATOM     14  C   UNL     1       0.002  -0.004   0.002  0.00  0.00    -0.050 A 
ATOM     15  C   UNL     1       0.006  -0.686  -1.201  0.00  0.00    +0.004 A 
ATOM     16  C   UNL     1       0.024  -2.066  -1.215  0.00  0.00    +0.009 A 
ATOM     17  C   UNL     1       0.040  -2.772  -0.013  0.00  0.00    -0.016 A 
ATOM     18  C   UNL     1       0.037  -2.079   1.196  0.00  0.00    +0.009 A 
ATOM     19  C   UNL     1       0.023  -0.699   1.198  0.00  0.00    +0.004 A 
ENDBRANCH   1  17
BRANCH  10  20
ATOM     20  C   UNL     1       4.247  -7.629   1.867  0.00  0.00    +0.156 C 
BRANCH  20  21
ATOM     21  N   UNL     1       3.818  -9.018   1.655  0.00  0.00    -0.303 NA
ATOM     22  H   UNL     1       2.934  -9.197   2.105  0.00  0.00    +0.123 HD
BRANCH  21  23
ATOM     23  C   UNL     1       4.845  -9.963   2.116  0.00  0.00    +0.081 C 
ATOM     24  C   UNL     1       4.673 -10.209   3.617  0.00  0.00    +0.029 C 
BRANCH  23  25
ATOM     25  C   UNL     1       4.699 -11.266   1.374  0.00  0.00    -0.031 A 
ATOM     26  C   UNL     1       3.440 -11.771   1.107  0.00  0.00    +0.008 A 
ATOM     27  C   UNL     1       3.305 -12.966   0.425  0.00  0.00    +0.038 A 
ATOM     28  C   UNL     1       4.431 -13.657   0.010  0.00  0.00    +0.123 A 
ATOM     29  C   UNL     1       5.691 -13.149   0.278  0.00  0.00    +0.038 A 
ATOM     30  C   UNL     1       5.824 -11.952   0.955  0.00  0.00    +0.008 A 
ATOM     31  F   UNL     1       4.301 -14.825  -0.656  0.00  0.00    -0.205 F 
ENDBRANCH  23  25
ENDBRANCH  21  23
ENDBRANCH  20  21
ENDBRANCH  10  20
TORSDOF 5
