REMARK  Name = ZINC56102312
REMARK  8 active torsions:
REMARK  status: ('A' for Active; 'I' for Inactive)
REMARK    1  A    between atoms: C_1  and  C_2
REMARK    2  A    between atoms: C_2  and  N_3
REMARK    3  A    between atoms: C_9  and  C_15
REMARK    4  A    between atoms: N_17  and  C_18
REMARK    5  A    between atoms: C_18  and  C_19
REMARK    6  A    between atoms: C_19  and  C_21
REMARK    7  A    between atoms: C_19  and  C_22
REMARK    8  A    between atoms: C_22  and  N_23
REMARK                            x       y       z     vdW  Elec       q    Type
REMARK                         _______ _______ _______ _____ _____    ______ ____
ROOT
ATOM      1  C   UNL     1      -7.316  -2.812  -0.458  0.00  0.00    +0.244 C 
ATOM      2  O   UNL     1      -7.470  -3.178  -1.606  0.00  0.00    -0.270 OA
ATOM      3  N   UNL     1      -8.305  -2.979   0.442  0.00  0.00    -0.311 N 
ATOM      4  H   UNL     1      -8.182  -2.687   1.358  0.00  0.00    +0.149 HD
ENDROOT
BRANCH   1  11
ATOM      5  N   UNL     1      -1.472  -0.335  -0.127  0.00  0.00    -0.168 N 
ATOM      6  C   UNL     1      -2.297  -0.393   0.929  0.00  0.00    +0.268 C 
ATOM      7  O   UNL     1      -1.953   0.034   2.014  0.00  0.00    -0.268 OA
ATOM      8  C   UNL     1      -3.629  -0.988   0.738  0.00  0.00    +0.065 A 
ATOM      9  C   UNL     1      -4.674  -1.172   1.660  0.00  0.00    +0.016 A 
ATOM     10  C   UNL     1      -5.855  -1.758   1.270  0.00  0.00    +0.014 A 
ATOM     11  C   UNL     1      -6.041  -2.182  -0.047  0.00  0.00    +0.039 A 
ATOM     12  C   UNL     1      -5.008  -2.004  -0.974  0.00  0.00    +0.042 A 
ATOM     13  C   UNL     1      -3.839  -1.421  -0.578  0.00  0.00    +0.122 A 
ATOM     14  S   UNL     1      -2.323  -1.011  -1.398  0.00  0.00    +0.078 S 
ATOM     15  O   UNL     1      -2.600   0.024  -2.331  0.00  0.00    -0.150 OA
ATOM     16  O   UNL     1      -1.680  -2.229  -1.749  0.00  0.00    -0.150 OA
BRANCH   5  18
ATOM     17  C   UNL     1      -0.176   1.723  -0.384  0.00  0.00    +0.026 C 
ATOM     18  C   UNL     1      -0.113   0.211  -0.161  0.00  0.00    +0.131 C 
ENDBRANCH   5  18
ENDBRANCH   1  11
BRANCH   3  19
ATOM     19  C   UNL     1      -9.567  -3.603   0.035  0.00  0.00    +0.106 C 
BRANCH  19  20
ATOM     20  C   UNL     1     -10.511  -3.673   1.237  0.00  0.00    -0.014 C 
ATOM     21  C   UNL     1      -9.921  -4.606   2.296  0.00  0.00    +0.007 C 
BRANCH  20  22
ATOM     22  C   UNL     1     -11.872  -4.209   0.786  0.00  0.00    -0.074 C 
BRANCH  22  23
ATOM     23  N   UNL     1     -12.813  -4.167   1.913  0.00  0.00    +0.380 N 
ATOM     24  C   UNL     1     -14.068  -4.821   1.525  0.00  0.00    -0.079 C 
ATOM     25  C   UNL     1     -15.023  -4.851   2.720  0.00  0.00    -0.019 C 
ATOM     26  C   UNL     1     -15.312  -3.417   3.172  0.00  0.00    -0.004 C 
ATOM     27  C   UNL     1     -13.989  -2.720   3.504  0.00  0.00    -0.019 C 
ATOM     28  C   UNL     1     -13.072  -2.769   2.279  0.00  0.00    -0.079 C 
ATOM     29  H   UNL     1     -12.413  -4.652   2.702  0.00  0.00    -0.082 HD
ENDBRANCH  22  23
ENDBRANCH  20  22
ENDBRANCH  19  20
ENDBRANCH   3  19
TORSDOF 6
