REMARK  Name = ZINC47959406
REMARK  7 active torsions:
REMARK  status: ('A' for Active; 'I' for Inactive)
REMARK    1  A    between atoms: C_1  and  C_2
REMARK    2  A    between atoms: C_2  and  C_4
REMARK    3  A    between atoms: C_2  and  N_14
REMARK    4  A    between atoms: N_17  and  C_18
REMARK    5  A    between atoms: C_18  and  C_19
REMARK    6  A    between atoms: N_25  and  C_26
REMARK    7  A    between atoms: N_25  and  C_27
REMARK                            x       y       z     vdW  Elec       q    Type
REMARK                         _______ _______ _______ _____ _____    ______ ____
ROOT
ATOM      1  N   UNL     1       0.751  -0.812  -1.091  0.00  0.00    -0.293 N 
ATOM      2  C   UNL     1       0.047  -0.811  -2.240  0.00  0.00    +0.300 C 
ATOM      3  O   UNL     1      -1.061  -0.313  -2.275  0.00  0.00    -0.253 OA
ATOM      4  N   UNL     1       0.573  -1.364  -3.352  0.00  0.00    -0.295 N 
ATOM      5  H   UNL     1       1.635  -1.209  -1.063  0.00  0.00    +0.151 HD
ATOM      6  H   UNL     1       1.457  -1.762  -3.324  0.00  0.00    +0.151 HD
ENDROOT
BRANCH   1   8
ATOM      7  C   UNL     1       0.501   1.285   0.144  0.00  0.00    +0.033 C 
ATOM      8  C   UNL     1       0.179  -0.211   0.118  0.00  0.00    +0.102 C 
BRANCH   8   9
ATOM      9  C   UNL     1       0.770  -0.874   1.335  0.00  0.00    -0.020 A 
ATOM     10  C   UNL     1       2.011  -1.431   1.277  0.00  0.00    +0.006 A 
ATOM     11  C   UNL     1       2.573  -2.048   2.393  0.00  0.00    +0.001 A 
ATOM     12  C   UNL     1       1.899  -2.111   3.573  0.00  0.00    +0.008 A 
ATOM     13  C   UNL     1       0.616  -1.547   3.672  0.00  0.00    -0.018 A 
ATOM     14  C   UNL     1       0.046  -0.914   2.539  0.00  0.00    -0.013 A 
ATOM     15  C   UNL     1      -1.235  -0.344   2.639  0.00  0.00    +0.009 A 
ATOM     16  C   UNL     1      -1.907  -0.403   3.821  0.00  0.00    +0.001 A 
ATOM     17  C   UNL     1      -1.344  -1.020   4.937  0.00  0.00    +0.001 A 
ATOM     18  C   UNL     1      -0.112  -1.593   4.873  0.00  0.00    +0.008 A 
ENDBRANCH   8   9
ENDBRANCH   1   8
BRANCH   4  19
ATOM     19  C   UNL     1      -0.192  -1.364  -4.601  0.00  0.00    +0.141 C 
BRANCH  19  20
ATOM     20  C   UNL     1       0.614  -2.037  -5.683  0.00  0.00    -0.026 A 
ATOM     21  C   UNL     1       1.480  -1.303  -6.484  0.00  0.00    +0.023 A 
ATOM     22  C   UNL     1       2.203  -1.949  -7.465  0.00  0.00    +0.084 A 
ATOM     23  N   UNL     1       2.082  -3.250  -7.650  0.00  0.00    -0.350 N 
ATOM     24  C   UNL     1       1.267  -3.984  -6.908  0.00  0.00    +0.098 A 
ATOM     25  C   UNL     1       0.512  -3.399  -5.897  0.00  0.00    +0.047 A 
ATOM     26  N   UNL     1       1.170  -5.351  -7.138  0.00  0.00    -0.323 N 
ATOM     27  C   UNL     1       2.030  -5.989  -8.139  0.00  0.00    +0.130 C 
ATOM     28  C   UNL     1       0.209  -6.155  -6.380  0.00  0.00    +0.130 C 
ATOM     29  H   UNL     1       2.603  -3.679  -8.347  0.00  0.00    +0.166 HD
ENDBRANCH  19  20
ENDBRANCH   4  19
TORSDOF 4
