REMARK  Name = ZINC64354565
REMARK  5 active torsions:
REMARK  status: ('A' for Active; 'I' for Inactive)
REMARK    1  A    between atoms: C_3  and  N_14
REMARK    2  A    between atoms: C_4  and  N_11
REMARK    3  A    between atoms: C_6  and  C_7
REMARK    4  A    between atoms: N_14  and  N_15
REMARK    5  A    between atoms: C_16  and  C_18
REMARK                            x       y       z     vdW  Elec       q    Type
REMARK                         _______ _______ _______ _____ _____    ______ ____
ROOT
ATOM      1  N   UNL     1       3.591   2.102  -0.128  0.00  0.00    -0.262 N 
ATOM      2  H   UNL     1       4.434   1.625  -0.066  0.00  0.00    +0.170 HD
ENDROOT
BRANCH   1   5
ATOM      3  C   UNL     1      -0.008   1.364  -0.206  0.00  0.00    +0.014 A 
ATOM      4  C   UNL     1       1.182   2.062  -0.267  0.00  0.00    +0.027 A 
ATOM      5  C   UNL     1       2.386   1.399  -0.066  0.00  0.00    +0.075 A 
ATOM      6  C   UNL     1       2.388   0.034   0.196  0.00  0.00    +0.149 A 
ATOM      7  C   UNL     1       1.194  -0.658   0.256  0.00  0.00    +0.047 A 
ATOM      8  C   UNL     1      -0.002   0.006   0.055  0.00  0.00    +0.057 A 
BRANCH   8   9
ATOM      9  C   UNL     1      -1.303  -0.752   0.122  0.00  0.00    +0.417 C 
ATOM     10  F   UNL     1      -2.367   0.125  -0.111  0.00  0.00    -0.166 F 
ATOM     11  F   UNL     1      -1.306  -1.758  -0.851  0.00  0.00    -0.166 F 
ATOM     12  F   UNL     1      -1.442  -1.329   1.389  0.00  0.00    -0.166 F 
ENDBRANCH   8   9
BRANCH   6  13
ATOM     13  N   UNL     1       3.668  -0.677   0.410  0.00  0.00    +0.058 N 
ATOM     14  O   UNL     1       3.816  -1.799  -0.017  0.00  0.00    -0.126 OA
ATOM     15  O   UNL     1       4.567  -0.136   1.011  0.00  0.00    -0.126 OA
ENDBRANCH   6  13
ENDBRANCH   1   5
BRANCH   1  16
ATOM     16  N   UNL     1       3.583   3.494  -0.280  0.00  0.00    -0.232 N 
ATOM     17  C   UNL     1       4.746   4.173  -0.339  0.00  0.00    +0.262 C 
ATOM     18  O   UNL     1       5.803   3.575  -0.262  0.00  0.00    -0.269 OA
ATOM     19  H   UNL     1       2.740   3.970  -0.342  0.00  0.00    +0.173 HD
BRANCH  17  20
ATOM     20  C   UNL     1       4.737   5.633  -0.498  0.00  0.00    +0.063 A 
ATOM     21  C   UNL     1       3.640   6.437  -0.593  0.00  0.00    +0.096 A 
ATOM     22  N   UNL     1       4.028   7.728  -0.731  0.00  0.00    -0.360 N 
ATOM     23  H   UNL     1       3.424   8.482  -0.817  0.00  0.00    +0.165 HD
ATOM     24  C   UNL     1       5.405   7.819  -0.731  0.00  0.00    +0.049 A 
ATOM     25  C   UNL     1       5.913   6.519  -0.581  0.00  0.00    +0.012 A 
ATOM     26  C   UNL     1       7.289   6.306  -0.541  0.00  0.00    +0.012 A 
ATOM     27  C   UNL     1       8.148   7.378  -0.648  0.00  0.00    +0.021 A 
ATOM     28  C   UNL     1       7.648   8.665  -0.793  0.00  0.00    +0.043 A 
ATOM     29  C   UNL     1       6.288   8.888  -0.841  0.00  0.00    +0.046 A 
ATOM     30 CL   UNL     1       8.745  10.004  -0.925  0.00  0.00    -0.083 Cl
ENDBRANCH  17  20
ENDBRANCH   1  16
TORSDOF 5
