REMARK  Name = ZINC36601158
REMARK  12 active torsions:
REMARK  status: ('A' for Active; 'I' for Inactive)
REMARK    1  A    between atoms: C_1  and  C_2
REMARK    2  A    between atoms: C_5  and  C_7
REMARK    3  A    between atoms: C_7  and  N_8
REMARK    4  A    between atoms: N_8  and  C_9
REMARK    5  A    between atoms: C_9  and  C_11
REMARK    6  A    between atoms: C_9  and  C_21
REMARK    7  A    between atoms: C_13  and  N_18
REMARK    8  A    between atoms: N_23  and  C_24
REMARK    9  A    between atoms: C_24  and  C_25
REMARK   10  A    between atoms: C_24  and  C_26
REMARK   11  A    between atoms: C_24  and  C_27
REMARK   12  A    between atoms: C_28  and  C_30
REMARK                            x       y       z     vdW  Elec       q    Type
REMARK                         _______ _______ _______ _____ _____    ______ ____
ROOT
ATOM      1  C   UNL     1       3.111  -3.085  -2.228  0.00  0.00    +0.194 C 
ENDROOT
BRANCH   1   2
ATOM      2  C   UNL     1       4.094  -4.186  -2.530  0.00  0.00    +0.002 A 
ATOM      3  C   UNL     1       4.208  -4.677  -3.817  0.00  0.00    +0.040 A 
ATOM      4  C   UNL     1       5.110  -5.687  -4.094  0.00  0.00    +0.127 A 
ATOM      5  C   UNL     1       5.899  -6.206  -3.084  0.00  0.00    +0.034 A 
ATOM      6  C   UNL     1       5.787  -5.715  -1.798  0.00  0.00    +0.022 A 
ATOM      7  C   UNL     1       4.888  -4.700  -1.521  0.00  0.00    +0.047 A 
ATOM      8 CL   UNL     1       4.752  -4.078   0.094  0.00  0.00    -0.083 Cl
BRANCH   4   9
ATOM      9  N   UNL     1       5.230  -6.214  -5.472  0.00  0.00    +0.056 N 
ATOM     10  O   UNL     1       4.540  -5.760  -6.355  0.00  0.00    -0.126 OA
ATOM     11  O   UNL     1       6.019  -7.097  -5.715  0.00  0.00    -0.126 OA
ENDBRANCH   4   9
ENDBRANCH   1   2
BRANCH   1  12
ATOM     12  C   UNL     1       2.695  -2.416  -3.513  0.00  0.00    +0.239 C 
ATOM     13  O   UNL     1       1.528  -2.413  -3.845  0.00  0.00    -0.273 OA
ATOM     14  N   UNL     1       3.619  -1.822  -4.293  0.00  0.00    -0.309 N 
ATOM     15  H   UNL     1       4.552  -1.824  -4.028  0.00  0.00    +0.149 HD
BRANCH  14  16
ATOM     16  C   UNL     1       3.215  -1.172  -5.542  0.00  0.00    +0.026 C 
ATOM     17  C   UNL     1       2.216  -0.054  -5.236  0.00  0.00    +0.031 C 
ATOM     18  C   UNL     1       4.446  -0.580  -6.231  0.00  0.00    +0.031 C 
ATOM     19  C   UNL     1       2.560  -2.202  -6.465  0.00  0.00    +0.031 C 
ENDBRANCH  14  16
ENDBRANCH   1  12
BRANCH   1  20
ATOM     20  N   UNL     1       1.931  -3.651  -1.568  0.00  0.00    -0.277 N 
ATOM     21  C   UNL     1       1.189  -4.583  -2.198  0.00  0.00    +0.237 C 
ATOM     22  O   UNL     1       1.545  -5.016  -3.274  0.00  0.00    -0.274 OA
BRANCH  21  23
ATOM     23  C   UNL     1      -0.082  -5.089  -1.565  0.00  0.00    +0.159 C 
ATOM     24  C   UNL     1       0.240  -6.168  -0.509  0.00  0.00    +0.041 C 
ATOM     25  C   UNL     1       0.110  -7.468  -1.336  0.00  0.00    +0.098 C 
ATOM     26  C   UNL     1      -0.824  -7.096  -2.467  0.00  0.00    +0.214 C 
ATOM     27  O   UNL     1      -1.404  -7.889  -3.177  0.00  0.00    -0.276 OA
ATOM     28  N   UNL     1      -0.917  -5.757  -2.569  0.00  0.00    -0.304 N 
ATOM     29  H   UNL     1      -1.466  -5.294  -3.221  0.00  0.00    +0.149 HD
ENDBRANCH  21  23
BRANCH  20  30
ATOM     30  C   UNL     1       1.559  -3.204  -0.224  0.00  0.00    +0.183 C 
BRANCH  30  35
ATOM     31  C   UNL     1      -0.120   1.542  -0.533  0.00  0.00    +0.086 C 
ATOM     32  C   UNL     1      -0.107   0.037  -0.462  0.00  0.00    +0.102 A 
ATOM     33  C   UNL     1      -1.189  -0.761  -0.478  0.00  0.00    +0.045 A 
ATOM     34  C   UNL     1      -0.719  -2.091  -0.392  0.00  0.00    +0.046 A 
ATOM     35  C   UNL     1       0.624  -2.026  -0.327  0.00  0.00    +0.122 A 
ATOM     36  O   UNL     1       0.989  -0.735  -0.376  0.00  0.00    -0.463 OA
ENDBRANCH  30  35
ENDBRANCH  20  30
ENDBRANCH   1  20
TORSDOF 8
