REMARK  Name = ZINC19207779
REMARK  2 active torsions:
REMARK  status: ('A' for Active; 'I' for Inactive)
REMARK    1  A    between atoms: C_6  and  N_7
REMARK    2  A    between atoms: C_8  and  C_10
REMARK                            x       y       z     vdW  Elec       q    Type
REMARK                         _______ _______ _______ _____ _____    ______ ____
ROOT
ATOM      1  C   UNL     1       0.081  -2.804  -0.206  0.00  0.00    +0.027 A 
ATOM      2  C   UNL     1       0.148  -4.181  -0.306  0.00  0.00    +0.051 A 
ATOM      3  C   UNL     1       1.377  -4.819  -0.313  0.00  0.00    +0.173 A 
ATOM      4  C   UNL     1       2.549  -4.072  -0.220  0.00  0.00    +0.174 A 
ATOM      5  C   UNL     1       2.482  -2.692  -0.126  0.00  0.00    +0.073 A 
ATOM      6  C   UNL     1       1.247  -2.057  -0.113  0.00  0.00    +0.037 A 
ATOM      7  O   UNL     1       3.615  -4.925  -0.249  0.00  0.00    -0.395 OA
ATOM      8  C   UNL     1       3.101  -6.164  -0.771  0.00  0.00    +0.589 C 
ATOM      9  O   UNL     1       1.710  -6.141  -0.401  0.00  0.00    -0.395 OA
ATOM     10  F   UNL     1       3.238  -6.205  -2.163  0.00  0.00    -0.125 F 
ATOM     11  F   UNL     1       3.752  -7.253  -0.182  0.00  0.00    -0.125 F 
ENDROOT
BRANCH   6  12
ATOM     12  N   UNL     1       1.178  -0.662  -0.012  0.00  0.00    -0.279 N 
ATOM     13  C   UNL     1       2.099   0.008   0.709  0.00  0.00    +0.284 C 
ATOM     14  O   UNL     1       2.933  -0.604   1.351  0.00  0.00    -0.266 OA
ATOM     15  H   UNL     1       0.373  -0.113  -0.522  0.00  0.00    +0.155 HD
BRANCH  13  16
ATOM     16  C   UNL     1       2.096   1.473   0.721  0.00  0.00    +0.191 A 
ATOM     17  C   UNL     1       2.965   2.272   1.409  0.00  0.00    +0.056 A 
ATOM     18  C   UNL     1       2.599   3.598   1.133  0.00  0.00    +0.058 A 
ATOM     19  C   UNL     1       1.532   3.552   0.303  0.00  0.00    +0.171 A 
ATOM     20  O   UNL     1       1.232   2.270   0.058  0.00  0.00    -0.444 OA
ATOM     21 BR   UNL     1       0.614   5.051  -0.395  0.00  0.00    -0.008 Br
ENDBRANCH  13  16
ENDBRANCH   6  12
TORSDOF 2
