REMARK  Name = ZINC67042794
REMARK  10 active torsions:
REMARK  status: ('A' for Active; 'I' for Inactive)
REMARK    1  A    between atoms: C_1  and  C_2
REMARK    2  A    between atoms: C_2  and  C_3
REMARK    3  A    between atoms: C_2  and  C_4
REMARK    4  A    between atoms: C_4  and  C_6
REMARK    5  A    between atoms: C_4  and  N_22
REMARK    6  A    between atoms: C_6  and  N_7
REMARK    7  A    between atoms: N_10  and  N_11
REMARK    8  A    between atoms: C_12  and  C_14
REMARK    9  A    between atoms: C_14  and  C_15
REMARK   10  A    between atoms: C_15  and  C_16
REMARK                            x       y       z     vdW  Elec       q    Type
REMARK                         _______ _______ _______ _____ _____    ______ ____
ROOT
ATOM      1  N   UNL     1      -2.310  -2.812   0.025  0.00  0.00    -0.297 N 
ATOM      2  C   UNL     1      -2.279  -4.152   0.166  0.00  0.00    +0.316 C 
ATOM      3  O   UNL     1      -1.241  -4.707   0.472  0.00  0.00    -0.251 OA
ATOM      4  N   UNL     1      -3.398  -4.877  -0.030  0.00  0.00    -0.218 N 
ATOM      5  H   UNL     1      -3.138  -2.369  -0.219  0.00  0.00    +0.150 HD
ATOM      6  H   UNL     1      -3.376  -5.841   0.072  0.00  0.00    +0.174 HD
ENDROOT
BRANCH   4   7
ATOM      7  N   UNL     1      -4.594  -4.237  -0.382  0.00  0.00    -0.233 N 
ATOM      8  C   UNL     1      -5.713  -4.962  -0.578  0.00  0.00    +0.229 C 
ATOM      9  O   UNL     1      -5.685  -6.168  -0.451  0.00  0.00    -0.274 OA
ATOM     10  H   UNL     1      -4.616  -3.273  -0.484  0.00  0.00    +0.173 HD
BRANCH   8  11
ATOM     11  C   UNL     1      -7.000  -4.274  -0.957  0.00  0.00    +0.097 C 
BRANCH  11  12
ATOM     12  C   UNL     1      -8.107  -5.317  -1.118  0.00  0.00    +0.013 C 
BRANCH  12  13
ATOM     13  C   UNL     1      -9.413  -4.618  -1.502  0.00  0.00    -0.011 C 
ATOM     14  C   UNL     1      -9.260  -3.973  -2.881  0.00  0.00    +0.003 C 
ATOM     15  C   UNL     1     -10.566  -3.275  -3.265  0.00  0.00    +0.000 C 
ATOM     16  C   UNL     1     -11.700  -4.300  -3.305  0.00  0.00    +0.000 C 
ATOM     17  C   UNL     1     -11.854  -4.946  -1.926  0.00  0.00    +0.000 C 
ATOM     18  C   UNL     1     -10.548  -5.644  -1.542  0.00  0.00    +0.003 C 
ENDBRANCH  12  13
ENDBRANCH  11  12
ENDBRANCH   8  11
ENDBRANCH   4   7
BRANCH   1  19
ATOM     19  C   UNL     1      -1.093  -2.024   0.238  0.00  0.00    +0.125 C 
BRANCH  19  20
ATOM     20  C   UNL     1      -1.383  -0.550  -0.052  0.00  0.00    +0.076 C 
BRANCH  20  21
ATOM     21  N   UNL     1      -1.954  -0.420  -1.399  0.00  0.00    -0.293 NA
ATOM     22  C   UNL     1      -0.905  -0.491  -2.426  0.00  0.00    +0.113 C 
ATOM     23  C   UNL     1      -1.549  -0.411  -3.813  0.00  0.00    +0.175 C 
ATOM     24  O   UNL     1      -2.318   0.791  -3.907  0.00  0.00    -0.377 OA
ATOM     25  C   UNL     1      -3.349   0.893  -2.922  0.00  0.00    +0.175 C 
ATOM     26  C   UNL     1      -2.724   0.826  -1.526  0.00  0.00    +0.113 C 
ENDBRANCH  20  21
BRANCH  20  28
ATOM     27  C   UNL     1      -0.390   1.741  -0.124  0.00  0.00    +0.009 C 
ATOM     28  C   UNL     1      -0.081   0.250   0.029  0.00  0.00    +0.001 C 
ATOM     29  C   UNL     1       0.585   0.004   1.384  0.00  0.00    +0.009 C 
ENDBRANCH  20  28
ENDBRANCH  19  20
ENDBRANCH   1  19
TORSDOF 8
