REMARK  Name = ZINC61564782
REMARK  6 active torsions:
REMARK  status: ('A' for Active; 'I' for Inactive)
REMARK    1  A    between atoms: C_2  and  C_19
REMARK    2  A    between atoms: C_3  and  N_9
REMARK    3  A    between atoms: N_12  and  C_13
REMARK    4  A    between atoms: C_13  and  C_14
REMARK    5  A    between atoms: C_14  and  S_15
REMARK    6  A    between atoms: S_15  and  N_18
REMARK                            x       y       z     vdW  Elec       q    Type
REMARK                         _______ _______ _______ _____ _____    ______ ____
ROOT
ATOM      1  N   UNL     1       3.579   2.052  -0.009  0.00  0.00    -0.269 N 
ATOM      2  C   UNL     1       4.733   1.363  -0.109  0.00  0.00    +0.304 C 
ATOM      3  O   UNL     1       4.709   0.160  -0.287  0.00  0.00    -0.253 OA
ATOM      4  N   UNL     1       5.913   2.007  -0.011  0.00  0.00    -0.298 N 
ATOM      5  H   UNL     1       3.596   3.019   0.056  0.00  0.00    +0.156 HD
ATOM      6  H   UNL     1       5.931   2.966   0.131  0.00  0.00    +0.150 HD
ENDROOT
BRANCH   1   9
ATOM      7  C   UNL     1       0.014   1.255  -0.591  0.00  0.00    +0.058 A 
ATOM      8  C   UNL     1       1.232   1.946  -0.607  0.00  0.00    +0.087 A 
ATOM      9  C   UNL     1       2.362   1.375   0.001  0.00  0.00    +0.052 A 
ATOM     10  C   UNL     1       2.261   0.133   0.611  0.00  0.00    +0.065 A 
ATOM     11  C   UNL     1       1.053  -0.539   0.620  0.00  0.00    +0.160 A 
ATOM     12  C   UNL     1      -0.069   0.023   0.019  0.00  0.00    +0.159 A 
ATOM     13  F   UNL     1      -1.245  -0.642   0.035  0.00  0.00    -0.202 F 
ATOM     14  F   UNL     1       0.961  -1.748   1.215  0.00  0.00    -0.202 F 
BRANCH   8  15
ATOM     15  C   UNL     1       1.327   3.261  -1.257  0.00  0.00    +0.388 C 
ATOM     16  O   UNL     1       0.367   3.714  -1.864  0.00  0.00    -0.241 OA
ATOM     17  O   UNL     1       2.368   3.901  -1.191  0.00  0.00    -0.241 OA
ENDBRANCH   8  15
ENDBRANCH   1   9
BRANCH   4  18
ATOM     18  C   UNL     1       7.167   1.258  -0.119  0.00  0.00    +0.130 C 
BRANCH  18  19
ATOM     19  C   UNL     1       8.349   2.218   0.025  0.00  0.00    +0.203 C 
BRANCH  19  20
ATOM     20  S   UNL     1       9.902   1.291  -0.109  0.00  0.00    +0.028 S 
ATOM     21  O   UNL     1      10.058   0.432   1.012  0.00  0.00    -0.158 OA
ATOM     22  O   UNL     1      10.063   0.793  -1.431  0.00  0.00    -0.158 OA
BRANCH  20  23
ATOM     23  N   UNL     1      11.093   2.429   0.062  0.00  0.00    -0.208 NA
ATOM     24  H   UNL     1      10.859   3.360   0.199  0.00  0.00    +0.144 HD
ATOM     25  H   UNL     1      12.026   2.164   0.024  0.00  0.00    +0.144 HD
ENDBRANCH  20  23
ENDBRANCH  19  20
ENDBRANCH  18  19
ENDBRANCH   4  18
TORSDOF 6
