REMARK  Name = ZINC12932018
REMARK  7 active torsions:
REMARK  status: ('A' for Active; 'I' for Inactive)
REMARK    1  A    between atoms: C_1  and  C_2
REMARK    2  A    between atoms: C_5  and  N_11
REMARK    3  A    between atoms: C_6  and  N_8
REMARK    4  A    between atoms: C_12  and  C_14
REMARK    5  A    between atoms: C_14  and  O_15
REMARK    6  A    between atoms: O_15  and  C_16
REMARK    7  A    between atoms: C_16  and  C_18
REMARK                            x       y       z     vdW  Elec       q    Type
REMARK                         _______ _______ _______ _____ _____    ______ ____
ROOT
ATOM      1  O   UNL     1       0.995   3.538   0.014  0.00  0.00    -0.455 OA
ENDROOT
BRANCH   1   2
ATOM      2  C   UNL     1       2.048   4.370   0.016  0.00  0.00    +0.316 C 
ATOM      3  O   UNL     1       3.171   3.923   0.013  0.00  0.00    -0.250 OA
BRANCH   2   4
ATOM      4  C   UNL     1       1.831   5.861   0.021  0.00  0.00    +0.138 C 
ATOM      5  C   UNL     1       1.043   6.264  -1.226  0.00  0.00    +0.115 C 
ATOM      6  C   UNL     1       1.921   6.143  -2.444  0.00  0.00    +0.218 C 
ATOM      7  O   UNL     1       1.450   5.741  -3.486  0.00  0.00    -0.275 OA
ATOM      8  N   UNL     1       3.221   6.479  -2.385  0.00  0.00    -0.285 N 
ATOM      9  C   UNL     1       3.812   6.838  -1.171  0.00  0.00    +0.040 A 
ATOM     10  C   UNL     1       3.165   6.562   0.027  0.00  0.00    -0.012 A 
ATOM     11  C   UNL     1       3.744   6.932   1.226  0.00  0.00    +0.009 A 
ATOM     12  C   UNL     1       4.976   7.558   1.237  0.00  0.00    +0.039 A 
ATOM     13  C   UNL     1       5.637   7.811   0.046  0.00  0.00    +0.125 A 
ATOM     14  C   UNL     1       5.059   7.448  -1.157  0.00  0.00    +0.062 A 
ATOM     15  F   UNL     1       6.846   8.414   0.060  0.00  0.00    -0.205 F 
ATOM     16  H   UNL     1       3.756   6.471  -3.195  0.00  0.00    +0.155 HD
ENDBRANCH   2   4
ENDBRANCH   1   2
BRANCH   1  17
ATOM     17  C   UNL     1       1.279   2.114   0.009  0.00  0.00    +0.328 C 
BRANCH  17  19
ATOM     18  N   UNL     1       0.003  -0.005   0.004  0.00  0.00    -0.281 N 
ATOM     19  C   UNL     1      -0.015   1.343   0.008  0.00  0.00    +0.255 C 
ATOM     20  O   UNL     1      -1.074   1.935   0.006  0.00  0.00    -0.272 OA
ATOM     21  H   UNL     1       0.845  -0.478  -0.077  0.00  0.00    +0.155 HD
BRANCH  18  26
ATOM     22  C   UNL     1      -4.850  -2.908   0.457  0.00  0.00    +0.044 C 
ATOM     23  C   UNL     1      -3.561  -2.137   0.337  0.00  0.00    -0.048 A 
ATOM     24  C   UNL     1      -3.475  -0.853   0.845  0.00  0.00    +0.005 A 
ATOM     25  C   UNL     1      -2.295  -0.144   0.736  0.00  0.00    +0.026 A 
ATOM     26  C   UNL     1      -1.194  -0.721   0.116  0.00  0.00    +0.064 A 
ATOM     27  C   UNL     1      -1.286  -2.008  -0.397  0.00  0.00    +0.148 A 
ATOM     28  C   UNL     1      -2.467  -2.714  -0.280  0.00  0.00    +0.038 A 
BRANCH  27  29
ATOM     29  N   UNL     1      -0.117  -2.625  -1.063  0.00  0.00    +0.058 N 
ATOM     30  O   UNL     1      -0.223  -3.717  -1.592  0.00  0.00    -0.126 OA
ATOM     31  O   UNL     1       0.952  -2.040  -1.083  0.00  0.00    -0.126 OA
ENDBRANCH  27  29
ENDBRANCH  18  26
ENDBRANCH  17  19
ENDBRANCH   1  17
TORSDOF 6
