REMARK  Name = ZINC65349311
REMARK  8 active torsions:
REMARK  status: ('A' for Active; 'I' for Inactive)
REMARK    1  A    between atoms: C_1  and  C_2
REMARK    2  A    between atoms: C_2  and  C_3
REMARK    3  A    between atoms: C_2  and  C_4
REMARK    4  A    between atoms: C_2  and  N_5
REMARK    5  A    between atoms: N_5  and  S_6
REMARK    6  A    between atoms: S_6  and  C_9
REMARK    7  A    between atoms: C_13  and  C_15
REMARK    8  A    between atoms: C_17  and  C_22
REMARK                            x       y       z     vdW  Elec       q    Type
REMARK                         _______ _______ _______ _____ _____    ______ ____
ROOT
ATOM      1  C   UNL     1       3.042  -0.150   0.307  0.00  0.00    +0.106 A 
ATOM      2  C   UNL     1       3.223   0.613   1.447  0.00  0.00    +0.028 A 
ATOM      3  C   UNL     1       4.186   0.260   2.374  0.00  0.00    +0.002 A 
ATOM      4  C   UNL     1       4.972  -0.855   2.167  0.00  0.00    +0.008 A 
ATOM      5  C   UNL     1       4.794  -1.627   1.021  0.00  0.00    -0.015 A 
ATOM      6  C   UNL     1       3.818  -1.271   0.092  0.00  0.00    +0.037 A 
ENDROOT
BRANCH   5   7
ATOM      7  C   UNL     1       5.636  -2.827   0.793  0.00  0.00    -0.001 A 
ATOM      8  C   UNL     1       6.606  -3.195   1.724  0.00  0.00    +0.028 A 
ATOM      9  C   UNL     1       7.375  -4.335   1.465  0.00  0.00    +0.101 A 
ATOM     10  C   UNL     1       7.139  -5.059   0.282  0.00  0.00    +0.108 A 
ATOM     11  N   UNL     1       6.204  -4.669  -0.572  0.00  0.00    -0.349 N 
ATOM     12  C   UNL     1       5.462  -3.603  -0.353  0.00  0.00    +0.092 A 
ATOM     13  N   UNL     1       7.888  -6.186   0.008  0.00  0.00    -0.344 N 
ATOM     14  H   UNL     1       8.447  -6.576   0.698  0.00  0.00    +0.144 HD
ATOM     15  H   UNL     1       7.854  -6.588  -0.874  0.00  0.00    +0.144 HD
ATOM     16  H   UNL     1       6.060  -5.185  -1.381  0.00  0.00    +0.167 HD
BRANCH   9  17
ATOM     17  C   UNL     1       8.413  -4.768   2.413  0.00  0.00    +0.390 C 
ATOM     18  O   UNL     1       8.527  -4.207   3.494  0.00  0.00    -0.240 OA
ATOM     19  O   UNL     1       9.162  -5.690   2.120  0.00  0.00    -0.240 OA
ENDBRANCH   9  17
ENDBRANCH   5   7
BRANCH   1  20
ATOM     20  S   UNL     1       1.812   0.306  -0.870  0.00  0.00    +0.059 S 
ATOM     21  O   UNL     1       2.067  -0.457  -2.041  0.00  0.00    -0.153 OA
ATOM     22  O   UNL     1       1.768   1.726  -0.881  0.00  0.00    -0.153 OA
BRANCH  20  23
ATOM     23  N   UNL     1       0.353  -0.208  -0.278  0.00  0.00    -0.185 NA
ATOM     24  H   UNL     1      -0.312   0.440   0.001  0.00  0.00    +0.149 HD
BRANCH  23  26
ATOM     25  C   UNL     1       1.210  -2.336   0.569  0.00  0.00    +0.029 C 
ATOM     26  C   UNL     1       0.069  -1.641  -0.176  0.00  0.00    +0.032 C 
ATOM     27  C   UNL     1      -0.061  -2.237  -1.580  0.00  0.00    +0.029 C 
ATOM     28  C   UNL     1      -1.241  -1.848   0.588  0.00  0.00    +0.029 C 
ENDBRANCH  23  26
ENDBRANCH  20  23
ENDBRANCH   1  20
TORSDOF 5
