REMARK  Name = ZINC54538829
REMARK  10 active torsions:
REMARK  status: ('A' for Active; 'I' for Inactive)
REMARK    1  A    between atoms: C_1  and  C_2
REMARK    2  A    between atoms: C_2  and  C_3
REMARK    3  A    between atoms: C_2  and  O_4
REMARK    4  A    between atoms: O_4  and  C_5
REMARK    5  A    between atoms: C_8  and  C_26
REMARK    6  A    between atoms: C_10  and  N_11
REMARK    7  A    between atoms: N_14  and  C_15
REMARK    8  A    between atoms: C_15  and  C_16
REMARK    9  A    between atoms: C_16  and  N_17
REMARK   10  A    between atoms: C_19  and  C_24
REMARK                            x       y       z     vdW  Elec       q    Type
REMARK                         _______ _______ _______ _____ _____    ______ ____
ROOT
ATOM      1  N   UNL     1       1.979  -1.153  -3.410  0.00  0.00    -0.266 N 
ATOM      2  C   UNL     1       2.666  -1.582  -4.487  0.00  0.00    +0.304 C 
ATOM      3  O   UNL     1       3.878  -1.661  -4.443  0.00  0.00    -0.253 OA
ATOM      4  N   UNL     1       2.009  -1.923  -5.613  0.00  0.00    -0.298 N 
ATOM      5  H   UNL     1       1.018  -1.033  -3.463  0.00  0.00    +0.156 HD
ATOM      6  H   UNL     1       1.041  -1.860  -5.648  0.00  0.00    +0.150 HD
ENDROOT
BRANCH   1  12
ATOM      7  C   UNL     1       2.033  -1.131  -0.988  0.00  0.00    +0.142 A 
ATOM      8  C   UNL     1       2.701  -0.866   0.199  0.00  0.00    +0.049 A 
ATOM      9  C   UNL     1       3.978  -0.349   0.175  0.00  0.00    +0.022 A 
ATOM     10  C   UNL     1       4.605  -0.089  -1.046  0.00  0.00    +0.054 A 
ATOM     11  C   UNL     1       3.934  -0.355  -2.243  0.00  0.00    +0.046 A 
ATOM     12  C   UNL     1       2.654  -0.879  -2.212  0.00  0.00    +0.078 A 
BRANCH  10  13
ATOM     13  C   UNL     1       5.932   0.448  -1.072  0.00  0.00    +0.099 C 
ATOM     14  N   UNL     1       6.984   0.875  -1.093  0.00  0.00    -0.191 NA
ENDBRANCH  10  13
BRANCH   7  15
ATOM     15  O   UNL     1       0.774  -1.641  -0.959  0.00  0.00    -0.488 OA
BRANCH  15  17
ATOM     16  C   UNL     1      -0.465  -0.462   0.748  0.00  0.00    +0.051 C 
ATOM     17  C   UNL     1       0.165  -1.790   0.325  0.00  0.00    +0.167 C 
ATOM     18  C   UNL     1      -0.919  -2.868   0.252  0.00  0.00    +0.051 C 
ENDBRANCH  15  17
ENDBRANCH   7  15
ENDBRANCH   1  12
BRANCH   4  19
ATOM     19  C   UNL     1       2.755  -2.390  -6.784  0.00  0.00    +0.124 C 
BRANCH  19  20
ATOM     20  C   UNL     1       1.778  -2.708  -7.918  0.00  0.00    +0.121 C 
BRANCH  20  21
ATOM     21  N   UNL     1       2.525  -3.175  -9.089  0.00  0.00    -0.327 N 
ATOM     22  C   UNL     1       1.850  -3.525 -10.245  0.00  0.00    +0.136 A 
ATOM     23  C   UNL     1       2.569  -3.978 -11.365  0.00  0.00    +0.091 A 
ATOM     24  C   UNL     1       1.864  -4.327 -12.523  0.00  0.00    +0.024 A 
ATOM     25  C   UNL     1       0.485  -4.210 -12.513  0.00  0.00    +0.021 A 
ATOM     26  C   UNL     1      -0.152  -3.757 -11.373  0.00  0.00    +0.113 A 
ATOM     27  N   UNL     1       0.530  -3.438 -10.289  0.00  0.00    -0.239 NA
ATOM     28  H   UNL     1       3.492  -3.238  -9.054  0.00  0.00    +0.148 HD
BRANCH  23  29
ATOM     29  C   UNL     1       3.997  -4.080 -11.322  0.00  0.00    +0.103 C 
ATOM     30  N   UNL     1       5.129  -4.161 -11.288  0.00  0.00    -0.191 NA
ENDBRANCH  23  29
ENDBRANCH  20  21
ENDBRANCH  19  20
ENDBRANCH   4  19
TORSDOF 8
