REMARK  Name = ZINC39659205
REMARK  6 active torsions:
REMARK  status: ('A' for Active; 'I' for Inactive)
REMARK    1  A    between atoms: C_1  and  C_2
REMARK    2  A    between atoms: C_2  and  C_31
REMARK    3  A    between atoms: C_5  and  C_8
REMARK    4  A    between atoms: C_8  and  N_9
REMARK    5  A    between atoms: C_10  and  C_12
REMARK    6  A    between atoms: C_23  and  C_25
REMARK                            x       y       z     vdW  Elec       q    Type
REMARK                         _______ _______ _______ _____ _____    ______ ____
ROOT
ATOM      1  C   UNL     1       3.321  -2.458   5.685  0.00  0.00    +0.100 C 
ATOM      2  C   UNL     1       3.240  -3.926   5.210  0.00  0.00    +0.121 C 
ATOM      3  N   UNL     1       4.618  -4.447   5.365  0.00  0.00    -0.296 N 
ATOM      4  C   UNL     1       5.098  -3.850   6.635  0.00  0.00    +0.115 C 
ATOM      5  C   UNL     1       4.540  -2.413   6.622  0.00  0.00    -0.004 C 
ATOM      6  C   UNL     1       5.588  -1.446   6.080  0.00  0.00    -0.010 C 
ATOM      7  C   UNL     1       6.765  -1.376   7.057  0.00  0.00    -0.082 C 
ATOM      8  N   UNL     1       6.287  -0.925   8.369  0.00  0.00    +0.379 N 
ATOM      9  C   UNL     1       5.348  -1.907   8.925  0.00  0.00    -0.082 C 
ATOM     10  C   UNL     1       4.112  -2.000   8.027  0.00  0.00    -0.010 C 
ATOM     11  C   UNL     1       5.286  -5.276   4.538  0.00  0.00    +0.247 C 
ATOM     12  O   UNL     1       4.803  -5.583   3.465  0.00  0.00    -0.270 OA
ATOM     13  H   UNL     1       7.072  -0.821   8.994  0.00  0.00    -0.086 HD
ATOM     14  H   UNL     1       5.821  -0.036   8.269  0.00  0.00    -0.086 HD
ENDROOT
BRANCH  11  15
ATOM     15  C   UNL     1       6.605  -5.812   4.935  0.00  0.00    +0.037 A 
ATOM     16  C   UNL     1       6.974  -5.839   6.281  0.00  0.00    +0.013 A 
ATOM     17  C   UNL     1       8.206  -6.341   6.645  0.00  0.00    +0.001 A 
ATOM     18  C   UNL     1       9.075  -6.817   5.680  0.00  0.00    +0.000 A 
ATOM     19  C   UNL     1       8.716  -6.793   4.344  0.00  0.00    +0.001 A 
ATOM     20  C   UNL     1       7.484  -6.300   3.967  0.00  0.00    +0.013 A 
ENDBRANCH  11  15
BRANCH   1  22
ATOM     21  N   UNL     1       3.164  -0.243   4.595  0.00  0.00    -0.312 N 
ATOM     22  C   UNL     1       3.529  -1.538   4.510  0.00  0.00    +0.218 C 
ATOM     23  O   UNL     1       4.024  -1.962   3.487  0.00  0.00    -0.275 OA
ATOM     24  H   UNL     1       2.768   0.097   5.413  0.00  0.00    +0.149 HD
BRANCH  21  25
ATOM     25  C   UNL     1       3.366   0.652   3.453  0.00  0.00    +0.138 C 
BRANCH  25  30
ATOM     26  C   UNL     1       5.346   4.370   4.066  0.00  0.00    +0.074 C 
ATOM     27  C   UNL     1       3.881   4.059   4.380  0.00  0.00    +0.165 C 
ATOM     28  O   UNL     1       3.077   4.292   3.211  0.00  0.00    -0.347 OA
ATOM     29  C   UNL     1       2.954   2.994   2.581  0.00  0.00    +0.196 C 
ATOM     30  C   UNL     1       2.870   2.055   3.810  0.00  0.00    +0.164 C 
ATOM     31  O   UNL     1       3.752   2.683   4.762  0.00  0.00    -0.342 OA
ATOM     32  C   UNL     1       3.398   4.957   5.520  0.00  0.00    +0.074 C 
ENDBRANCH  25  30
ENDBRANCH  21  25
ENDBRANCH   1  22
TORSDOF 4
