REMARK  Name = ZINC42270526
REMARK  3 active torsions:
REMARK  status: ('A' for Active; 'I' for Inactive)
REMARK    1  A    between atoms: C_3  and  C_9
REMARK    2  A    between atoms: C_6  and  N_7
REMARK    3  A    between atoms: C_16  and  C_18
REMARK                            x       y       z     vdW  Elec       q    Type
REMARK                         _______ _______ _______ _____ _____    ______ ____
ROOT
ATOM      1  C   UNL     1       4.077   2.414  -1.613  0.00  0.00    +0.249 C 
ATOM      2  O   UNL     1       4.349   1.451  -0.921  0.00  0.00    -0.270 OA
ATOM      3  N   UNL     1       3.848   3.612  -1.039  0.00  0.00    -0.286 N 
ATOM      4  C   UNL     1       2.551   4.283  -1.200  0.00  0.00    +0.109 C 
ATOM      5  C   UNL     1       2.000   4.629   0.187  0.00  0.00    +0.019 C 
ATOM      6  C   UNL     1       3.041   5.448   0.955  0.00  0.00    +0.004 C 
ATOM      7  C   UNL     1       4.314   4.618   1.135  0.00  0.00    +0.032 C 
ATOM      8  C   UNL     1       4.889   4.268  -0.236  0.00  0.00    +0.162 C 
ENDROOT
BRANCH   1  11
ATOM      9  C   UNL     1       4.073   3.254  -5.268  0.00  0.00    +0.023 A 
ATOM     10  C   UNL     1       4.147   3.391  -3.900  0.00  0.00    +0.016 A 
ATOM     11  C   UNL     1       3.998   2.271  -3.078  0.00  0.00    +0.055 A 
ATOM     12  C   UNL     1       3.774   1.013  -3.649  0.00  0.00    +0.055 A 
ATOM     13  C   UNL     1       3.701   0.883  -5.018  0.00  0.00    +0.043 A 
ATOM     14  C   UNL     1       3.850   2.002  -5.833  0.00  0.00    +0.026 A 
ATOM     15 CL   UNL     1       3.589  -0.383  -2.633  0.00  0.00    -0.083 Cl
BRANCH  14  16
ATOM     16  N   UNL     1       3.775   1.868  -7.215  0.00  0.00    -0.358 N 
ATOM     17  H   UNL     1       3.879   2.647  -7.784  0.00  0.00    +0.142 HD
ATOM     18  H   UNL     1       3.620   0.996  -7.610  0.00  0.00    +0.142 HD
ENDBRANCH  14  16
ENDBRANCH   1  11
BRANCH   8  19
ATOM     19  C   UNL     1       6.061   3.336  -0.068  0.00  0.00    +0.231 C 
ATOM     20  O   UNL     1       5.892   2.228   0.397  0.00  0.00    -0.274 OA
ATOM     21  N   UNL     1       7.296   3.733  -0.432  0.00  0.00    -0.328 N 
ATOM     22  H   UNL     1       7.431   4.619  -0.803  0.00  0.00    +0.145 HD
ATOM     23  H   UNL     1       8.050   3.133  -0.324  0.00  0.00    +0.145 HD
ENDBRANCH   8  19
TORSDOF 3
