REMARK  Name = ZINC09154255
REMARK  12 active torsions:
REMARK  status: ('A' for Active; 'I' for Inactive)
REMARK    1  A    between atoms: C_1  and  C_2
REMARK    2  A    between atoms: C_3  and  C_13
REMARK    3  A    between atoms: C_4  and  C_12
REMARK    4  A    between atoms: C_13  and  C_14
REMARK    5  A    between atoms: N_16  and  C_17
REMARK    6  A    between atoms: C_17  and  C_18
REMARK    7  A    between atoms: C_18  and  O_19
REMARK    8  A    between atoms: O_19  and  C_20
REMARK    9  A    between atoms: C_23  and  C_26
REMARK   10  A    between atoms: C_26  and  C_27
REMARK   11  A    between atoms: C_26  and  C_28
REMARK   12  A    between atoms: C_26  and  C_29
REMARK                            x       y       z     vdW  Elec       q    Type
REMARK                         _______ _______ _______ _____ _____    ______ ____
ROOT
ATOM      1  C   UNL     1      -0.014   1.209   0.009  0.00  0.00    +0.218 C 
ATOM      2  O   UNL     1       0.002  -0.004   0.002  0.00  0.00    -0.275 OA
ATOM      3  N   UNL     1       1.143   1.898   0.001  0.00  0.00    -0.312 N 
ATOM      4  H   UNL     1       1.130   2.868   0.007  0.00  0.00    +0.149 HD
ENDROOT
BRANCH   1   5
ATOM      5  C   UNL     1      -1.330   1.944   0.019  0.00  0.00    +0.134 C 
BRANCH   5   8
ATOM      6  C   UNL     1      -2.451   0.999  -2.496  0.00  0.00    +0.066 C 
ATOM      7  C   UNL     1      -3.003   0.493  -1.188  0.00  0.00    +0.047 A 
ATOM      8  C   UNL     1      -2.462   0.950   0.019  0.00  0.00    +0.004 A 
ATOM      9  C   UNL     1      -2.972   0.489   1.191  0.00  0.00    +0.049 A 
ATOM     10  N   UNL     1      -3.993  -0.407   1.159  0.00  0.00    -0.199 N 
ATOM     11  C   UNL     1      -4.495  -0.837  -0.037  0.00  0.00    +0.255 A 
ATOM     12  N   UNL     1      -3.986  -0.379  -1.186  0.00  0.00    -0.216 NA
ATOM     13  N   UNL     1      -5.471  -1.698   0.230  0.00  0.00    -0.176 NA
ATOM     14  C   UNL     1      -5.606  -1.829   1.548  0.00  0.00    +0.234 A 
ATOM     15  N   UNL     1      -4.726  -1.061   2.157  0.00  0.00    -0.128 NA
ATOM     16  N   UNL     1      -6.534  -2.650   2.183  0.00  0.00    -0.326 N 
ATOM     17  C   UNL     1      -2.415   0.967   2.507  0.00  0.00    +0.066 C 
ATOM     18  H   UNL     1      -6.566  -2.687   3.152  0.00  0.00    +0.145 HD
ATOM     19  H   UNL     1      -7.149  -3.185   1.657  0.00  0.00    +0.145 HD
ENDBRANCH   5   8
ENDBRANCH   1   5
BRANCH   3  20
ATOM     20  C   UNL     1       2.422   1.183  -0.015  0.00  0.00    +0.145 C 
BRANCH  20  21
ATOM     21  C   UNL     1       3.571   2.193  -0.020  0.00  0.00    +0.247 C 
BRANCH  21  22
ATOM     22  O   UNL     1       3.565   2.929   1.205  0.00  0.00    -0.490 OA
BRANCH  22  23
ATOM     23  C   UNL     1       4.529   3.874   1.362  0.00  0.00    +0.121 A 
ATOM     24  C   UNL     1       5.465   4.085   0.360  0.00  0.00    +0.046 A 
ATOM     25  C   UNL     1       6.440   5.050   0.520  0.00  0.00    +0.008 A 
ATOM     26  C   UNL     1       6.491   5.798   1.682  0.00  0.00    -0.042 A 
ATOM     27  C   UNL     1       5.562   5.585   2.684  0.00  0.00    +0.008 A 
ATOM     28  C   UNL     1       4.582   4.625   2.527  0.00  0.00    +0.046 A 
BRANCH  26  29
ATOM     29  C   UNL     1       7.560   6.845   1.857  0.00  0.00    -0.013 C 
ATOM     30  C   UNL     1       8.410   6.508   3.083  0.00  0.00    +0.015 C 
ATOM     31  C   UNL     1       8.450   6.878   0.613  0.00  0.00    +0.015 C 
ATOM     32  C   UNL     1       6.905   8.214   2.051  0.00  0.00    +0.015 C 
ENDBRANCH  26  29
ENDBRANCH  22  23
ENDBRANCH  21  22
ENDBRANCH  20  21
ENDBRANCH   3  20
TORSDOF 7
