REMARK  Name = ZINC13376294
REMARK  7 active torsions:
REMARK  status: ('A' for Active; 'I' for Inactive)
REMARK    1  A    between atoms: C_8  and  S_10
REMARK    2  A    between atoms: S_10  and  C_11
REMARK    3  A    between atoms: C_13  and  O_26
REMARK    4  A    between atoms: C_15  and  O_25
REMARK    5  A    between atoms: C_17  and  O_24
REMARK    6  A    between atoms: C_19  and  C_22
REMARK    7  A    between atoms: C_22  and  O_23
REMARK                            x       y       z     vdW  Elec       q    Type
REMARK                         _______ _______ _______ _____ _____    ______ ____
ROOT
ATOM      1  C   UNL     1       3.060   3.959  -0.006  0.00  0.00    +0.213 C 
ATOM      2  C   UNL     1       3.463   5.414   0.248  0.00  0.00    +0.185 C 
ATOM      3  C   UNL     1       4.988   5.534   0.173  0.00  0.00    +0.177 C 
ATOM      4  C   UNL     1       5.463   5.030  -1.193  0.00  0.00    +0.176 C 
ATOM      5  C   UNL     1       4.983   3.590  -1.392  0.00  0.00    +0.176 C 
ATOM      6  O   UNL     1       3.559   3.544  -1.279  0.00  0.00    -0.355 OA
ENDROOT
BRANCH   4   7
ATOM      7  O   UNL     1       4.921   5.860  -2.223  0.00  0.00    -0.386 OA
ATOM      8  H   UNL     1       5.181   6.789  -2.156  0.00  0.00    +0.210 HD
ENDBRANCH   4   7
BRANCH   3   9
ATOM      9  O   UNL     1       5.369   6.902   0.337  0.00  0.00    -0.386 OA
ATOM     10  H   UNL     1       5.094   7.288   1.179  0.00  0.00    +0.210 HD
ENDBRANCH   3   9
BRANCH   2  11
ATOM     11  O   UNL     1       2.868   6.254  -0.742  0.00  0.00    -0.386 OA
ATOM     12  H   UNL     1       1.901   6.224  -0.754  0.00  0.00    +0.210 HD
ENDBRANCH   2  11
BRANCH   1  13
ATOM     13  S   UNL     1       1.256   3.821   0.010  0.00  0.00    -0.065 S 
BRANCH  13  21
ATOM     14  C   UNL     1      -0.904  -2.248  -0.002  0.00  0.00    +0.002 A 
ATOM     15  C   UNL     1       0.369  -2.798  -0.017  0.00  0.00    +0.001 A 
ATOM     16  C   UNL     1       1.469  -1.959  -0.023  0.00  0.00    +0.017 A 
ATOM     17  C   UNL     1       1.284  -0.599  -0.013  0.00  0.00    +0.040 A 
ATOM     18  C   UNL     1       0.002  -0.004   0.002  0.00  0.00    +0.079 A 
ATOM     19  C   UNL     1      -1.099  -0.892   0.007  0.00  0.00    +0.029 A 
ATOM     20  N   UNL     1      -0.016   1.347   0.009  0.00  0.00    -0.233 NA
ATOM     21  C   UNL     1       1.083   2.067   0.003  0.00  0.00    +0.138 A 
ATOM     22  S   UNL     1       2.359   0.815  -0.016  0.00  0.00    -0.061 S 
ENDBRANCH  13  21
ENDBRANCH   1  13
BRANCH   5  23
ATOM     23  C   UNL     1       5.401   3.099  -2.779  0.00  0.00    +0.190 C 
BRANCH  23  24
ATOM     24  O   UNL     1       5.056   1.720  -2.921  0.00  0.00    -0.392 OA
ATOM     25  H   UNL     1       5.293   1.341  -3.779  0.00  0.00    +0.210 HD
ENDBRANCH  23  24
ENDBRANCH   5  23
TORSDOF 7
