REMARK  Name = ZINC30514357
REMARK  7 active torsions:
REMARK  status: ('A' for Active; 'I' for Inactive)
REMARK    1  A    between atoms: C_1  and  C_2
REMARK    2  A    between atoms: C_2  and  C_4
REMARK    3  A    between atoms: C_2  and  N_15
REMARK    4  A    between atoms: N_9  and  C_10
REMARK    5  A    between atoms: N_15  and  C_16
REMARK    6  A    between atoms: C_16  and  C_17
REMARK    7  A    between atoms: C_17  and  N_22
REMARK                            x       y       z     vdW  Elec       q    Type
REMARK                         _______ _______ _______ _____ _____    ______ ____
ROOT
ATOM      1  C   UNL     1       8.313   2.792  -0.575  0.00  0.00    +0.034 C 
ATOM      2  C   UNL     1       8.218   2.098   0.785  0.00  0.00    +0.138 C 
ENDROOT
BRANCH   2   3
ATOM      3  C   UNL     1       6.781   2.076   1.238  0.00  0.00    +0.237 C 
ATOM      4  O   UNL     1       6.464   2.617   2.276  0.00  0.00    -0.274 OA
ATOM      5  N   UNL     1       5.848   1.455   0.490  0.00  0.00    -0.239 N 
ATOM      6  C   UNL     1       4.563   1.435   0.895  0.00  0.00    +0.306 C 
ATOM      7  O   UNL     1       4.245   1.978   1.935  0.00  0.00    -0.252 OA
ATOM      8  N   UNL     1       3.630   0.814   0.146  0.00  0.00    -0.296 N 
ATOM      9  H   UNL     1       6.136   0.964  -0.452  0.00  0.00    +0.159 HD
ATOM     10  H   UNL     1       3.917   0.323  -0.795  0.00  0.00    +0.151 HD
BRANCH   8  11
ATOM     11  C   UNL     1       2.232   0.792   0.586  0.00  0.00    +0.074 C 
ATOM     12  C   UNL     1       1.453   1.995  -0.001  0.00  0.00    +0.022 C 
ATOM     13  C   UNL     1      -0.019   1.534   0.011  0.00  0.00    +0.002 C 
ATOM     14  C   UNL     1       0.002  -0.004   0.002  0.00  0.00    +0.002 C 
ATOM     15  C   UNL     1       1.486  -0.425  -0.014  0.00  0.00    +0.022 C 
ENDBRANCH   8  11
ENDBRANCH   2   3
BRANCH   2  16
ATOM     16  N   UNL     1       9.029   2.831   1.766  0.00  0.00    -0.307 NA
ATOM     17  H   UNL     1       8.983   3.908   1.549  0.00  0.00    +0.123 HD
BRANCH  16  18
ATOM     18  C   UNL     1      10.433   2.400   1.716  0.00  0.00    +0.069 C 
BRANCH  18  19
ATOM     19  C   UNL     1      11.245   3.183   2.749  0.00  0.00    -0.053 C 
ATOM     20  C   UNL     1      11.211   4.689   2.416  0.00  0.00    -0.011 C 
ATOM     21  C   UNL     1      12.631   5.190   2.780  0.00  0.00    -0.001 C 
ATOM     22  C   UNL     1      13.533   4.014   2.331  0.00  0.00    -0.001 C 
ATOM     23  C   UNL     1      12.721   2.754   2.695  0.00  0.00    -0.011 C 
BRANCH  19  24
ATOM     24  N   UNL     1      10.702   2.952   4.095  0.00  0.00    +0.385 N 
ATOM     25  C   UNL     1      10.902   1.562   4.509  0.00  0.00    -0.067 C 
ATOM     26  C   UNL     1      10.764   1.448   6.032  0.00  0.00    +0.050 C 
ATOM     27  S   UNL     1       9.079   1.959   6.494  0.00  0.00    -0.164 S 
ATOM     28  C   UNL     1       8.896   3.556   5.641  0.00  0.00    +0.050 C 
ATOM     29  C   UNL     1       9.300   3.369   4.175  0.00  0.00    -0.067 C 
ATOM     30  H   UNL     1      11.257   3.576   4.811  0.00  0.00    -0.081 HD
ENDBRANCH  19  24
ENDBRANCH  18  19
ENDBRANCH  16  18
ENDBRANCH   2  16
TORSDOF 6
