REMARK  Name = ZINC17448490
REMARK  6 active torsions:
REMARK  status: ('A' for Active; 'I' for Inactive)
REMARK    1  A    between atoms: C_1  and  C_2
REMARK    2  A    between atoms: C_10  and  C_11
REMARK    3  A    between atoms: N_13  and  N_14
REMARK    4  A    between atoms: C_15  and  C_17
REMARK    5  A    between atoms: C_20  and  N_26
REMARK    6  A    between atoms: C_21  and  N_23
REMARK                            x       y       z     vdW  Elec       q    Type
REMARK                         _______ _______ _______ _____ _____    ______ ____
ROOT
ATOM      1  N   UNL     1       1.221  -4.905  -0.241  0.00  0.00    -0.230 N 
ATOM      2  C   UNL     1       0.050  -4.248  -0.125  0.00  0.00    +0.260 C 
ATOM      3  O   UNL     1      -0.994  -4.869  -0.071  0.00  0.00    -0.269 OA
ATOM      4  H   UNL     1       2.054  -4.410  -0.284  0.00  0.00    +0.173 HD
ENDROOT
BRANCH   2   5
ATOM      5  C   UNL     1       0.035  -2.774  -0.063  0.00  0.00    +0.040 A 
ATOM      6  C   UNL     1       1.234  -2.058  -0.124  0.00  0.00    +0.015 A 
ATOM      7  C   UNL     1       1.217  -0.683  -0.067  0.00  0.00    +0.026 A 
ATOM      8  C   UNL     1       0.007  -0.005   0.054  0.00  0.00    +0.055 A 
ATOM      9  C   UNL     1      -1.188  -0.716   0.120  0.00  0.00    +0.147 A 
ATOM     10  C   UNL     1      -1.178  -2.090   0.057  0.00  0.00    +0.047 A 
BRANCH   9  11
ATOM     11  N   UNL     1      -2.473   0.009   0.254  0.00  0.00    +0.058 N 
ATOM     12  O   UNL     1      -3.362  -0.451   0.947  0.00  0.00    -0.126 OA
ATOM     13  O   UNL     1      -2.639   1.065  -0.329  0.00  0.00    -0.126 OA
ENDBRANCH   9  11
BRANCH   8  14
ATOM     14  N   UNL     1      -0.007   1.384   0.113  0.00  0.00    -0.356 N 
ATOM     15  H   UNL     1       0.809   1.884  -0.044  0.00  0.00    +0.142 HD
ATOM     16  H   UNL     1      -0.834   1.853   0.306  0.00  0.00    +0.142 HD
ENDBRANCH   8  14
ENDBRANCH   2   5
BRANCH   1  19
ATOM     17  C   UNL     1       2.406  -6.963  -0.417  0.00  0.00    +0.296 C 
ATOM     18  O   UNL     1       3.450  -6.341  -0.470  0.00  0.00    -0.265 OA
ATOM     19  N   UNL     1       1.235  -6.305  -0.300  0.00  0.00    -0.228 N 
ATOM     20  H   UNL     1       0.403  -6.801  -0.258  0.00  0.00    +0.173 HD
BRANCH  17  30
ATOM     21  C   UNL     1       4.960  -8.714  -0.696  0.00  0.00    +0.048 C 
ATOM     22  C   UNL     1       3.536  -9.197  -0.601  0.00  0.00    +0.008 A 
ATOM     23  C   UNL     1       3.074 -10.584  -0.619  0.00  0.00    +0.024 A 
ATOM     24  C   UNL     1       3.714 -11.822  -0.719  0.00  0.00    +0.012 A 
ATOM     25  C   UNL     1       2.974 -12.970  -0.710  0.00  0.00    +0.001 A 
ATOM     26  C   UNL     1       1.590 -12.914  -0.603  0.00  0.00    +0.004 A 
ATOM     27  C   UNL     1       0.940 -11.703  -0.503  0.00  0.00    +0.047 A 
ATOM     28  C   UNL     1       1.673 -10.521  -0.509  0.00  0.00    +0.136 A 
ATOM     29  O   UNL     1       1.328  -9.222  -0.429  0.00  0.00    -0.450 OA
ATOM     30  C   UNL     1       2.421  -8.431  -0.479  0.00  0.00    +0.195 A 
ENDBRANCH  17  30
ENDBRANCH   1  19
TORSDOF 5
