REMARK  Name = ZINC66617670
REMARK  6 active torsions:
REMARK  status: ('A' for Active; 'I' for Inactive)
REMARK    1  A    between atoms: C_1  and  C_2
REMARK    2  A    between atoms: C_6  and  C_25
REMARK    3  A    between atoms: C_10  and  C_12
REMARK    4  A    between atoms: C_12  and  N_13
REMARK    5  A    between atoms: N_16  and  C_17
REMARK    6  A    between atoms: C_17  and  C_18
REMARK                            x       y       z     vdW  Elec       q    Type
REMARK                         _______ _______ _______ _____ _____    ______ ____
ROOT
ATOM      1  C   UNL     1       2.232  -0.133   3.120  0.00  0.00    +0.201 C 
ENDROOT
BRANCH   1   9
ATOM      2  C   UNL     1       0.008   1.528  -0.006  0.00  0.00    +0.028 C 
ATOM      3  C   UNL     1       0.015  -0.002  -0.007  0.00  0.00    +0.073 C 
ATOM      4  C   UNL     1       0.633  -0.512  -1.313  0.00  0.00    +0.023 C 
ATOM      5  C   UNL     1       0.765  -2.035  -1.250  0.00  0.00    +0.016 C 
ATOM      6  C   UNL     1       1.692  -2.421  -0.095  0.00  0.00    +0.092 C 
ATOM      7  C   UNL     1       1.087  -1.933   1.225  0.00  0.00    +0.120 C 
ATOM      8  N   UNL     1       0.819  -0.492   1.122  0.00  0.00    -0.297 N 
ATOM      9  C   UNL     1       1.304   0.365   2.042  0.00  0.00    +0.233 C 
ATOM     10  O   UNL     1       0.994   1.537   2.003  0.00  0.00    -0.274 OA
BRANCH   6  11
ATOM     11  C   UNL     1       3.041  -1.781  -0.298  0.00  0.00    +0.215 C 
ATOM     12  O   UNL     1       3.242  -1.084  -1.270  0.00  0.00    -0.276 OA
ATOM     13  N   UNL     1       4.024  -1.982   0.602  0.00  0.00    -0.329 N 
ATOM     14  H   UNL     1       3.864  -2.539   1.379  0.00  0.00    +0.145 HD
ATOM     15  H   UNL     1       4.893  -1.570   0.471  0.00  0.00    +0.145 HD
ENDBRANCH   6  11
ENDBRANCH   1   9
BRANCH   1  16
ATOM     16  N   UNL     1       2.616   0.983   3.988  0.00  0.00    -0.291 N 
ATOM     17  C   UNL     1       3.447   0.773   5.028  0.00  0.00    +0.300 C 
ATOM     18  O   UNL     1       3.878  -0.343   5.246  0.00  0.00    -0.253 OA
ATOM     19  N   UNL     1       3.800   1.800   5.827  0.00  0.00    -0.295 N 
ATOM     20  H   UNL     1       2.272   1.873   3.814  0.00  0.00    +0.151 HD
ATOM     21  H   UNL     1       3.456   2.690   5.653  0.00  0.00    +0.151 HD
BRANCH  19  22
ATOM     22  C   UNL     1       4.703   1.571   6.957  0.00  0.00    +0.141 C 
BRANCH  22  23
ATOM     23  C   UNL     1       4.936   2.871   7.684  0.00  0.00    -0.030 A 
ATOM     24  C   UNL     1       5.981   3.695   7.308  0.00  0.00    +0.006 A 
ATOM     25  C   UNL     1       6.195   4.887   7.974  0.00  0.00    +0.020 A 
ATOM     26  C   UNL     1       5.365   5.255   9.018  0.00  0.00    +0.041 A 
ATOM     27  C   UNL     1       4.320   4.429   9.394  0.00  0.00    +0.020 A 
ATOM     28  C   UNL     1       4.103   3.241   8.723  0.00  0.00    +0.006 A 
ATOM     29 CL   UNL     1       5.634   6.751   9.855  0.00  0.00    -0.084 Cl
ENDBRANCH  22  23
ENDBRANCH  19  22
ENDBRANCH   1  16
TORSDOF 5
