REMARK  Name = ZINC18104808
REMARK  8 active torsions:
REMARK  status: ('A' for Active; 'I' for Inactive)
REMARK    1  A    between atoms: C_1  and  C_2
REMARK    2  A    between atoms: C_7  and  C_8
REMARK    3  A    between atoms: C_8  and  C_9
REMARK    4  A    between atoms: C_9  and  N_10
REMARK    5  A    between atoms: C_11  and  C_13
REMARK    6  A    between atoms: C_13  and  C_14
REMARK    7  A    between atoms: C_15  and  C_25
REMARK    8  A    between atoms: C_22  and  C_23
REMARK                            x       y       z     vdW  Elec       q    Type
REMARK                         _______ _______ _______ _____ _____    ______ ____
ROOT
ATOM      1  C   UNL     1       3.937   4.399  -0.011  0.00  0.00    +0.134 C 
ENDROOT
BRANCH   1   2
ATOM      2  C   UNL     1       3.258   3.053  -0.012  0.00  0.00    +0.004 A 
ATOM      3  C   UNL     1       4.017   1.877  -0.026  0.00  0.00    +0.047 A 
ATOM      4  N   UNL     1       3.422   0.705  -0.027  0.00  0.00    -0.216 NA
ATOM      5  C   UNL     1       2.088   0.612  -0.015  0.00  0.00    +0.255 A 
ATOM      6  N   UNL     1       1.263  -0.430  -0.012  0.00  0.00    -0.176 NA
ATOM      7  C   UNL     1       0.002  -0.004   0.002  0.00  0.00    +0.234 A 
ATOM      8  N   UNL     1      -0.016   1.313   0.009  0.00  0.00    -0.128 NA
ATOM      9  N   UNL     1       1.318   1.741  -0.001  0.00  0.00    -0.199 N 
ATOM     10  C   UNL     1       1.902   2.968   0.000  0.00  0.00    +0.049 A 
ATOM     11  C   UNL     1       1.058   4.216   0.015  0.00  0.00    +0.066 C 
ATOM     12  N   UNL     1      -1.123  -0.824   0.008  0.00  0.00    -0.326 N 
ATOM     13  C   UNL     1       5.521   1.956  -0.040  0.00  0.00    +0.066 C 
ATOM     14  H   UNL     1      -2.010  -0.430   0.018  0.00  0.00    +0.145 HD
ATOM     15  H   UNL     1      -1.021  -1.788   0.002  0.00  0.00    +0.145 HD
ENDBRANCH   1   2
BRANCH   1  17
ATOM     16  N   UNL     1       4.745   6.040  -1.675  0.00  0.00    -0.315 N 
ATOM     17  C   UNL     1       4.150   4.855  -1.431  0.00  0.00    +0.217 C 
ATOM     18  O   UNL     1       3.787   4.157  -2.353  0.00  0.00    -0.275 OA
ATOM     19  H   UNL     1       5.036   6.598  -0.938  0.00  0.00    +0.149 HD
BRANCH  16  20
ATOM     20  C   UNL     1       4.952   6.484  -3.056  0.00  0.00    +0.109 C 
BRANCH  20  21
ATOM     21  C   UNL     1       5.642   7.850  -3.054  0.00  0.00    +0.054 C 
BRANCH  21  28
ATOM     22  C   UNL     1       3.528   9.228  -4.461  0.00  0.00    +0.044 C 
ATOM     23  C   UNL     1       4.844   8.966  -5.148  0.00  0.00    -0.047 A 
ATOM     24  C   UNL     1       5.040   9.385  -6.450  0.00  0.00    +0.003 A 
ATOM     25  C   UNL     1       6.247   9.145  -7.080  0.00  0.00    +0.000 A 
ATOM     26  C   UNL     1       7.258   8.486  -6.406  0.00  0.00    +0.000 A 
ATOM     27  C   UNL     1       7.064   8.071  -5.102  0.00  0.00    +0.004 A 
ATOM     28  C   UNL     1       5.855   8.306  -4.474  0.00  0.00    -0.043 A 
ENDBRANCH  21  28
ENDBRANCH  20  21
ENDBRANCH  16  20
ENDBRANCH   1  17
TORSDOF 5
