REMARK  Name = ZINC16856986
REMARK  10 active torsions:
REMARK  status: ('A' for Active; 'I' for Inactive)
REMARK    1  A    between atoms: C_1  and  C_2
REMARK    2  A    between atoms: C_4  and  C_17
REMARK    3  A    between atoms: C_5  and  C_9
REMARK    4  A    between atoms: C_6  and  O_8
REMARK    5  A    between atoms: C_9  and  O_10
REMARK    6  A    between atoms: O_10  and  C_11
REMARK    7  A    between atoms: C_18  and  C_19
REMARK    8  A    between atoms: C_22  and  N_25
REMARK    9  A    between atoms: N_25  and  C_26
REMARK   10  A    between atoms: N_25  and  C_27
REMARK                            x       y       z     vdW  Elec       q    Type
REMARK                         _______ _______ _______ _____ _____    ______ ____
ROOT
ATOM      1  C   UNL     1       9.339  -3.248  -0.095  0.00  0.00    +0.088 C 
ATOM      2  C   UNL     1       8.140  -2.335  -0.086  0.00  0.00    +0.130 A 
ATOM      3  N   UNL     1       7.621  -1.952  -1.233  0.00  0.00    -0.232 NA
ATOM      4  C   UNL     1       6.558  -1.143  -1.266  0.00  0.00    +0.077 A 
ATOM      5  C   UNL     1       6.002  -0.707  -0.058  0.00  0.00    +0.076 A 
ATOM      6  C   UNL     1       6.590  -1.134   1.127  0.00  0.00    +0.223 A 
ATOM      7  N   UNL     1       7.643  -1.944   1.071  0.00  0.00    -0.198 NA
ENDROOT
BRANCH   6   8
ATOM      8  O   UNL     1       6.092  -0.735   2.323  0.00  0.00    -0.492 OA
ATOM      9  H   UNL     1       5.412  -1.322   2.682  0.00  0.00    +0.294 HD
ENDBRANCH   6   8
BRANCH   4  10
ATOM     10  C   UNL     1       5.981  -0.717  -2.551  0.00  0.00    +0.029 C 
ATOM     11  C   UNL     1       6.524  -1.143  -3.705  0.00  0.00    +0.010 C 
BRANCH  11  12
ATOM     12  C   UNL     1       5.947  -0.718  -4.991  0.00  0.00    -0.025 A 
ATOM     13  C   UNL     1       4.830   0.125  -5.014  0.00  0.00    +0.010 A 
ATOM     14  C   UNL     1       4.297   0.525  -6.219  0.00  0.00    +0.023 A 
ATOM     15  C   UNL     1       4.861   0.084  -7.412  0.00  0.00    +0.029 A 
ATOM     16  C   UNL     1       5.968  -0.759  -7.394  0.00  0.00    +0.023 A 
ATOM     17  C   UNL     1       6.510  -1.159  -6.193  0.00  0.00    +0.010 A 
BRANCH  15  18
ATOM     18  N   UNL     1       4.314   0.486  -8.630  0.00  0.00    -0.336 N 
ATOM     19  C   UNL     1       4.978   0.127  -9.885  0.00  0.00    +0.129 C 
ATOM     20  C   UNL     1       3.077   1.270  -8.654  0.00  0.00    +0.129 C 
ENDBRANCH  15  18
ENDBRANCH  11  12
ENDBRANCH   4  10
BRANCH   5  21
ATOM     21  C   UNL     1       4.804   0.206  -0.043  0.00  0.00    +0.272 C 
BRANCH  21  22
ATOM     22  O   UNL     1       3.608  -0.577  -0.026  0.00  0.00    -0.487 OA
BRANCH  22  23
ATOM     23  C   UNL     1       2.429   0.098  -0.011  0.00  0.00    +0.121 A 
ATOM     24  C   UNL     1       1.230  -0.600   0.005  0.00  0.00    +0.045 A 
ATOM     25  C   UNL     1       0.032   0.088   0.022  0.00  0.00    +0.004 A 
ATOM     26  C   UNL     1       0.028   1.471   0.022  0.00  0.00    +0.000 A 
ATOM     27  C   UNL     1       1.221   2.169   0.005  0.00  0.00    +0.004 A 
ATOM     28  C   UNL     1       2.422   1.485  -0.011  0.00  0.00    +0.045 A 
ENDBRANCH  22  23
ENDBRANCH  21  22
ENDBRANCH   5  21
TORSDOF 7
