REMARK  Name = ZINC35375100
REMARK  6 active torsions:
REMARK  status: ('A' for Active; 'I' for Inactive)
REMARK    1  A    between atoms: C_1  and  C_2
REMARK    2  A    between atoms: C_2  and  C_3
REMARK    3  A    between atoms: C_3  and  C_5
REMARK    4  A    between atoms: C_3  and  N_6
REMARK    5  A    between atoms: C_11  and  C_28
REMARK    6  A    between atoms: C_28  and  C_29
REMARK                            x       y       z     vdW  Elec       q    Type
REMARK                         _______ _______ _______ _____ _____    ______ ____
ROOT
ATOM      1  N   UNL     1       1.989  -0.050  -1.089  0.00  0.00    -0.239 N 
ATOM      2  C   UNL     1       2.851  -0.502  -0.172  0.00  0.00    +0.227 C 
ATOM      3  O   UNL     1       2.614  -1.363   0.648  0.00  0.00    -0.275 OA
ATOM      4  C   UNL     1       4.168   0.226  -0.318  0.00  0.00    +0.107 C 
ATOM      5  C   UNL     1       4.383   1.135   0.911  0.00  0.00    +0.076 C 
ATOM      6  N   UNL     1       4.829   2.437   0.348  0.00  0.00    -0.295 NA
ATOM      7  C   UNL     1       4.016   2.601  -0.871  0.00  0.00    +0.136 C 
ATOM      8  C   UNL     1       3.912   1.193  -1.507  0.00  0.00    +0.122 C 
ATOM      9  C   UNL     1       2.480   0.900  -1.893  0.00  0.00    +0.228 C 
ATOM     10  O   UNL     1       1.871   1.444  -2.789  0.00  0.00    -0.275 OA
ATOM     11  C   UNL     1       2.664   3.177  -0.559  0.00  0.00    +0.003 A 
ATOM     12  C   UNL     1       1.619   2.765   0.237  0.00  0.00    +0.008 A 
ATOM     13  C   UNL     1       0.470   3.531   0.324  0.00  0.00    +0.000 A 
ATOM     14  C   UNL     1       0.375   4.712  -0.390  0.00  0.00    +0.002 A 
ATOM     15  C   UNL     1       1.420   5.130  -1.188  0.00  0.00    +0.023 A 
ATOM     16  C   UNL     1       2.580   4.363  -1.282  0.00  0.00    +0.039 A 
ATOM     17  N   UNL     1       3.753   4.570  -2.010  0.00  0.00    -0.283 N 
ATOM     18  C   UNL     1       4.648   3.580  -1.823  0.00  0.00    +0.243 C 
ATOM     19  O   UNL     1       5.749   3.495  -2.325  0.00  0.00    -0.273 OA
ATOM     20  H   UNL     1       4.660   3.189   0.999  0.00  0.00    +0.124 HD
ATOM     21  H   UNL     1       3.906   5.337  -2.583  0.00  0.00    +0.155 HD
ENDROOT
BRANCH   1  22
ATOM     22  C   UNL     1       0.619  -0.557  -1.207  0.00  0.00    +0.081 C 
ATOM     23  C   UNL     1      -0.370   0.595  -1.017  0.00  0.00    +0.028 C 
BRANCH  22  25
ATOM     24  C   UNL     1       1.315  -2.410  -2.731  0.00  0.00    +0.006 C 
ATOM     25  C   UNL     1       0.422  -1.176  -2.592  0.00  0.00    +0.019 C 
ENDBRANCH  22  25
ENDBRANCH   1  22
BRANCH   5  26
ATOM     26  C   UNL     1       5.462   0.549   1.824  0.00  0.00    +0.115 C 
BRANCH  26  27
ATOM     27  C   UNL     1       5.570   1.384   3.074  0.00  0.00    +0.212 C 
ATOM     28  O   UNL     1       4.854   2.352   3.220  0.00  0.00    -0.276 OA
ATOM     29  N   UNL     1       6.461   1.055   4.030  0.00  0.00    -0.329 N 
ATOM     30  H   UNL     1       7.034   0.281   3.913  0.00  0.00    +0.145 HD
ATOM     31  H   UNL     1       6.530   1.592   4.834  0.00  0.00    +0.145 HD
ENDBRANCH  26  27
ENDBRANCH   5  26
TORSDOF 4
