REMARK  Name = ZINC67396050
REMARK  9 active torsions:
REMARK  status: ('A' for Active; 'I' for Inactive)
REMARK    1  A    between atoms: C_1  and  C_2
REMARK    2  A    between atoms: C_2  and  C_4
REMARK    3  A    between atoms: C_2  and  N_12
REMARK    4  A    between atoms: C_4  and  C_5
REMARK    5  A    between atoms: C_8  and  O_11
REMARK    6  A    between atoms: C_13  and  C_15
REMARK    7  A    between atoms: N_17  and  C_18
REMARK    8  A    between atoms: C_22  and  C_24
REMARK    9  A    between atoms: N_26  and  C_27
REMARK                            x       y       z     vdW  Elec       q    Type
REMARK                         _______ _______ _______ _____ _____    ______ ____
ROOT
ATOM      1  C   UNL     1      -3.451  -1.161  -1.134  0.00  0.00    +0.303 C 
ATOM      2  O   UNL     1      -3.976  -1.471  -0.084  0.00  0.00    -0.265 OA
ATOM      3  N   UNL     1      -4.130  -1.291  -2.291  0.00  0.00    -0.278 N 
ATOM      4  H   UNL     1      -3.737  -0.982  -3.122  0.00  0.00    +0.155 HD
ENDROOT
BRANCH   3   5
ATOM      5  C   UNL     1      -5.402  -1.872  -2.294  0.00  0.00    +0.035 A 
ATOM      6  C   UNL     1      -6.266  -1.659  -1.224  0.00  0.00    +0.025 A 
ATOM      7  C   UNL     1      -7.523  -2.231  -1.221  0.00  0.00    +0.022 A 
ATOM      8  C   UNL     1      -7.932  -3.019  -2.281  0.00  0.00    +0.053 A 
ATOM      9  C   UNL     1      -7.072  -3.238  -3.360  0.00  0.00    +0.057 A 
ATOM     10  C   UNL     1      -5.804  -2.655  -3.364  0.00  0.00    +0.037 A 
ATOM     11 CL   UNL     1      -9.513  -3.736  -2.271  0.00  0.00    -0.083 Cl
BRANCH   9  12
ATOM     12  C   UNL     1      -7.505  -4.079  -4.495  0.00  0.00    +0.245 C 
ATOM     13  O   UNL     1      -8.612  -4.582  -4.490  0.00  0.00    -0.270 OA
ATOM     14  N   UNL     1      -6.674  -4.289  -5.534  0.00  0.00    -0.314 N 
ATOM     15  C   UNL     1      -7.104  -5.123  -6.659  0.00  0.00    +0.128 C 
ATOM     16  H   UNL     1      -5.791  -3.888  -5.538  0.00  0.00    +0.149 HD
ENDBRANCH   9  12
ENDBRANCH   3   5
BRANCH   1  18
ATOM     17  N   UNL     1      -1.374  -0.506   0.013  0.00  0.00    -0.305 N 
ATOM     18  C   UNL     1      -2.053  -0.636  -1.144  0.00  0.00    +0.300 C 
ATOM     19  O   UNL     1      -1.528  -0.327  -2.194  0.00  0.00    -0.265 OA
ATOM     20  H   UNL     1      -1.793  -0.754   0.852  0.00  0.00    +0.149 HD
BRANCH  17  22
ATOM     21  C   UNL     1      -0.032   1.538   0.018  0.00  0.00    +0.028 C 
ATOM     22  C   UNL     1      -0.002   0.008   0.003  0.00  0.00    +0.075 C 
BRANCH  22  23
ATOM     23  C   UNL     1       0.742  -0.500   1.239  0.00  0.00    +0.057 C 
BRANCH  23  24
ATOM     24  C   UNL     1       0.878  -1.999   1.162  0.00  0.00    -0.045 A 
ATOM     25  C   UNL     1      -0.104  -2.810   1.699  0.00  0.00    +0.007 A 
ATOM     26  C   UNL     1       0.018  -4.184   1.630  0.00  0.00    +0.045 A 
ATOM     27  C   UNL     1       1.129  -4.750   1.021  0.00  0.00    +0.117 A 
ATOM     28  C   UNL     1       2.114  -3.935   0.483  0.00  0.00    +0.045 A 
ATOM     29  C   UNL     1       1.984  -2.561   0.550  0.00  0.00    +0.007 A 
BRANCH  27  30
ATOM     30  O   UNL     1       1.252  -6.102   0.953  0.00  0.00    -0.507 OA
ATOM     31  H   UNL     1       0.864  -6.493   0.158  0.00  0.00    +0.292 HD
ENDBRANCH  27  30
ENDBRANCH  23  24
ENDBRANCH  22  23
ENDBRANCH  17  22
ENDBRANCH   1  18
TORSDOF 7
