REMARK  Name = ZINC62497208
REMARK  7 active torsions:
REMARK  status: ('A' for Active; 'I' for Inactive)
REMARK    1  A    between atoms: C_1  and  C_2
REMARK    2  A    between atoms: C_2  and  C_3
REMARK    3  A    between atoms: C_2  and  C_4
REMARK    4  A    between atoms: C_4  and  N_5
REMARK    5  A    between atoms: C_13  and  C_17
REMARK    6  A    between atoms: C_17  and  C_18
REMARK    7  A    between atoms: C_22  and  N_24
REMARK                            x       y       z     vdW  Elec       q    Type
REMARK                         _______ _______ _______ _____ _____    ______ ____
ROOT
ATOM      1  N   UNL     1      -0.008  -0.140   2.444  0.00  0.00    -0.265 N 
ATOM      2  C   UNL     1       0.236   1.083   3.083  0.00  0.00    +0.078 A 
ATOM      3  C   UNL     1       1.333   1.854   2.734  0.00  0.00    +0.027 A 
ATOM      4  C   UNL     1       1.567   3.052   3.383  0.00  0.00    +0.002 A 
ATOM      5  C   UNL     1       0.712   3.481   4.381  0.00  0.00    +0.004 A 
ATOM      6  C   UNL     1      -0.388   2.719   4.731  0.00  0.00    +0.047 A 
ATOM      7  C   UNL     1      -0.633   1.521   4.080  0.00  0.00    +0.143 A 
ATOM      8  O   UNL     1      -1.728   0.778   4.394  0.00  0.00    -0.477 OA
ATOM      9  C   UNL     1      -1.610  -0.640   4.260  0.00  0.00    +0.263 C 
ATOM     10  C   UNL     1      -0.947  -0.970   2.946  0.00  0.00    +0.261 C 
ATOM     11  O   UNL     1      -1.253  -1.978   2.345  0.00  0.00    -0.271 OA
ENDROOT
BRANCH   1  12
ATOM     12  C   UNL     1       0.742  -0.511   1.242  0.00  0.00    +0.117 C 
BRANCH  12  14
ATOM     13  C   UNL     1      -0.019   1.526   0.010  0.00  0.00    +0.009 C 
ATOM     14  C   UNL     1       0.002  -0.004   0.002  0.00  0.00    +0.001 C 
ATOM     15  C   UNL     1       0.718  -0.497  -1.257  0.00  0.00    +0.009 C 
ENDBRANCH  12  14
ENDBRANCH   1  12
BRANCH   9  16
ATOM     16  C   UNL     1      -0.768  -1.192   5.413  0.00  0.00    +0.089 C 
BRANCH  16  17
ATOM     17  C   UNL     1      -1.494  -0.973   6.715  0.00  0.00    -0.042 A 
ATOM     18  C   UNL     1      -1.296   0.196   7.428  0.00  0.00    +0.004 A 
ATOM     19  C   UNL     1      -1.960   0.400   8.624  0.00  0.00    +0.002 A 
ATOM     20  C   UNL     1      -2.824  -0.562   9.109  0.00  0.00    +0.023 A 
ATOM     21  C   UNL     1      -3.025  -1.736   8.395  0.00  0.00    +0.025 A 
ATOM     22  C   UNL     1      -2.361  -1.937   7.192  0.00  0.00    +0.026 A 
BRANCH  21  23
ATOM     23  N   UNL     1      -3.898  -2.712   8.883  0.00  0.00    -0.358 N 
ATOM     24  H   UNL     1      -4.365  -2.569   9.722  0.00  0.00    +0.142 HD
ATOM     25  H   UNL     1      -4.038  -3.531   8.383  0.00  0.00    +0.142 HD
ENDBRANCH  21  23
ENDBRANCH  16  17
ENDBRANCH   9  16
TORSDOF 5
