REMARK  Name = ZINC00196802
REMARK  4 active torsions:
REMARK  status: ('A' for Active; 'I' for Inactive)
REMARK    1  A    between atoms: C_4  and  C_22
REMARK    2  A    between atoms: C_5  and  C_7
REMARK    3  A    between atoms: C_9  and  C_20
REMARK    4  A    between atoms: C_10  and  N_19
REMARK                            x       y       z     vdW  Elec       q    Type
REMARK                         _______ _______ _______ _____ _____    ______ ____
ROOT
ATOM      1  C   UNL     1      -2.745   2.350   2.497  0.00  0.00    +0.101 C 
ATOM      2  C   UNL     1      -4.235   2.158   2.440  0.00  0.00    +0.098 C 
ATOM      3  C   UNL     1      -4.854   1.951   1.252  0.00  0.00    +0.198 C 
ATOM      4  O   UNL     1      -4.165   1.915   0.101  0.00  0.00    -0.445 OA
ATOM      5  C   UNL     1      -2.846   1.648   0.119  0.00  0.00    +0.115 C 
ATOM      6  C   UNL     1      -2.107   1.840   1.227  0.00  0.00    +0.046 C 
ATOM      7  C   UNL     1      -0.722   1.573   1.242  0.00  0.00    +0.163 C 
ATOM      8  O   UNL     1      -0.090   1.740   2.266  0.00  0.00    -0.292 OA
ATOM      9  C   UNL     1      -0.013   1.086   0.008  0.00  0.00    +0.080 C 
ATOM     10  C   UNL     1      -0.759   1.596  -1.230  0.00  0.00    +0.016 C 
ATOM     11  C   UNL     1      -2.212   1.124  -1.148  0.00  0.00    +0.075 C 
ENDROOT
BRANCH   1  16
ATOM     12  C   UNL     1      -2.560   6.063   1.840  0.00  0.00    +0.000 A 
ATOM     13  C   UNL     1      -1.870   6.506   2.953  0.00  0.00    +0.001 A 
ATOM     14  C   UNL     1      -1.463   5.604   3.918  0.00  0.00    +0.012 A 
ATOM     15  C   UNL     1      -1.751   4.260   3.773  0.00  0.00    +0.059 A 
ATOM     16  C   UNL     1      -2.436   3.816   2.658  0.00  0.00    -0.023 A 
ATOM     17  C   UNL     1      -2.843   4.718   1.692  0.00  0.00    +0.005 A 
BRANCH  15  18
ATOM     18  C   UNL     1      -1.313   3.277   4.828  0.00  0.00    +0.418 C 
ATOM     19  F   UNL     1      -0.644   3.958   5.851  0.00  0.00    -0.166 F 
ATOM     20  F   UNL     1      -2.435   2.629   5.356  0.00  0.00    -0.166 F 
ATOM     21  F   UNL     1      -0.454   2.332   4.258  0.00  0.00    -0.166 F 
ENDBRANCH  15  18
ENDBRANCH   1  16
BRANCH   3  22
ATOM     22  N   UNL     1      -6.216   1.775   1.227  0.00  0.00    -0.328 N 
ATOM     23  H   UNL     1      -6.724   1.799   2.053  0.00  0.00    +0.145 HD
ATOM     24  H   UNL     1      -6.670   1.626   0.382  0.00  0.00    +0.145 HD
ENDBRANCH   3  22
BRANCH   2  25
ATOM     25  C   UNL     1      -5.004   2.194   3.647  0.00  0.00    +0.101 C 
ATOM     26  N   UNL     1      -5.614   2.223   4.605  0.00  0.00    -0.191 NA
ENDBRANCH   2  25
TORSDOF 4
