REMARK  Name = ZINC67081247
REMARK  11 active torsions:
REMARK  status: ('A' for Active; 'I' for Inactive)
REMARK    1  A    between atoms: C_1  and  C_2
REMARK    2  A    between atoms: C_2  and  C_3
REMARK    3  A    between atoms: C_3  and  C_5
REMARK    4  A    between atoms: C_3  and  N_6
REMARK    5  A    between atoms: C_7  and  C_9
REMARK    6  A    between atoms: C_9  and  C_11
REMARK    7  A    between atoms: C_9  and  N_12
REMARK    8  A    between atoms: C_22  and  C_24
REMARK    9  A    between atoms: C_24  and  C_25
REMARK   10  A    between atoms: C_24  and  C_26
REMARK   11  A    between atoms: C_24  and  C_27
REMARK                            x       y       z     vdW  Elec       q    Type
REMARK                         _______ _______ _______ _____ _____    ______ ____
ROOT
ATOM      1  N   UNL     1       0.565   2.284  -6.807  0.00  0.00    -0.288 N 
ATOM      2  C   UNL     1       0.168   2.028  -8.069  0.00  0.00    +0.303 C 
ATOM      3  O   UNL     1      -1.014   2.067  -8.354  0.00  0.00    -0.253 OA
ATOM      4  N   UNL     1       1.080   1.731  -9.016  0.00  0.00    -0.284 N 
ATOM      5  C   UNL     1       0.696   1.462 -10.357  0.00  0.00    +0.111 C 
ATOM      6  C   UNL     1       0.250  -0.013 -10.625  0.00  0.00    +0.038 C 
ATOM      7  C   UNL     1       1.180  -0.940  -9.776  0.00  0.00    +0.109 C 
ATOM      8  N   UNL     1       2.535  -0.517  -9.707  0.00  0.00    -0.299 N 
ATOM      9  C   UNL     1       2.934   0.280  -8.519  0.00  0.00    +0.126 C 
ATOM     10  C   UNL     1       2.531   1.675  -8.704  0.00  0.00    +0.128 C 
ATOM     11  C   UNL     1       3.418  -0.827 -10.677  0.00  0.00    +0.221 C 
ATOM     12  O   UNL     1       3.074  -1.515 -11.615  0.00  0.00    -0.275 OA
ATOM     13  H   UNL     1       1.508   2.253  -6.580  0.00  0.00    +0.151 HD
ENDROOT
BRANCH  11  14
ATOM     14  C   UNL     1       4.834  -0.317 -10.597  0.00  0.00    +0.039 C 
ATOM     15  C   UNL     1       5.559  -0.615 -11.912  0.00  0.00    +0.020 C 
ATOM     16  C   UNL     1       4.819   1.194 -10.354  0.00  0.00    +0.020 C 
ATOM     17  C   UNL     1       5.562  -1.012  -9.445  0.00  0.00    +0.020 C 
ENDBRANCH  11  14
BRANCH   1  18
ATOM     18  C   UNL     1      -0.426   2.607  -5.778  0.00  0.00    +0.157 C 
ATOM     19  C   UNL     1      -0.741   4.104  -5.826  0.00  0.00    +0.038 C 
BRANCH  18  21
ATOM     20  N   UNL     1      -0.618   2.465  -3.316  0.00  0.00    -0.311 N 
ATOM     21  C   UNL     1       0.124   2.253  -4.421  0.00  0.00    +0.233 C 
ATOM     22  O   UNL     1       1.236   1.776  -4.323  0.00  0.00    -0.274 OA
ATOM     23  H   UNL     1      -1.507   2.845  -3.395  0.00  0.00    +0.149 HD
BRANCH  20  24
ATOM     24  C   UNL     1      -0.083   2.120  -1.997  0.00  0.00    +0.070 C 
ATOM     25  C   UNL     1      -0.345   0.640  -1.711  0.00  0.00    +0.028 C 
BRANCH  24  27
ATOM     26  C   UNL     1      -0.404   4.446  -1.142  0.00  0.00    +0.005 C 
ATOM     27  C   UNL     1      -0.768   2.975  -0.929  0.00  0.00    +0.018 C 
ENDBRANCH  24  27
ENDBRANCH  20  24
ENDBRANCH  18  21
ENDBRANCH   1  18
TORSDOF 5
