REMARK  Name = ZINC58021250
REMARK  4 active torsions:
REMARK  status: ('A' for Active; 'I' for Inactive)
REMARK    1  A    between atoms: C_6  and  C_7
REMARK    2  A    between atoms: C_12  and  C_15
REMARK    3  A    between atoms: C_15  and  C_16
REMARK    4  A    between atoms: C_16  and  N_17
REMARK                            x       y       z     vdW  Elec       q    Type
REMARK                         _______ _______ _______ _____ _____    ______ ____
ROOT
ATOM      1  C   UNL     1      -1.258  -1.186  -0.333  0.00  0.00    +0.064 A 
ATOM      2  C   UNL     1      -1.538  -2.161   0.554  0.00  0.00    +0.075 A 
ATOM      3  S   UNL     1      -3.232  -2.556   0.147  0.00  0.00    -0.055 S 
ATOM      4  C   UNL     1      -3.440  -1.391  -1.176  0.00  0.00    +0.200 A 
ATOM      5  N   UNL     1      -2.220  -0.766  -1.231  0.00  0.00    -0.273 N 
ATOM      6  C   UNL     1      -2.368   0.151  -2.255  0.00  0.00    +0.137 A 
ATOM      7  N   UNL     1      -3.579   0.041  -2.722  0.00  0.00    -0.133 NA
ATOM      8  N   UNL     1      -4.215  -0.881  -2.086  0.00  0.00    -0.122 NA
ENDROOT
BRANCH   1  14
ATOM      9  C   UNL     1       0.238   0.771   0.054  0.00  0.00    +0.010 A 
ATOM     10  C   UNL     1       1.490   1.342   0.039  0.00  0.00    +0.004 A 
ATOM     11  C   UNL     1       2.601   0.609  -0.362  0.00  0.00    -0.044 A 
ATOM     12  C   UNL     1       2.454  -0.707  -0.747  0.00  0.00    -0.044 A 
ATOM     13  C   UNL     1       1.197  -1.291  -0.740  0.00  0.00    +0.014 A 
ATOM     14  C   UNL     1       0.081  -0.559  -0.340  0.00  0.00    -0.000 A 
ATOM     15  C   UNL     1       3.619  -1.561  -1.177  0.00  0.00    +0.035 C 
ATOM     16  C   UNL     1       4.819  -0.689  -1.541  0.00  0.00    +0.005 C 
ATOM     17  C   UNL     1       5.075   0.288  -0.388  0.00  0.00    +0.005 C 
ATOM     18  C   UNL     1       3.937   1.306  -0.358  0.00  0.00    +0.035 C 
ENDBRANCH   1  14
BRANCH   6  19
ATOM     19  C   UNL     1      -1.314   1.111  -2.745  0.00  0.00    +0.057 C 
BRANCH  19  20
ATOM     20  C   UNL     1      -0.417   0.406  -3.764  0.00  0.00    -0.079 C 
BRANCH  20  21
ATOM     21  N   UNL     1       0.631   1.331  -4.217  0.00  0.00    +0.378 N 
ATOM     22  H   UNL     1       0.204   2.139  -4.646  0.00  0.00    -0.090 HD
ATOM     23  H   UNL     1       1.185   1.624  -3.427  0.00  0.00    -0.090 HD
ATOM     24  H   UNL     1       1.222   0.866  -4.889  0.00  0.00    -0.090 HD
ENDBRANCH  20  21
ENDBRANCH  19  20
ENDBRANCH   6  19
TORSDOF 4
