REMARK  Name = ZINC20411770
REMARK  8 active torsions:
REMARK  status: ('A' for Active; 'I' for Inactive)
REMARK    1  A    between atoms: C_1  and  C_2
REMARK    2  A    between atoms: C_5  and  C_9
REMARK    3  A    between atoms: C_9  and  C_12
REMARK    4  A    between atoms: N_10  and  O_11
REMARK    5  A    between atoms: C_12  and  C_13
REMARK    6  A    between atoms: C_20  and  O_21
REMARK    7  A    between atoms: O_21  and  C_22
REMARK    8  A    between atoms: N_28  and  C_29
REMARK                            x       y       z     vdW  Elec       q    Type
REMARK                         _______ _______ _______ _____ _____    ______ ____
ROOT
ATOM      1  C   UNL     1       1.228   2.311  -0.607  0.00  0.00    -0.028 C 
ATOM      2  C   UNL     1       1.700   3.741  -0.556  0.00  0.00    -0.012 A 
ATOM      3  C   UNL     1       0.820   4.792  -0.404  0.00  0.00    -0.040 A 
ATOM      4  C   UNL     1       1.296   6.093  -0.357  0.00  0.00    +0.053 A 
ATOM      5  C   UNL     1       2.653   6.350  -0.466  0.00  0.00    +0.170 A 
ATOM      6  C   UNL     1       3.543   5.293  -0.623  0.00  0.00    +0.208 A 
ATOM      7  C   UNL     1       3.063   3.991  -0.668  0.00  0.00    +0.167 A 
ATOM      8  O   UNL     1       4.810   5.798  -0.708  0.00  0.00    -0.449 OA
ATOM      9  C   UNL     1       4.647   7.196  -1.010  0.00  0.00    +0.467 C 
ATOM     10  O   UNL     1       3.359   7.518  -0.451  0.00  0.00    -0.452 OA
ATOM     11  C   UNL     1      -0.666   4.569  -0.289  0.00  0.00    +0.017 C 
ATOM     12  C   UNL     1      -0.950   3.106   0.053  0.00  0.00    -0.074 C 
ATOM     13  N   UNL     1      -0.209   2.254  -0.891  0.00  0.00    +0.383 N 
ATOM     14  C   UNL     1      -0.700   0.870  -0.848  0.00  0.00    -0.095 C 
ATOM     15  H   UNL     1      -0.374   2.634  -1.910  0.00  0.00    -0.081 HD
ENDROOT
BRANCH   7  16
ATOM     16  O   UNL     1       3.931   2.956  -0.821  0.00  0.00    -0.491 OA
ATOM     17  C   UNL     1       4.577   2.471   0.358  0.00  0.00    +0.277 C 
ENDBRANCH   7  16
BRANCH   1  18
ATOM     18  C   UNL     1       1.990   1.567  -1.705  0.00  0.00    +0.044 C 
BRANCH  18  19
ATOM     19  C   UNL     1       1.834   2.302  -3.011  0.00  0.00    +0.060 C 
ATOM     20  N   UNL     1       1.061   3.320  -3.084  0.00  0.00    -0.096 NA
BRANCH  19  25
ATOM     21  C   UNL     1       5.117  -0.322  -6.953  0.00  0.00    +0.039 C 
ATOM     22  C   UNL     1       4.246   0.328  -5.909  0.00  0.00    -0.076 C 
ATOM     23  C   UNL     1       4.817   1.082  -5.026  0.00  0.00    -0.027 C 
ATOM     24  C   UNL     1       4.085   1.786  -3.921  0.00  0.00    +0.036 C 
ATOM     25  C   UNL     1       2.588   1.840  -4.231  0.00  0.00    +0.041 C 
ATOM     26  C   UNL     1       2.123   0.431  -4.622  0.00  0.00    +0.014 C 
ATOM     27  C   UNL     1       2.770   0.060  -5.958  0.00  0.00    +0.031 C 
ENDBRANCH  19  25
BRANCH  20  28
ATOM     28  O   UNL     1       0.999   4.077  -4.279  0.00  0.00    -0.409 OA
ATOM     29  H   UNL     1       0.335   4.952  -4.342  0.00  0.00    +0.328 HD
ENDBRANCH  20  28
ENDBRANCH  18  19
ENDBRANCH   1  18
TORSDOF 5
