REMARK  Name = ZINC49055306
REMARK  10 active torsions:
REMARK  status: ('A' for Active; 'I' for Inactive)
REMARK    1  A    between atoms: C_1  and  C_2
REMARK    2  A    between atoms: C_4  and  C_9
REMARK    3  A    between atoms: C_9  and  C_10
REMARK    4  A    between atoms: C_15  and  O_17
REMARK    5  A    between atoms: O_17  and  C_18
REMARK    6  A    between atoms: C_18  and  C_19
REMARK    7  A    between atoms: C_19  and  N_20
REMARK    8  A    between atoms: N_20  and  C_21
REMARK    9  A    between atoms: C_21  and  C_22
REMARK   10  A    between atoms: C_22  and  C_23
REMARK                            x       y       z     vdW  Elec       q    Type
REMARK                         _______ _______ _______ _____ _____    ______ ____
ROOT
ATOM      1  C   UNL     1       1.466  -2.988  -2.975  0.00  0.00    +0.005 C 
ATOM      2  C   UNL     1       2.285  -3.902  -2.039  0.00  0.00    -0.076 C 
ATOM      3  N   UNL     1       3.173  -4.671  -2.950  0.00  0.00    +0.381 N 
ATOM      4  C   UNL     1       2.314  -4.980  -4.122  0.00  0.00    -0.050 C 
ATOM      5  C   UNL     1       1.485  -3.695  -4.347  0.00  0.00    +0.103 C 
ATOM      6  H   UNL     1       3.963  -4.109  -3.229  0.00  0.00    -0.086 HD
ATOM      7  H   UNL     1       3.483  -5.522  -2.505  0.00  0.00    -0.086 HD
ENDROOT
BRANCH   1   8
ATOM      8  C   UNL     1       0.029  -2.856  -2.465  0.00  0.00    +0.057 C 
BRANCH   8  12
ATOM      9  C   UNL     1      -0.018   1.503   0.010  0.00  0.00    +0.044 C 
ATOM     10  C   UNL     1       0.002  -0.004   0.002  0.00  0.00    -0.046 A 
ATOM     11  C   UNL     1       0.006  -0.708  -1.196  0.00  0.00    +0.024 A 
ATOM     12  C   UNL     1       0.025  -2.087  -1.169  0.00  0.00    +0.018 A 
ATOM     13  N   UNL     1       0.040  -2.742  -0.023  0.00  0.00    -0.347 N 
ATOM     14  C   UNL     1       0.036  -2.108   1.139  0.00  0.00    +0.094 A 
ATOM     15  C   UNL     1       0.023  -0.717   1.187  0.00  0.00    +0.044 A 
ATOM     16  N   UNL     1       0.052  -2.838   2.322  0.00  0.00    -0.345 N 
ATOM     17  H   UNL     1       0.065  -3.807   2.294  0.00  0.00    +0.144 HD
ATOM     18  H   UNL     1       0.049  -2.377   3.176  0.00  0.00    +0.144 HD
ATOM     19  H   UNL     1       0.054  -3.712  -0.033  0.00  0.00    +0.167 HD
ENDBRANCH   8  12
ENDBRANCH   1   8
BRANCH   5  20
ATOM     20  O   UNL     1       0.155  -4.026  -4.753  0.00  0.00    -0.377 OA
BRANCH  20  21
ATOM     21  C   UNL     1      -0.034  -4.037  -6.169  0.00  0.00    +0.175 C 
BRANCH  21  22
ATOM     22  C   UNL     1      -1.486  -4.402  -6.486  0.00  0.00    +0.109 C 
BRANCH  22  23
ATOM     23  N   UNL     1      -2.377  -3.348  -5.984  0.00  0.00    -0.308 NA
ATOM     24  H   UNL     1      -2.235  -3.195  -4.996  0.00  0.00    +0.122 HD
BRANCH  23  25
ATOM     25  C   UNL     1      -3.782  -3.665  -6.271  0.00  0.00    +0.162 C 
BRANCH  25  26
ATOM     26  C   UNL     1      -4.678  -2.547  -5.734  0.00  0.00    +0.286 C 
ATOM     27  F   UNL     1      -4.499  -2.430  -4.351  0.00  0.00    -0.199 F 
ATOM     28  F   UNL     1      -4.336  -1.339  -6.351  0.00  0.00    -0.199 F 
BRANCH  26  29
ATOM     29  C   UNL     1      -6.119  -2.872  -6.029  0.00  0.00    +0.024 A 
ATOM     30  C   UNL     1      -6.693  -2.454  -7.215  0.00  0.00    +0.009 A 
ATOM     31  C   UNL     1      -8.015  -2.751  -7.487  0.00  0.00    +0.003 A 
ATOM     32  C   UNL     1      -8.765  -3.467  -6.573  0.00  0.00    +0.038 A 
ATOM     33  C   UNL     1      -8.192  -3.886  -5.385  0.00  0.00    +0.124 A 
ATOM     34  C   UNL     1      -6.865  -3.593  -5.116  0.00  0.00    +0.047 A 
ATOM     35  F   UNL     1      -8.924  -4.585  -4.490  0.00  0.00    -0.205 F 
ENDBRANCH  26  29
ENDBRANCH  25  26
ENDBRANCH  23  25
ENDBRANCH  22  23
ENDBRANCH  21  22
ENDBRANCH  20  21
ENDBRANCH   5  20
TORSDOF 9
