REMARK  Name = ZINC44235473
REMARK  14 active torsions:
REMARK  status: ('A' for Active; 'I' for Inactive)
REMARK    1  A    between atoms: C_1  and  C_2
REMARK    2  A    between atoms: C_2  and  C_3
REMARK    3  A    between atoms: C_2  and  C_4
REMARK    4  A    between atoms: C_2  and  C_5
REMARK    5  A    between atoms: C_7  and  C_22
REMARK    6  A    between atoms: N_8  and  C_10
REMARK    7  A    between atoms: C_13  and  C_16
REMARK    8  A    between atoms: C_16  and  C_18
REMARK    9  A    between atoms: C_16  and  N_21
REMARK   10  A    between atoms: C_18  and  C_19
REMARK   11  A    between atoms: C_19  and  O_20
REMARK   12  A    between atoms: C_22  and  C_23
REMARK   13  A    between atoms: C_22  and  C_24
REMARK   14  A    between atoms: C_22  and  C_25
REMARK                            x       y       z     vdW  Elec       q    Type
REMARK                         _______ _______ _______ _____ _____    ______ ____
ROOT
ATOM      1  C   UNL     1       0.248  -1.590  -4.536  0.00  0.00    +0.066 A 
ATOM      2  C   UNL     1       0.563  -2.919  -4.286  0.00  0.00    +0.028 A 
ATOM      3  C   UNL     1       0.250  -3.889  -5.218  0.00  0.00    +0.004 A 
ATOM      4  C   UNL     1      -0.376  -3.538  -6.399  0.00  0.00    -0.062 A 
ATOM      5  C   UNL     1      -0.691  -2.216  -6.652  0.00  0.00    +0.004 A 
ATOM      6  C   UNL     1      -0.387  -1.242  -5.721  0.00  0.00    +0.028 A 
ENDROOT
BRANCH   1  10
ATOM      7  C   UNL     1       0.318   0.991  -2.102  0.00  0.00    +0.069 A 
ATOM      8  C   UNL     1       1.683   0.738  -2.280  0.00  0.00    +0.049 A 
ATOM      9  C   UNL     1       1.808  -0.246  -3.201  0.00  0.00    +0.051 A 
ATOM     10  N   UNL     1       0.564  -0.604  -3.592  0.00  0.00    -0.236 N 
ATOM     11  N   UNL     1      -0.353   0.184  -2.884  0.00  0.00    -0.171 NA
BRANCH   7  13
ATOM     12  C   UNL     1      -0.096   3.411  -1.757  0.00  0.00    +0.017 C 
ATOM     13  C   UNL     1      -0.276   2.011  -1.166  0.00  0.00    +0.006 C 
ATOM     14  C   UNL     1       0.431   1.935   0.188  0.00  0.00    +0.017 C 
ATOM     15  C   UNL     1      -1.767   1.725  -0.980  0.00  0.00    +0.017 C 
ENDBRANCH   7  13
BRANCH   9  16
ATOM     16  C   UNL     1       3.101  -0.837  -3.701  0.00  0.00    +0.005 C 
ATOM     17  C   UNL     1       3.643  -1.826  -2.667  0.00  0.00    +0.017 C 
ATOM     18  C   UNL     1       2.851  -1.566  -5.022  0.00  0.00    +0.017 C 
ATOM     19  C   UNL     1       4.122   0.282  -3.920  0.00  0.00    +0.017 C 
ENDBRANCH   9  16
ENDBRANCH   1  10
BRANCH   4  20
ATOM     20  C   UNL     1      -0.716  -4.599  -7.414  0.00  0.00    -0.042 C 
BRANCH  20  21
ATOM     21  N   UNL     1      -2.037  -4.319  -7.992  0.00  0.00    +0.383 N 
ATOM     22  H   UNL     1      -2.265  -5.029  -8.672  0.00  0.00    -0.089 HD
ATOM     23  H   UNL     1      -2.732  -4.319  -7.260  0.00  0.00    -0.089 HD
ATOM     24  H   UNL     1      -2.023  -3.415  -8.442  0.00  0.00    -0.089 HD
ENDBRANCH  20  21
BRANCH  20  25
ATOM     25  C   UNL     1       0.337  -4.599  -8.524  0.00  0.00    +0.016 C 
BRANCH  25  26
ATOM     26  C   UNL     1       0.062  -5.756  -9.488  0.00  0.00    +0.154 C 
BRANCH  26  27
ATOM     27  O   UNL     1       1.046  -5.755 -10.524  0.00  0.00    -0.395 OA
ATOM     28  H   UNL     1       0.934  -6.464 -11.173  0.00  0.00    +0.209 HD
ENDBRANCH  26  27
ENDBRANCH  25  26
ENDBRANCH  20  25
ENDBRANCH   4  20
TORSDOF 8
