REMARK  Name = ZINC57403292
REMARK  7 active torsions:
REMARK  status: ('A' for Active; 'I' for Inactive)
REMARK    1  A    between atoms: C_1  and  C_2
REMARK    2  A    between atoms: C_5  and  C_8
REMARK    3  A    between atoms: C_8  and  C_10
REMARK    4  A    between atoms: C_8  and  N_16
REMARK    5  A    between atoms: N_16  and  C_17
REMARK    6  A    between atoms: C_17  and  C_18
REMARK    7  A    between atoms: C_31  and  C_33
REMARK                            x       y       z     vdW  Elec       q    Type
REMARK                         _______ _______ _______ _____ _____    ______ ____
ROOT
ATOM      1  C   UNL     1       1.474  -6.098   0.712  0.00  0.00    +0.178 C 
ENDROOT
BRANCH   1   2
ATOM      2  C   UNL     1       2.394  -6.560   1.813  0.00  0.00    +0.234 C 
ATOM      3  O   UNL     1       2.602  -5.845   2.769  0.00  0.00    -0.274 OA
ATOM      4  N   UNL     1       2.985  -7.769   1.734  0.00  0.00    -0.265 N 
ATOM      5  C   UNL     1       2.758  -8.604   0.631  0.00  0.00    +0.058 A 
ATOM      6  C   UNL     1       1.537  -9.237   0.464  0.00  0.00    +0.025 A 
ATOM      7  C   UNL     1       1.339 -10.076  -0.618  0.00  0.00    +0.002 A 
ATOM      8  C   UNL     1       2.356 -10.285  -1.532  0.00  0.00    +0.002 A 
ATOM      9  C   UNL     1       3.574  -9.650  -1.377  0.00  0.00    +0.025 A 
ATOM     10  C   UNL     1       3.776  -8.800  -0.302  0.00  0.00    +0.055 A 
ATOM     11  N   UNL     1       4.981  -8.103  -0.156  0.00  0.00    -0.284 N 
ATOM     12  C   UNL     1       5.623  -8.088   1.033  0.00  0.00    +0.219 C 
ATOM     13  O   UNL     1       6.621  -7.412   1.169  0.00  0.00    -0.275 OA
ATOM     14  C   UNL     1       5.108  -8.904   2.189  0.00  0.00    +0.118 C 
ATOM     15  C   UNL     1       3.881  -8.231   2.796  0.00  0.00    +0.087 C 
ATOM     16  C   UNL     1       3.143  -9.236   3.683  0.00  0.00    +0.029 C 
ATOM     17  H   UNL     1       5.357  -7.627  -0.912  0.00  0.00    +0.155 HD
ENDBRANCH   1   2
BRANCH   1  18
ATOM     18  N   UNL     1       0.962  -4.759   1.032  0.00  0.00    -0.298 NA
ATOM     19  H   UNL     1       1.719  -4.110   1.186  0.00  0.00    +0.123 HD
BRANCH  18  20
ATOM     20  C   UNL     1       0.059  -4.275  -0.021  0.00  0.00    +0.115 C 
BRANCH  20  25
ATOM     21  C   UNL     1      -0.018   1.503   0.010  0.00  0.00    +0.044 C 
ATOM     22  C   UNL     1       0.002  -0.004   0.002  0.00  0.00    -0.050 A 
ATOM     23  C   UNL     1       0.006  -0.689  -1.199  0.00  0.00    +0.004 A 
ATOM     24  C   UNL     1       0.025  -2.071  -1.206  0.00  0.00    +0.006 A 
ATOM     25  C   UNL     1       0.040  -2.768  -0.013  0.00  0.00    -0.026 A 
ATOM     26  C   UNL     1       0.037  -2.084   1.188  0.00  0.00    +0.006 A 
ATOM     27  C   UNL     1       0.023  -0.702   1.195  0.00  0.00    +0.004 A 
ENDBRANCH  20  25
BRANCH  20  28
ATOM     28  C   UNL     1      -1.332  -4.797   0.230  0.00  0.00    -0.026 A 
ATOM     29  C   UNL     1      -1.831  -4.840   1.518  0.00  0.00    +0.005 A 
ATOM     30  C   UNL     1      -3.108  -5.318   1.749  0.00  0.00    +0.000 A 
ATOM     31  C   UNL     1      -3.884  -5.754   0.692  0.00  0.00    +0.000 A 
ATOM     32  C   UNL     1      -3.385  -5.710  -0.597  0.00  0.00    +0.000 A 
ATOM     33  C   UNL     1      -2.110  -5.228  -0.828  0.00  0.00    +0.005 A 
ENDBRANCH  20  28
ENDBRANCH  18  20
ENDBRANCH   1  18
TORSDOF 5
