REMARK  Name = ZINC12275865
REMARK  5 active torsions:
REMARK  status: ('A' for Active; 'I' for Inactive)
REMARK    1  A    between atoms: C_1  and  C_2
REMARK    2  A    between atoms: N_4  and  C_20
REMARK    3  A    between atoms: C_7  and  N_9
REMARK    4  A    between atoms: N_10  and  C_11
REMARK    5  A    between atoms: C_20  and  N_22
REMARK                            x       y       z     vdW  Elec       q    Type
REMARK                         _______ _______ _______ _____ _____    ______ ____
ROOT
ATOM      1  C   UNL     1      -0.018   1.503   0.010  0.00  0.00    +0.065 C 
ATOM      2  C   UNL     1       0.002  -0.004   0.002  0.00  0.00    +0.070 C 
ATOM      3  N   UNL     1       0.008  -0.756  -1.029  0.00  0.00    -0.178 NA
ATOM      4  N   UNL     1       0.028  -2.112  -0.717  0.00  0.00    -0.138 N 
ATOM      5  C   UNL     1       0.036  -2.304   0.619  0.00  0.00    +0.273 C 
ATOM      6  O   UNL     1       0.052  -3.361   1.212  0.00  0.00    -0.271 OA
ATOM      7  C   UNL     1       0.026  -0.909   1.216  0.00  0.00    +0.261 C 
ENDROOT
BRANCH   7   8
ATOM      8  N   UNL     1       1.235  -0.677   2.009  0.00  0.00    -0.168 NA
ATOM      9  N   UNL     1       1.388  -1.260   3.092  0.00  0.00    -0.151 NA
BRANCH   9  10
ATOM     10  C   UNL     1       2.518  -1.043   3.834  0.00  0.00    +0.114 A 
ATOM     11  C   UNL     1       3.499  -0.160   3.375  0.00  0.00    +0.047 A 
ATOM     12  C   UNL     1       4.636   0.055   4.128  0.00  0.00    +0.032 A 
ATOM     13  C   UNL     1       4.806  -0.603   5.334  0.00  0.00    +0.020 A 
ATOM     14  C   UNL     1       3.838  -1.479   5.795  0.00  0.00    +0.032 A 
ATOM     15  C   UNL     1       2.693  -1.699   5.055  0.00  0.00    +0.047 A 
ATOM     16 BR   UNL     1       1.369  -2.890   5.690  0.00  0.00    -0.048 Br
ATOM     17 BR   UNL     1       6.368  -0.303   6.357  0.00  0.00    -0.050 Br
ATOM     18 BR   UNL     1       3.270   0.739   1.727  0.00  0.00    -0.048 Br
ENDBRANCH   9  10
ENDBRANCH   7   8
BRANCH   4  19
ATOM     19  C   UNL     1       0.037  -3.103  -1.630  0.00  0.00    +0.158 C 
ATOM     20  S   UNL     1       0.060  -4.737  -1.119  0.00  0.00    -0.017 S 
BRANCH  19  21
ATOM     21  N   UNL     1       0.027  -2.809  -2.945  0.00  0.00    -0.339 N 
ATOM     22  H   UNL     1       0.014  -1.883  -3.235  0.00  0.00    +0.144 HD
ATOM     23  H   UNL     1       0.034  -3.523  -3.602  0.00  0.00    +0.144 HD
ENDBRANCH  19  21
ENDBRANCH   4  19
TORSDOF 4
