REMARK  Name = ZINC12390202
REMARK  6 active torsions:
REMARK  status: ('A' for Active; 'I' for Inactive)
REMARK    1  A    between atoms: C_1  and  C_2
REMARK    2  A    between atoms: C_2  and  C_3
REMARK    3  A    between atoms: C_3  and  C_4
REMARK    4  A    between atoms: N_6  and  C_7
REMARK    5  A    between atoms: C_7  and  C_26
REMARK    6  A    between atoms: N_15  and  C_20
REMARK                            x       y       z     vdW  Elec       q    Type
REMARK                         _______ _______ _______ _____ _____    ______ ____
ROOT
ATOM      1  C   UNL     1      -1.259   1.815  -0.020  0.00  0.00    +0.240 C 
ATOM      2  C   UNL     1      -2.396   0.845   0.200  0.00  0.00    +0.097 A 
ATOM      3  C   UNL     1      -2.913  -0.213  -0.558  0.00  0.00    +0.262 A 
ATOM      4  O   UNL     1      -2.419  -0.497  -1.636  0.00  0.00    -0.267 OA
ATOM      5  N   UNL     1      -3.964  -0.914  -0.084  0.00  0.00    -0.274 N 
ATOM      6  H   UNL     1      -4.341  -1.671  -0.618  0.00  0.00    +0.173 HD
ATOM      7  C   UNL     1      -4.506  -0.597   1.106  0.00  0.00    +0.335 A 
ATOM      8  O   UNL     1      -5.452  -1.240   1.519  0.00  0.00    -0.246 OA
ATOM      9  N   UNL     1      -4.024   0.414   1.849  0.00  0.00    -0.249 N 
ATOM     10  C   UNL     1      -2.950   1.160   1.405  0.00  0.00    +0.125 A 
ATOM     11  N   UNL     1      -2.298   2.223   1.983  0.00  0.00    -0.269 N 
ATOM     12  C   UNL     1      -1.285   2.684   1.222  0.00  0.00    +0.256 C 
ATOM     13  O   UNL     1      -0.542   3.607   1.478  0.00  0.00    -0.272 OA
ATOM     14  H   UNL     1      -2.539   2.600   2.843  0.00  0.00    +0.156 HD
ENDROOT
BRANCH   9  15
ATOM     15  C   UNL     1      -4.615   0.713   3.083  0.00  0.00    +0.053 A 
ATOM     16  C   UNL     1      -5.911   1.210   3.132  0.00  0.00    +0.026 A 
ATOM     17  C   UNL     1      -6.493   1.498   4.351  0.00  0.00    +0.002 A 
ATOM     18  C   UNL     1      -5.783   1.303   5.521  0.00  0.00    +0.000 A 
ATOM     19  C   UNL     1      -4.490   0.814   5.476  0.00  0.00    +0.002 A 
ATOM     20  C   UNL     1      -3.904   0.518   4.260  0.00  0.00    +0.026 A 
ENDBRANCH   9  15
BRANCH   1  23
ATOM     21  C   UNL     1       0.385   0.238   0.845  0.00  0.00    +0.214 C 
ATOM     22  O   UNL     1      -0.287   0.128   1.848  0.00  0.00    -0.276 OA
ATOM     23  N   UNL     1       0.016   1.100  -0.123  0.00  0.00    -0.291 N 
ATOM     24  H   UNL     1       0.596   1.251  -0.886  0.00  0.00    +0.150 HD
BRANCH  21  25
ATOM     25  C   UNL     1       1.635  -0.588   0.681  0.00  0.00    +0.095 C 
BRANCH  25  27
ATOM     26  C   UNL     1       3.092  -2.316   1.746  0.00  0.00    +0.004 C 
ATOM     27  C   UNL     1       1.824  -1.477   1.912  0.00  0.00    +0.006 C 
ENDBRANCH  25  27
ENDBRANCH  21  25
ENDBRANCH   1  23
BRANCH   1  28
ATOM     28  C   UNL     1      -1.505   2.658  -1.272  0.00  0.00    +0.424 C 
ATOM     29  F   UNL     1      -1.596   1.819  -2.389  0.00  0.00    -0.167 F 
ATOM     30  F   UNL     1      -2.699   3.373  -1.127  0.00  0.00    -0.167 F 
ATOM     31  F   UNL     1      -0.444   3.553  -1.448  0.00  0.00    -0.167 F 
ENDBRANCH   1  28
TORSDOF 5
