REMARK  Name = ZINC09462005
REMARK  5 active torsions:
REMARK  status: ('A' for Active; 'I' for Inactive)
REMARK    1  A    between atoms: C_1  and  C_2
REMARK    2  A    between atoms: C_3  and  N_9
REMARK    3  A    between atoms: C_14  and  C_28
REMARK    4  A    between atoms: N_16  and  C_22
REMARK    5  A    between atoms: C_33  and  O_34
REMARK                            x       y       z     vdW  Elec       q    Type
REMARK                         _______ _______ _______ _____ _____    ______ ____
ROOT
ATOM      1  N   UNL     1       0.504   0.579  -1.643  0.00  0.00    -0.208 N 
ATOM      2  C   UNL     1       1.541   0.943  -2.406  0.00  0.00    +0.235 C 
ATOM      3  O   UNL     1       2.664   1.158  -2.005  0.00  0.00    -0.274 OA
ATOM      4  C   UNL     1       1.093   1.045  -3.846  0.00  0.00    +0.146 C 
ATOM      5  C   UNL     1       1.127   2.526  -4.289  0.00  0.00    +0.160 C 
ATOM      6  N   UNL     1      -0.197   2.705  -4.933  0.00  0.00    -0.244 N 
ATOM      7  O   UNL     1      -1.096   1.950  -4.120  0.00  0.00    -0.257 OA
ATOM      8  C   UNL     1      -0.421   0.705  -3.777  0.00  0.00    +0.249 C 
ATOM      9  C   UNL     1      -0.643   0.404  -2.311  0.00  0.00    +0.259 C 
ATOM     10  O   UNL     1      -1.695   0.061  -1.817  0.00  0.00    -0.272 OA
ENDROOT
BRANCH   1  13
ATOM     11  C   UNL     1       0.023   2.807   0.061  0.00  0.00    +0.047 C 
ATOM     12  C   UNL     1       0.384   1.450   0.608  0.00  0.00    -0.010 A 
ATOM     13  C   UNL     1       0.611   0.389  -0.258  0.00  0.00    +0.048 A 
ATOM     14  C   UNL     1       0.943  -0.860   0.249  0.00  0.00    +0.024 A 
ATOM     15  C   UNL     1       1.048  -1.044   1.614  0.00  0.00    +0.003 A 
ATOM     16  C   UNL     1       0.821   0.013   2.476  0.00  0.00    +0.020 A 
ATOM     17  C   UNL     1       0.495   1.261   1.973  0.00  0.00    +0.046 A 
ATOM     18 CL   UNL     1       0.219   2.588   3.058  0.00  0.00    -0.083 Cl
ENDBRANCH   1  13
BRANCH   6  19
ATOM     19  C   UNL     1      -0.496   3.446  -6.079  0.00  0.00    +0.065 A 
ATOM     20  C   UNL     1      -1.151   2.844  -7.146  0.00  0.00    +0.028 A 
ATOM     21  C   UNL     1      -1.446   3.580  -8.277  0.00  0.00    +0.002 A 
ATOM     22  C   UNL     1      -1.091   4.914  -8.348  0.00  0.00    +0.000 A 
ATOM     23  C   UNL     1      -0.439   5.516  -7.287  0.00  0.00    +0.002 A 
ATOM     24  C   UNL     1      -0.145   4.788  -6.151  0.00  0.00    +0.028 A 
ENDBRANCH   6  19
BRANCH   5  25
ATOM     25  C   UNL     1       2.242   2.762  -5.275  0.00  0.00    +0.020 A 
ATOM     26  C   UNL     1       2.060   2.458  -6.611  0.00  0.00    +0.009 A 
ATOM     27  C   UNL     1       3.083   2.673  -7.516  0.00  0.00    +0.001 A 
ATOM     28  C   UNL     1       4.290   3.195  -7.087  0.00  0.00    +0.004 A 
ATOM     29  C   UNL     1       4.476   3.501  -5.754  0.00  0.00    +0.046 A 
ATOM     30  C   UNL     1       3.450   3.290  -4.844  0.00  0.00    +0.122 A 
BRANCH  30  31
ATOM     31  O   UNL     1       3.630   3.596  -3.532  0.00  0.00    -0.506 OA
ATOM     32  H   UNL     1       3.986   2.869  -3.004  0.00  0.00    +0.292 HD
ENDBRANCH  30  31
ENDBRANCH   5  25
TORSDOF 4
