REMARK  Name = ZINC00261074
REMARK  5 active torsions:
REMARK  status: ('A' for Active; 'I' for Inactive)
REMARK    1  A    between atoms: C_1  and  C_2
REMARK    2  A    between atoms: C_5  and  C_23
REMARK    3  A    between atoms: C_11  and  C_12
REMARK    4  A    between atoms: C_15  and  C_20
REMARK    5  A    between atoms: C_20  and  C_21
REMARK                            x       y       z     vdW  Elec       q    Type
REMARK                         _______ _______ _______ _____ _____    ______ ____
ROOT
ATOM      1  C   UNL     1       1.505   1.565   2.404  0.00  0.00    +0.044 C 
ATOM      2  C   UNL     1       0.017   1.804   2.408  0.00  0.00    -0.047 A 
ATOM      3  C   UNL     1      -0.590   2.244   3.546  0.00  0.00    +0.015 A 
ATOM      4  C   UNL     1      -1.974   2.466   3.549  0.00  0.00    +0.022 A 
ATOM      5  C   UNL     1      -2.655   2.920   4.694  0.00  0.00    +0.051 A 
ATOM      6  N   UNL     1      -3.956   3.106   4.618  0.00  0.00    -0.219 NA
ATOM      7  C   UNL     1      -4.628   2.874   3.492  0.00  0.00    +0.222 A 
ATOM      8  N   UNL     1      -4.045   2.449   2.389  0.00  0.00    -0.214 NA
ATOM      9  C   UNL     1      -2.724   2.230   2.368  0.00  0.00    +0.077 A 
ATOM     10  C   UNL     1      -2.064   1.782   1.214  0.00  0.00    +0.032 A 
ATOM     11  C   UNL     1      -0.718   1.572   1.248  0.00  0.00    -0.045 A 
ATOM     12  C   UNL     1      -0.013   1.086   0.008  0.00  0.00    +0.044 C 
ATOM     13  N   UNL     1      -5.998   3.090   3.479  0.00  0.00    -0.258 N 
ATOM     14  C   UNL     1      -6.636   3.535   4.616  0.00  0.00    +0.167 C 
ATOM     15  C   UNL     1      -7.036   4.226   6.704  0.00  0.00    +0.179 C 
ATOM     16  C   UNL     1      -8.333   4.198   5.919  0.00  0.00    +0.242 C 
ATOM     17  O   UNL     1      -9.440   4.495   6.313  0.00  0.00    -0.273 OA
ATOM     18  N   UNL     1      -7.987   3.772   4.685  0.00  0.00    -0.258 N 
ATOM     19  C   UNL     1      -1.912   3.187   5.978  0.00  0.00    +0.066 C 
ATOM     20  H   UNL     1      -6.507   2.928   2.669  0.00  0.00    +0.158 HD
ATOM     21  H   UNL     1      -8.607   3.651   3.949  0.00  0.00    +0.157 HD
ATOM     22  N   UNL     1      -6.039   3.770   5.734  0.00  0.00    -0.349 N 
ATOM     23  H   UNL     1      -5.034   3.656   5.914  0.00  0.00    +0.163 HD
ENDROOT
BRANCH  15  24
ATOM     24  C   UNL     1      -7.109   3.269   7.895  0.00  0.00    +0.159 C 
BRANCH  24  25
ATOM     25  C   UNL     1      -5.860   3.406   8.727  0.00  0.00    +0.358 C 
ATOM     26  O   UNL     1      -5.000   4.189   8.401  0.00  0.00    -0.246 OA
ATOM     27  O   UNL     1      -5.704   2.658   9.831  0.00  0.00    -0.246 OA
ENDBRANCH  24  25
ENDBRANCH  15  24
TORSDOF 2
