REMARK  Name = ZINC39694386
REMARK  6 active torsions:
REMARK  status: ('A' for Active; 'I' for Inactive)
REMARK    1  A    between atoms: C_4  and  C_7
REMARK    2  A    between atoms: C_10  and  C_12
REMARK    3  A    between atoms: C_16  and  C_25
REMARK    4  A    between atoms: N_27  and  C_28
REMARK    5  A    between atoms: C_28  and  C_29
REMARK    6  A    between atoms: C_34  and  N_35
REMARK                            x       y       z     vdW  Elec       q    Type
REMARK                         _______ _______ _______ _____ _____    ______ ____
ROOT
ATOM      1  C   UNL     1       8.114  -0.861  -0.131  0.00  0.00    +0.282 C 
ATOM      2  O   UNL     1       8.944  -1.710   0.137  0.00  0.00    -0.267 OA
ATOM      3  N   UNL     1       8.410   0.444   0.025  0.00  0.00    -0.294 N 
ATOM      4  C   UNL     1       7.537   1.612  -0.240  0.00  0.00    +0.121 C 
ATOM      5  C   UNL     1       7.840   2.596   0.912  0.00  0.00    +0.100 C 
ATOM      6  C   UNL     1       9.250   2.215   1.393  0.00  0.00    -0.004 C 
ATOM      7  C   UNL     1       9.681   1.036   0.507  0.00  0.00    +0.115 C 
ATOM      8  C   UNL     1       9.211   1.780   2.855  0.00  0.00    -0.010 C 
ATOM      9  C   UNL     1      10.632   1.461   3.326  0.00  0.00    -0.082 C 
ATOM     10  N   UNL     1      11.480   2.649   3.171  0.00  0.00    +0.379 N 
ATOM     11  C   UNL     1      11.588   3.005   1.751  0.00  0.00    -0.082 C 
ATOM     12  C   UNL     1      10.206   3.390   1.212  0.00  0.00    -0.010 C 
ATOM     13  H   UNL     1      11.073   3.420   3.679  0.00  0.00    -0.086 HD
ATOM     14  H   UNL     1      12.399   2.455   3.538  0.00  0.00    -0.086 HD
ENDROOT
BRANCH   1  18
ATOM     15  C   UNL     1       4.728  -1.141  -1.366  0.00  0.00    +0.136 A 
ATOM     16  C   UNL     1       5.047  -2.467  -1.301  0.00  0.00    +0.050 A 
ATOM     17  C   UNL     1       6.361  -2.551  -0.829  0.00  0.00    +0.055 A 
ATOM     18  C   UNL     1       6.793  -1.259  -0.625  0.00  0.00    +0.190 A 
ATOM     19  O   UNL     1       5.788  -0.423  -0.962  0.00  0.00    -0.450 OA
BRANCH  15  23
ATOM     20  C   UNL     1       1.006   0.448  -2.652  0.00  0.00    +0.000 A 
ATOM     21  C   UNL     1       2.020   1.303  -2.258  0.00  0.00    +0.001 A 
ATOM     22  C   UNL     1       3.232   0.793  -1.840  0.00  0.00    +0.011 A 
ATOM     23  C   UNL     1       3.433  -0.588  -1.813  0.00  0.00    +0.017 A 
ATOM     24  C   UNL     1       2.404  -1.445  -2.211  0.00  0.00    +0.011 A 
ATOM     25  C   UNL     1       1.198  -0.922  -2.628  0.00  0.00    +0.001 A 
ENDBRANCH  15  23
ENDBRANCH   1  18
BRANCH   5  26
ATOM     26  C   UNL     1       7.821   4.016   0.408  0.00  0.00    +0.218 C 
ATOM     27  O   UNL     1       8.354   4.292  -0.646  0.00  0.00    -0.275 OA
ATOM     28  N   UNL     1       7.213   4.979   1.129  0.00  0.00    -0.311 N 
ATOM     29  H   UNL     1       6.787   4.758   1.972  0.00  0.00    +0.149 HD
BRANCH  28  30
ATOM     30  C   UNL     1       7.194   6.359   0.638  0.00  0.00    +0.141 C 
BRANCH  30  31
ATOM     31  C   UNL     1       6.458   7.232   1.622  0.00  0.00    -0.009 A 
ATOM     32  C   UNL     1       5.141   7.578   1.388  0.00  0.00    +0.007 A 
ATOM     33  C   UNL     1       4.465   8.379   2.289  0.00  0.00    +0.000 A 
ATOM     34  C   UNL     1       5.103   8.835   3.428  0.00  0.00    +0.002 A 
ATOM     35  C   UNL     1       6.419   8.492   3.669  0.00  0.00    +0.023 A 
ATOM     36  C   UNL     1       7.100   7.684   2.768  0.00  0.00    +0.035 A 
BRANCH  36  37
ATOM     37  N   UNL     1       8.429   7.331   3.010  0.00  0.00    -0.325 N 
ATOM     38  C   UNL     1       9.537   8.170   2.525  0.00  0.00    +0.133 C 
ATOM     39  C   UNL     1      10.488   8.440   3.696  0.00  0.00    +0.178 C 
ATOM     40  O   UNL     1      10.852   7.197   4.302  0.00  0.00    -0.377 OA
ATOM     41  C   UNL     1       9.754   6.479   4.870  0.00  0.00    +0.178 C 
ATOM     42  C   UNL     1       8.764   6.112   3.764  0.00  0.00    +0.133 C 
ENDBRANCH  36  37
ENDBRANCH  30  31
ENDBRANCH  28  30
ENDBRANCH   5  26
TORSDOF 6
