REMARK  Name = ZINC66980595
REMARK  6 active torsions:
REMARK  status: ('A' for Active; 'I' for Inactive)
REMARK    1  A    between atoms: C_1  and  C_2
REMARK    2  A    between atoms: N_4  and  C_5
REMARK    3  A    between atoms: C_7  and  N_13
REMARK    4  A    between atoms: N_16  and  C_17
REMARK    5  A    between atoms: C_17  and  C_18
REMARK    6  A    between atoms: C_18  and  C_19
REMARK                            x       y       z     vdW  Elec       q    Type
REMARK                         _______ _______ _______ _____ _____    ______ ____
ROOT
ATOM      1  N   UNL     1       0.134  -5.012   1.018  0.00  0.00    -0.267 N 
ATOM      2  C   UNL     1      -0.075  -4.400   2.201  0.00  0.00    +0.304 C 
ATOM      3  O   UNL     1      -0.158  -3.188   2.252  0.00  0.00    -0.253 OA
ATOM      4  N   UNL     1      -0.193  -5.131   3.327  0.00  0.00    -0.299 N 
ATOM      5  H   UNL     1       0.265  -5.972   0.986  0.00  0.00    +0.156 HD
ATOM      6  H   UNL     1      -0.126  -6.098   3.286  0.00  0.00    +0.150 HD
ENDROOT
BRANCH   1   9
ATOM      7  C   UNL     1       0.712  -2.233  -1.330  0.00  0.00    +0.071 A 
ATOM      8  C   UNL     1       0.685  -2.975  -0.157  0.00  0.00    +0.052 A 
ATOM      9  C   UNL     1       0.163  -4.260  -0.164  0.00  0.00    +0.072 A 
ATOM     10  C   UNL     1      -0.332  -4.802  -1.346  0.00  0.00    +0.147 A 
ATOM     11  C   UNL     1      -0.303  -4.061  -2.513  0.00  0.00    +0.080 A 
ATOM     12  C   UNL     1       0.212  -2.777  -2.507  0.00  0.00    +0.147 A 
ATOM     13  F   UNL     1       0.234  -2.053  -3.648  0.00  0.00    -0.203 F 
ATOM     14  F   UNL     1      -0.839  -6.054  -1.353  0.00  0.00    -0.203 F 
BRANCH   7  18
ATOM     15  C   UNL     1       2.910   0.735  -0.592  0.00  0.00    +0.109 C 
ATOM     16  C   UNL     1       2.279  -0.632  -0.524  0.00  0.00    +0.214 C 
ATOM     17  O   UNL     1       2.709  -1.460   0.251  0.00  0.00    -0.276 OA
ATOM     18  N   UNL     1       1.238  -0.934  -1.325  0.00  0.00    -0.283 N 
ATOM     19  H   UNL     1       0.854  -0.253  -1.898  0.00  0.00    +0.155 HD
ENDBRANCH   7  18
ENDBRANCH   1   9
BRANCH   4  20
ATOM     20  C   UNL     1      -0.420  -4.466   4.612  0.00  0.00    +0.112 C 
BRANCH  20  21
ATOM     21  C   UNL     1      -0.515  -5.517   5.720  0.00  0.00    +0.073 C 
BRANCH  21  22
ATOM     22  C   UNL     1      -0.749  -4.833   7.042  0.00  0.00    +0.035 A 
ATOM     23  C   UNL     1       0.203  -4.316   7.846  0.00  0.00    +0.108 A 
ATOM     24  N   UNL     1      -0.440  -3.797   8.930  0.00  0.00    -0.336 N 
ATOM     25  C   UNL     1      -1.766  -4.012   8.756  0.00  0.00    +0.087 A 
ATOM     26  N   UNL     1      -1.942  -4.626   7.623  0.00  0.00    -0.347 N 
ATOM     27  C   UNL     1      -2.827  -3.585   9.743  0.00  0.00    +0.072 C 
ATOM     28  C   UNL     1      -2.141  -3.265  11.077  0.00  0.00    +0.009 C 
ATOM     29  C   UNL     1      -0.945  -2.344  10.821  0.00  0.00    +0.022 C 
ATOM     30  C   UNL     1       0.153  -3.122  10.087  0.00  0.00    +0.123 C 
ATOM     31  H   UNL     1      -2.799  -4.894   7.256  0.00  0.00    +0.167 HD
ENDBRANCH  21  22
ENDBRANCH  20  21
ENDBRANCH   4  20
TORSDOF 5
