REMARK  Name = ZINC43149727
REMARK  7 active torsions:
REMARK  status: ('A' for Active; 'I' for Inactive)
REMARK    1  A    between atoms: C_1  and  C_2
REMARK    2  A    between atoms: C_5  and  N_25
REMARK    3  A    between atoms: C_7  and  N_8
REMARK    4  A    between atoms: N_11  and  C_12
REMARK    5  A    between atoms: C_12  and  C_13
REMARK    6  A    between atoms: C_13  and  C_15
REMARK    7  A    between atoms: C_13  and  N_20
REMARK                            x       y       z     vdW  Elec       q    Type
REMARK                         _______ _______ _______ _____ _____    ______ ____
ROOT
ATOM      1  N   UNL     1       0.338   0.016   2.459  0.00  0.00    -0.269 N 
ATOM      2  C   UNL     1       0.145  -0.672   3.602  0.00  0.00    +0.304 C 
ATOM      3  O   UNL     1       0.103  -1.887   3.580  0.00  0.00    -0.253 OA
ATOM      4  N   UNL     1      -0.001  -0.014   4.769  0.00  0.00    -0.300 N 
ATOM      5  H   UNL     1       0.443   0.980   2.486  0.00  0.00    +0.156 HD
ATOM      6  H   UNL     1       0.032   0.955   4.786  0.00  0.00    +0.150 HD
ENDROOT
BRANCH   1  13
ATOM      7  C   UNL     1      -0.688   1.332   0.154  0.00  0.00    +0.045 C 
ATOM      8  C   UNL     1      -0.102  -0.055   0.086  0.00  0.00    -0.029 A 
ATOM      9  C   UNL     1      -0.046  -0.723  -1.122  0.00  0.00    +0.007 A 
ATOM     10  C   UNL     1       0.491  -1.995  -1.187  0.00  0.00    +0.033 A 
ATOM     11  C   UNL     1       0.975  -2.603  -0.042  0.00  0.00    +0.128 A 
ATOM     12  C   UNL     1       0.922  -1.941   1.168  0.00  0.00    +0.056 A 
ATOM     13  C   UNL     1       0.388  -0.660   1.235  0.00  0.00    +0.040 A 
BRANCH  11  14
ATOM     14  N   UNL     1       1.550  -3.965  -0.116  0.00  0.00    +0.056 N 
ATOM     15  O   UNL     1       1.596  -4.545  -1.175  0.00  0.00    -0.126 OA
ATOM     16  O   UNL     1       1.973  -4.497   0.884  0.00  0.00    -0.126 OA
ENDBRANCH  11  14
ENDBRANCH   1  13
BRANCH   4  17
ATOM     17  C   UNL     1      -0.211  -0.762   6.011  0.00  0.00    +0.095 C 
BRANCH  17  18
ATOM     18  C   UNL     1      -0.473   0.217   7.157  0.00  0.00    -0.013 C 
BRANCH  18  19
ATOM     19  N   UNL     1      -0.562  -0.524   8.423  0.00  0.00    +0.386 N 
ATOM     20  C   UNL     1       0.760  -1.105   8.770  0.00  0.00    -0.078 C 
ATOM     21  C   UNL     1       0.657  -1.330  10.300  0.00  0.00    -0.020 C 
ATOM     22  C   UNL     1      -0.148  -0.100  10.777  0.00  0.00    -0.020 C 
ATOM     23  C   UNL     1      -0.902   0.396   9.530  0.00  0.00    -0.078 C 
ATOM     24  H   UNL     1      -1.255  -1.254   8.351  0.00  0.00    -0.081 HD
ENDBRANCH  18  19
BRANCH  18  25
ATOM     25  C   UNL     1      -1.769   0.945   6.910  0.00  0.00    -0.022 A 
ATOM     26  C   UNL     1      -1.967   2.188   6.407  0.00  0.00    +0.009 A 
ATOM     27  C   UNL     1      -3.260   2.656   6.265  0.00  0.00    +0.008 A 
ATOM     28  C   UNL     1      -4.292   1.858   6.634  0.00  0.00    +0.045 A 
ATOM     29  S   UNL     1      -3.442   0.392   7.196  0.00  0.00    -0.103 S 
ENDBRANCH  18  25
ENDBRANCH  17  18
ENDBRANCH   4  17
TORSDOF 6
