REMARK  Name = ZINC40783179
REMARK  5 active torsions:
REMARK  status: ('A' for Active; 'I' for Inactive)
REMARK    1  A    between atoms: C_1  and  O_2
REMARK    2  A    between atoms: O_2  and  C_3
REMARK    3  A    between atoms: C_14  and  N_26
REMARK    4  A    between atoms: C_15  and  S_19
REMARK    5  A    between atoms: S_19  and  C_20
REMARK                            x       y       z     vdW  Elec       q    Type
REMARK                         _______ _______ _______ _____ _____    ______ ____
ROOT
ATOM      1  C   UNL     1       0.621  -0.606  -1.049  0.00  0.00    +0.121 A 
ATOM      2  C   UNL     1       1.194   0.157  -2.062  0.00  0.00    +0.048 A 
ATOM      3  C   UNL     1       1.806  -0.428  -3.139  0.00  0.00    +0.032 A 
ATOM      4  C   UNL     1       1.875  -1.836  -3.255  0.00  0.00    +0.081 A 
ATOM      5  C   UNL     1       1.284  -2.580  -2.210  0.00  0.00    +0.044 A 
ATOM      6  C   UNL     1       0.676  -1.989  -1.131  0.00  0.00    +0.063 A 
ATOM      7  S   UNL     1       1.579  -4.255  -2.723  0.00  0.00    -0.052 S 
ATOM      8  C   UNL     1       2.441  -3.877  -4.242  0.00  0.00    +0.165 A 
ATOM      9  N   UNL     1       2.439  -2.564  -4.245  0.00  0.00    -0.225 NA
ATOM     10  N   UNL     1       2.974  -4.745  -5.177  0.00  0.00    -0.277 N 
ATOM     11  C   UNL     1       3.614  -4.245  -6.306  0.00  0.00    +0.150 A 
ATOM     12  C   UNL     1       4.150  -5.112  -7.260  0.00  0.00    +0.098 A 
ATOM     13  C   UNL     1       4.782  -4.557  -8.375  0.00  0.00    +0.127 A 
ATOM     14  N   UNL     1       4.848  -3.232  -8.485  0.00  0.00    -0.227 NA
ATOM     15  C   UNL     1       4.329  -2.449  -7.561  0.00  0.00    +0.224 A 
ATOM     16  N   UNL     1       3.719  -2.932  -6.498  0.00  0.00    -0.219 NA
ATOM     17  H   UNL     1       2.901  -5.704  -5.045  0.00  0.00    +0.156 HD
ENDROOT
BRANCH  12  18
ATOM     18  N   UNL     1       4.058  -6.503  -7.102  0.00  0.00    -0.353 N 
ATOM     19  H   UNL     1       3.616  -6.875  -6.322  0.00  0.00    +0.142 HD
ATOM     20  H   UNL     1       4.435  -7.094  -7.772  0.00  0.00    +0.142 HD
ENDBRANCH  12  18
BRANCH   1  22
ATOM     21  C   UNL     1       0.003   1.427   0.020  0.00  0.00    +0.277 C 
ATOM     22  O   UNL     1       0.018  -0.002   0.010  0.00  0.00    -0.495 OA
ENDBRANCH   1  22
BRANCH  13  23
ATOM     23  S   UNL     1       5.482  -5.594  -9.616  0.00  0.00    -0.068 S 
BRANCH  23  24
ATOM     24  C   UNL     1       6.014  -4.468 -10.862  0.00  0.00    +0.014 A 
ATOM     25  C   UNL     1       7.330  -4.022 -10.881  0.00  0.00    +0.015 A 
ATOM     26  C   UNL     1       7.744  -3.139 -11.860  0.00  0.00    +0.001 A 
ATOM     27  C   UNL     1       6.850  -2.699 -12.819  0.00  0.00    +0.000 A 
ATOM     28  C   UNL     1       5.539  -3.141 -12.802  0.00  0.00    +0.001 A 
ATOM     29  C   UNL     1       5.120  -4.029 -11.831  0.00  0.00    +0.015 A 
ENDBRANCH  23  24
ENDBRANCH  13  23
TORSDOF 4
