REMARK  Name = ZINC39545850
REMARK  8 active torsions:
REMARK  status: ('A' for Active; 'I' for Inactive)
REMARK    1  A    between atoms: C_1  and  C_2
REMARK    2  A    between atoms: C_2  and  C_3
REMARK    3  A    between atoms: C_2  and  S_4
REMARK    4  A    between atoms: S_4  and  N_7
REMARK    5  A    between atoms: N_7  and  S_25
REMARK    6  A    between atoms: C_8  and  C_10
REMARK    7  A    between atoms: S_25  and  O_28
REMARK    8  A    between atoms: O_28  and  C_29
REMARK                            x       y       z     vdW  Elec       q    Type
REMARK                         _______ _______ _______ _____ _____    ______ ____
ROOT
ATOM      1  N   UNL     1      -2.323  -0.319  -1.437  0.00  0.00    -0.011 N 
ATOM      2  C   UNL     1      -2.753  -1.423  -2.079  0.00  0.00    +0.246 C 
ATOM      3  O   UNL     1      -3.659  -1.345  -2.881  0.00  0.00    -0.274 OA
ENDROOT
BRANCH   2   4
ATOM      4  C   UNL     1      -2.107  -2.756  -1.799  0.00  0.00    +0.033 C 
ATOM      5  C   UNL     1      -2.941  -3.549  -0.764  0.00  0.00    +0.068 C 
ATOM      6  C   UNL     1      -3.445  -4.781  -1.516  0.00  0.00    +0.136 C 
ATOM      7  C   UNL     1      -3.388  -4.332  -2.961  0.00  0.00    +0.085 C 
ATOM      8  N   UNL     1      -3.247  -5.439  -3.910  0.00  0.00    -0.350 N 
ATOM      9  C   UNL     1      -2.788  -5.078  -5.192  0.00  0.00    +0.027 A 
ATOM     10  C   UNL     1      -2.905  -5.978  -6.242  0.00  0.00    +0.023 A 
ATOM     11  C   UNL     1      -2.466  -5.623  -7.503  0.00  0.00    +0.002 A 
ATOM     12  C   UNL     1      -1.914  -4.373  -7.716  0.00  0.00    +0.000 A 
ATOM     13  C   UNL     1      -1.793  -3.478  -6.670  0.00  0.00    +0.003 A 
ATOM     14  C   UNL     1      -2.224  -3.827  -5.404  0.00  0.00    -0.043 A 
ATOM     15  C   UNL     1      -2.058  -2.842  -4.266  0.00  0.00    -0.037 C 
ATOM     16  N   UNL     1      -2.099  -3.580  -3.012  0.00  0.00    +0.407 N 
ATOM     17  O   UNL     1      -3.799  -5.846  -1.070  0.00  0.00    -0.298 OA
ATOM     18  H   UNL     1      -3.455  -6.356  -3.672  0.00  0.00    +0.145 HD
ATOM     19  H   UNL     1      -1.326  -4.228  -2.977  0.00  0.00    -0.077 HD
ENDBRANCH   2   4
BRANCH   1  20
ATOM     20  S   UNL     1      -1.181  -0.445  -0.244  0.00  0.00    +0.071 S 
ATOM     21  O   UNL     1      -1.397  -1.727   0.329  0.00  0.00    -0.153 OA
ATOM     22  O   UNL     1      -1.338   0.733   0.534  0.00  0.00    -0.153 OA
BRANCH  20  24
ATOM     23  C   UNL     1       0.653   0.993  -1.676  0.00  0.00    +0.033 C 
ATOM     24  C   UNL     1       0.409  -0.410  -1.117  0.00  0.00    +0.147 C 
ATOM     25  C   UNL     1       1.532  -0.774  -0.143  0.00  0.00    +0.033 C 
ENDBRANCH  20  24
ENDBRANCH   1  20
BRANCH   1  26
ATOM     26  S   UNL     1      -2.938   1.165  -1.841  0.00  0.00    +0.231 S 
ATOM     27  O   UNL     1      -4.114   0.925  -2.601  0.00  0.00    -0.114 OA
ATOM     28  O   UNL     1      -2.945   1.940  -0.650  0.00  0.00    -0.114 OA
BRANCH  26  29
ATOM     29  O   UNL     1      -1.939   1.824  -2.782  0.00  0.00    -0.330 OA
BRANCH  29  30
ATOM     30  C   UNL     1      -1.949   1.317  -4.043  0.00  0.00    +0.158 A 
ATOM     31  C   UNL     1      -1.127   0.247  -4.368  0.00  0.00    +0.048 A 
ATOM     32  C   UNL     1      -1.140  -0.267  -5.650  0.00  0.00    +0.004 A 
ATOM     33  C   UNL     1      -1.970   0.283  -6.609  0.00  0.00    +0.000 A 
ATOM     34  C   UNL     1      -2.791   1.348  -6.287  0.00  0.00    +0.004 A 
ATOM     35  C   UNL     1      -2.786   1.863  -5.005  0.00  0.00    +0.048 A 
ENDBRANCH  29  30
ENDBRANCH  26  29
ENDBRANCH   1  26
TORSDOF 6
