REMARK  Name = ZINC63709807
REMARK  10 active torsions:
REMARK  status: ('A' for Active; 'I' for Inactive)
REMARK    1  A    between atoms: C_1  and  O_2
REMARK    2  A    between atoms: O_2  and  C_3
REMARK    3  A    between atoms: C_6  and  C_11
REMARK    4  A    between atoms: C_8  and  O_9
REMARK    5  A    between atoms: O_9  and  C_10
REMARK    6  A    between atoms: C_14  and  C_38
REMARK    7  A    between atoms: C_20  and  C_24
REMARK    8  A    between atoms: N_26  and  C_27
REMARK    9  A    between atoms: C_27  and  C_28
REMARK   10  A    between atoms: C_28  and  C_29
REMARK                            x       y       z     vdW  Elec       q    Type
REMARK                         _______ _______ _______ _____ _____    ______ ____
ROOT
ATOM      1  C   UNL     1       2.590  -2.548   4.315  0.00  0.00    +0.087 C 
ATOM      2  C   UNL     1       4.106  -2.525   4.087  0.00  0.00    +0.052 C 
ATOM      3  C   UNL     1       4.813  -3.243   5.247  0.00  0.00    +0.180 C 
ATOM      4  N   UNL     1       4.289  -2.707   6.498  0.00  0.00    -0.213 NA
ATOM      5  C   UNL     1       3.526  -1.459   6.222  0.00  0.00    +0.153 C 
ATOM      6  N   UNL     1       2.273  -1.832   5.569  0.00  0.00    -0.293 NA
ATOM      7  C   UNL     1       3.337  -0.862   7.624  0.00  0.00    +0.123 C 
ATOM      8  C   UNL     1       4.533  -1.426   8.430  0.00  0.00    +0.114 C 
ATOM      9  N   UNL     1       5.280  -2.299   7.483  0.00  0.00    -0.251 NA
ATOM     10  H   UNL     1       1.704  -1.019   5.388  0.00  0.00    +0.124 HD
ATOM     11  H   UNL     1       5.667  -3.100   7.959  0.00  0.00    +0.141 HD
ENDROOT
BRANCH   1  15
ATOM     12  C   UNL     1       0.626  -0.619   1.042  0.00  0.00    +0.162 A 
ATOM     13  C   UNL     1       1.202   0.137   2.051  0.00  0.00    +0.050 A 
ATOM     14  C   UNL     1       1.836  -0.490   3.108  0.00  0.00    +0.009 A 
ATOM     15  C   UNL     1       1.897  -1.870   3.161  0.00  0.00    -0.027 A 
ATOM     16  C   UNL     1       1.325  -2.630   2.158  0.00  0.00    +0.054 A 
ATOM     17  C   UNL     1       0.683  -2.008   1.099  0.00  0.00    +0.162 A 
BRANCH  12  19
ATOM     18  C   UNL     1      -0.017   1.425   0.010  0.00  0.00    +0.277 C 
ATOM     19  O   UNL     1       0.002  -0.004   0.002  0.00  0.00    -0.491 OA
ENDBRANCH  12  19
BRANCH  17  20
ATOM     20  O   UNL     1       0.115  -2.754   0.114  0.00  0.00    -0.491 OA
ATOM     21  C   UNL     1       0.211  -4.174   0.238  0.00  0.00    +0.277 C 
ENDBRANCH  17  20
ENDBRANCH   1  15
BRANCH   7  22
ATOM     22  C   UNL     1       3.394   0.643   7.570  0.00  0.00    +0.220 C 
ATOM     23  O   UNL     1       3.570   1.206   6.511  0.00  0.00    -0.275 OA
ATOM     24  N   UNL     1       3.250   1.363   8.700  0.00  0.00    -0.315 N 
ATOM     25  H   UNL     1       3.109   0.913   9.548  0.00  0.00    +0.149 HD
BRANCH  24  26
ATOM     26  C   UNL     1       3.305   2.826   8.648  0.00  0.00    +0.108 C 
BRANCH  26  27
ATOM     27  C   UNL     1       3.114   3.394  10.056  0.00  0.00    +0.052 C 
BRANCH  27  28
ATOM     28  C   UNL     1       3.171   4.899  10.002  0.00  0.00    -0.040 C 
ATOM     29  C   UNL     1       2.123   5.750   9.914  0.00  0.00    -0.001 A 
ATOM     30  C   UNL     1       0.673   5.537   9.842  0.00  0.00    +0.010 A 
ATOM     31  C   UNL     1      -0.145   6.611   9.757  0.00  0.00    +0.001 A 
ATOM     32  C   UNL     1       0.357   7.920   9.735  0.00  0.00    +0.002 A 
ATOM     33  C   UNL     1       1.677   8.195   9.797  0.00  0.00    +0.026 A 
ATOM     34  C   UNL     1       2.628   7.141   9.889  0.00  0.00    +0.043 A 
ATOM     35  N   UNL     1       3.937   7.151   9.960  0.00  0.00    -0.380 N 
ATOM     36  C   UNL     1       4.411   5.764  10.043  0.00  0.00    +0.144 C 
ATOM     37  H   UNL     1       4.498   7.942   9.961  0.00  0.00    +0.160 HD
ENDBRANCH  27  28
ENDBRANCH  26  27
ENDBRANCH  24  26
ENDBRANCH   7  22
BRANCH   3  38
ATOM     38  C   UNL     1       6.320  -2.993   5.167  0.00  0.00    +0.406 C 
ATOM     39  F   UNL     1       6.570  -1.619   5.252  0.00  0.00    -0.169 F 
ATOM     40  F   UNL     1       6.959  -3.649   6.225  0.00  0.00    -0.169 F 
ATOM     41  F   UNL     1       6.811  -3.482   3.951  0.00  0.00    -0.169 F 
ENDBRANCH   3  38
TORSDOF 8
