REMARK  Name = ZINC57343749
REMARK  3 active torsions:
REMARK  status: ('A' for Active; 'I' for Inactive)
REMARK    1  A    between atoms: C_4  and  C_7
REMARK    2  A    between atoms: N_18  and  C_19
REMARK    3  A    between atoms: C_19  and  C_20
REMARK                            x       y       z     vdW  Elec       q    Type
REMARK                         _______ _______ _______ _____ _____    ______ ____
ROOT
ATOM      1  C   UNL     1       3.697  -0.687  -0.038  0.00  0.00    +0.078 A 
ATOM      2  C   UNL     1       3.713  -2.054  -0.051  0.00  0.00    +0.077 A 
ATOM      3  C   UNL     1       4.965  -2.717  -0.068  0.00  0.00    +0.166 A 
ATOM      4  N   UNL     1       5.305  -3.982  -0.082  0.00  0.00    -0.151 NA
ATOM      5  N   UNL     1       6.706  -4.050  -0.093  0.00  0.00    -0.226 N 
ATOM      6  H   UNL     1       7.239  -4.860  -0.105  0.00  0.00    +0.194 HD
ATOM      7  C   UNL     1       7.177  -2.786  -0.085  0.00  0.00    +0.351 A 
ATOM      8  O   UNL     1       8.351  -2.458  -0.091  0.00  0.00    -0.245 OA
ATOM      9  N   UNL     1       6.121  -1.950  -0.070  0.00  0.00    -0.215 N 
ATOM     10  C   UNL     1       6.019  -0.581  -0.056  0.00  0.00    +0.206 A 
ATOM     11  N   UNL     1       4.850   0.010  -0.046  0.00  0.00    -0.215 NA
ATOM     12  N   UNL     1       7.161   0.181  -0.058  0.00  0.00    -0.310 N 
ATOM     13  H   UNL     1       8.030  -0.248  -0.068  0.00  0.00    +0.149 HD
ENDROOT
BRANCH   1  17
ATOM     14  C   UNL     1      -0.017   1.379   0.010  0.00  0.00    +0.000 A 
ATOM     15  C   UNL     1       1.169   2.093   0.002  0.00  0.00    +0.001 A 
ATOM     16  C   UNL     1       2.377   1.428  -0.013  0.00  0.00    +0.010 A 
ATOM     17  C   UNL     1       2.403   0.033  -0.021  0.00  0.00    +0.001 A 
ATOM     18  C   UNL     1       1.205  -0.680  -0.013  0.00  0.00    +0.010 A 
ATOM     19  C   UNL     1       0.002  -0.004   0.002  0.00  0.00    +0.001 A 
ENDBRANCH   1  17
BRANCH  12  20
ATOM     20  C   UNL     1       7.066   1.643  -0.043  0.00  0.00    +0.139 C 
BRANCH  20  21
ATOM     21  C   UNL     1       8.451   2.236  -0.048  0.00  0.00    -0.030 A 
ATOM     22  C   UNL     1       9.097   2.492   1.147  0.00  0.00    +0.008 A 
ATOM     23  C   UNL     1      10.367   3.036   1.144  0.00  0.00    +0.038 A 
ATOM     24  C   UNL     1      10.993   3.325  -0.057  0.00  0.00    +0.123 A 
ATOM     25  C   UNL     1      10.345   3.068  -1.253  0.00  0.00    +0.038 A 
ATOM     26  C   UNL     1       9.077   2.520  -1.248  0.00  0.00    +0.008 A 
ATOM     27  F   UNL     1      12.235   3.857  -0.061  0.00  0.00    -0.205 F 
ENDBRANCH  20  21
ENDBRANCH  12  20
TORSDOF 3
