REMARK  Name = ZINC01308223
REMARK  9 active torsions:
REMARK  status: ('A' for Active; 'I' for Inactive)
REMARK    1  A    between atoms: C_1  and  C_2
REMARK    2  A    between atoms: C_2  and  C_4
REMARK    3  A    between atoms: C_2  and  S_12
REMARK    4  A    between atoms: S_12  and  C_13
REMARK    5  A    between atoms: C_25  and  C_28
REMARK    6  A    between atoms: C_28  and  C_29
REMARK    7  A    between atoms: C_28  and  C_30
REMARK    8  A    between atoms: N_33  and  C_34
REMARK    9  A    between atoms: C_34  and  C_35
REMARK                            x       y       z     vdW  Elec       q    Type
REMARK                         _______ _______ _______ _____ _____    ______ ____
ROOT
ATOM      1  C   UNL     1      -2.365  -0.093  -1.525  0.00  0.00    +0.199 A 
ATOM      2  N   UNL     1      -1.727   0.596  -2.440  0.00  0.00    -0.120 NA
ATOM      3  N   UNL     1      -2.606   0.819  -3.507  0.00  0.00    -0.109 NA
ATOM      4  C   UNL     1      -3.755   0.258  -3.212  0.00  0.00    +0.241 A 
ATOM      5  N   UNL     1      -3.636  -0.328  -1.979  0.00  0.00    -0.249 N 
ATOM      6  C   UNL     1      -4.703  -1.000  -1.422  0.00  0.00    +0.102 A 
ATOM      7  C   UNL     1      -5.923  -1.110  -2.083  0.00  0.00    +0.074 A 
ATOM      8  C   UNL     1      -6.958  -1.852  -1.368  0.00  0.00    -0.018 A 
ATOM      9  C   UNL     1      -6.587  -2.330  -0.161  0.00  0.00    +0.021 A 
ATOM     10  S   UNL     1      -4.909  -1.812   0.026  0.00  0.00    -0.072 S 
ATOM     11  C   UNL     1      -7.448  -3.119   0.775  0.00  0.00    +0.203 C 
ATOM     12  O   UNL     1      -8.807  -3.003   0.322  0.00  0.00    -0.371 OA
ATOM     13  C   UNL     1      -8.972  -3.252  -1.076  0.00  0.00    +0.126 C 
ATOM     14  C   UNL     1      -8.365  -2.104  -1.892  0.00  0.00    +0.068 C 
ATOM     15  C   UNL     1      -6.012  -0.466  -3.413  0.00  0.00    +0.264 A 
ATOM     16  O   UNL     1      -7.048  -0.521  -4.050  0.00  0.00    -0.267 OA
ATOM     17  N   UNL     1      -4.948   0.184  -3.912  0.00  0.00    -0.272 N 
ENDROOT
BRANCH  13  18
ATOM     18  C   UNL     1     -10.463  -3.366  -1.399  0.00  0.00    +0.012 C 
ATOM     19  C   UNL     1     -11.070  -4.520  -0.600  0.00  0.00    +0.010 C 
ATOM     20  C   UNL     1     -11.167  -2.060  -1.025  0.00  0.00    +0.010 C 
ENDBRANCH  13  18
BRANCH   1  21
ATOM     21  S   UNL     1      -1.700  -0.632   0.015  0.00  0.00    -0.073 S 
BRANCH  21  23
ATOM     22  C   UNL     1      -0.019   1.526   0.010  0.00  0.00    +0.029 C 
ATOM     23  C   UNL     1       0.002  -0.004   0.002  0.00  0.00    +0.137 C 
BRANCH  23  24
ATOM     24  C   UNL     1       0.731  -0.503   1.223  0.00  0.00    +0.229 C 
ATOM     25  O   UNL     1       0.105  -0.891   2.187  0.00  0.00    -0.274 OA
ATOM     26  N   UNL     1       2.079  -0.519   1.244  0.00  0.00    -0.301 N 
ATOM     27  C   UNL     1       2.851  -0.046   0.087  0.00  0.00    +0.108 C 
ATOM     28  C   UNL     1       3.847   1.017   0.560  0.00  0.00    +0.019 C 
ATOM     29  C   UNL     1       4.701   0.442   1.692  0.00  0.00    +0.003 C 
ATOM     30  C   UNL     1       3.800   0.066   2.871  0.00  0.00    +0.019 C 
ATOM     31  C   UNL     1       2.803  -1.002   2.427  0.00  0.00    +0.108 C 
ENDBRANCH  23  24
ENDBRANCH  21  23
ENDBRANCH   1  21
BRANCH  17  32
ATOM     32  C   UNL     1      -5.046   0.815  -5.230  0.00  0.00    +0.163 C 
BRANCH  32  33
ATOM     33  C   UNL     1      -4.646  -0.176  -6.293  0.00  0.00    -0.028 A 
ATOM     34  C   UNL     1      -3.324  -0.271  -6.687  0.00  0.00    +0.005 A 
ATOM     35  C   UNL     1      -2.958  -1.180  -7.662  0.00  0.00    +0.000 A 
ATOM     36  C   UNL     1      -3.912  -1.994  -8.242  0.00  0.00    +0.000 A 
ATOM     37  C   UNL     1      -5.234  -1.899  -7.847  0.00  0.00    +0.000 A 
ATOM     38  C   UNL     1      -5.600  -0.993  -6.869  0.00  0.00    +0.005 A 
ENDBRANCH  32  33
ENDBRANCH  17  32
TORSDOF 6
