REMARK  Name = ZINC63738433
REMARK  8 active torsions:
REMARK  status: ('A' for Active; 'I' for Inactive)
REMARK    1  A    between atoms: C_1  and  C_2
REMARK    2  A    between atoms: C_2  and  C_4
REMARK    3  A    between atoms: C_2  and  C_24
REMARK    4  A    between atoms: C_10  and  C_12
REMARK    5  A    between atoms: C_18  and  O_22
REMARK    6  A    between atoms: O_22  and  C_23
REMARK    7  A    between atoms: N_26  and  C_27
REMARK    8  A    between atoms: C_27  and  C_28
REMARK                            x       y       z     vdW  Elec       q    Type
REMARK                         _______ _______ _______ _____ _____    ______ ____
ROOT
ATOM      1  C   UNL     1       0.742  -0.511   1.242  0.00  0.00    +0.004 C 
ATOM      2  C   UNL     1       0.026  -0.016   2.501  0.00  0.00    +0.023 C 
ATOM      3  C   UNL     1       0.790  -0.496   3.739  0.00  0.00    +0.108 C 
ATOM      4  N   UNL     1       0.940  -1.956   3.665  0.00  0.00    -0.300 N 
ATOM      5  C   UNL     1       1.534  -2.544   2.457  0.00  0.00    +0.108 C 
ATOM      6  C   UNL     1       0.763  -2.041   1.233  0.00  0.00    +0.023 C 
ATOM      7  C   UNL     1       0.541  -2.740   4.686  0.00  0.00    +0.242 C 
ATOM      8  O   UNL     1       0.053  -2.242   5.678  0.00  0.00    -0.273 OA
ENDROOT
BRANCH   7   9
ATOM      9  C   UNL     1       0.703  -4.235   4.595  0.00  0.00    +0.190 C 
ATOM     10  C   UNL     1      -0.120  -4.779   3.449  0.00  0.00    +0.016 C 
ATOM     11  C   UNL     1      -1.009  -5.636   3.998  0.00  0.00    -0.003 A 
ATOM     12  C   UNL     1      -2.069  -6.472   3.419  0.00  0.00    +0.013 A 
ATOM     13  C   UNL     1      -2.816  -7.245   4.237  0.00  0.00    +0.046 A 
ATOM     14  C   UNL     1      -2.603  -7.269   5.628  0.00  0.00    +0.122 A 
ATOM     15  C   UNL     1      -1.642  -6.523   6.232  0.00  0.00    +0.071 A 
ATOM     16  C   UNL     1      -0.803  -5.678   5.463  0.00  0.00    +0.047 A 
ATOM     17  N   UNL     1       0.179  -4.875   5.808  0.00  0.00    -0.370 N 
ATOM     18  H   UNL     1       0.504  -4.729   6.710  0.00  0.00    +0.161 HD
BRANCH  14  19
ATOM     19  O   UNL     1      -3.387  -8.066   6.394  0.00  0.00    -0.495 OA
ATOM     20  C   UNL     1      -4.386  -8.834   5.721  0.00  0.00    +0.277 C 
ENDBRANCH  14  19
ENDBRANCH   7   9
BRANCH   1  22
ATOM     21  C   UNL     1      -0.019   1.526   0.010  0.00  0.00    +0.017 C 
ATOM     22  C   UNL     1       0.002  -0.004   0.002  0.00  0.00    +0.075 C 
BRANCH  22  23
ATOM     23  C   UNL     1       0.707  -0.490  -1.238  0.00  0.00    +0.216 C 
ATOM     24  O   UNL     1       1.704  -1.174  -1.140  0.00  0.00    -0.276 OA
ATOM     25  N   UNL     1       0.231  -0.164  -2.456  0.00  0.00    -0.308 N 
ATOM     26  H   UNL     1      -0.566   0.383  -2.534  0.00  0.00    +0.149 HD
BRANCH  25  27
ATOM     27  C   UNL     1       0.917  -0.637  -3.661  0.00  0.00    +0.178 C 
BRANCH  27  28
ATOM     28  C   UNL     1       0.188  -0.137  -4.882  0.00  0.00    +0.122 A 
ATOM     29  C   UNL     1       0.429   1.020  -5.524  0.00  0.00    +0.046 A 
ATOM     30  C   UNL     1      -0.479   1.086  -6.605  0.00  0.00    +0.041 A 
ATOM     31  C   UNL     1      -1.221  -0.036  -6.560  0.00  0.00    +0.195 A 
ATOM     32  O   UNL     1      -0.809  -0.775  -5.518  0.00  0.00    -0.466 OA
ENDBRANCH  27  28
ENDBRANCH  25  27
ENDBRANCH  22  23
ENDBRANCH   1  22
TORSDOF 6
