REMARK  Name = ZINC40923867
REMARK  6 active torsions:
REMARK  status: ('A' for Active; 'I' for Inactive)
REMARK    1  A    between atoms: C_1  and  C_2
REMARK    2  A    between atoms: C_3  and  C_28
REMARK    3  A    between atoms: C_4  and  C_12
REMARK    4  A    between atoms: C_17  and  O_18
REMARK    5  A    between atoms: O_18  and  C_19
REMARK    6  A    between atoms: C_19  and  C_20
REMARK                            x       y       z     vdW  Elec       q    Type
REMARK                         _______ _______ _______ _____ _____    ______ ____
ROOT
ATOM      1  C   UNL     1      -0.018   1.503   0.010  0.00  0.00    +0.061 C 
ATOM      2  C   UNL     1       0.002  -0.004   0.002  0.00  0.00    +0.018 C 
ATOM      3  C   UNL     1      -1.163  -0.667   0.004  0.00  0.00    +0.060 C 
ATOM      4  C   UNL     1      -1.255  -2.170   0.009  0.00  0.00    +0.182 C 
ATOM      5  N   UNL     1       0.059  -2.736  -0.276  0.00  0.00    -0.201 N 
ATOM      6  C   UNL     1       1.208  -2.012  -0.274  0.00  0.00    +0.240 A 
ATOM      7  N   UNL     1       2.180  -2.830  -0.559  0.00  0.00    -0.092 NA
ATOM      8  N   UNL     1       1.722  -4.021  -0.745  0.00  0.00    -0.021 NA
ATOM      9  N   UNL     1       0.438  -4.040  -0.590  0.00  0.00    -0.042 NA
ATOM     10  N   UNL     1       1.214  -0.651  -0.013  0.00  0.00    -0.286 N 
ATOM     11  H   UNL     1       2.042  -0.174   0.156  0.00  0.00    +0.155 HD
ENDROOT
BRANCH   4  12
ATOM     12  C   UNL     1      -1.723  -2.641   1.362  0.00  0.00    +0.024 A 
ATOM     13  C   UNL     1      -0.984  -2.344   2.491  0.00  0.00    +0.025 A 
ATOM     14  C   UNL     1      -1.414  -2.776   3.733  0.00  0.00    +0.018 A 
ATOM     15  C   UNL     1      -2.583  -3.506   3.847  0.00  0.00    +0.019 A 
ATOM     16  C   UNL     1      -3.325  -3.805   2.721  0.00  0.00    +0.047 A 
ATOM     17  C   UNL     1      -2.899  -3.368   1.475  0.00  0.00    +0.127 A 
ATOM     18 BR   UNL     1      -0.400  -2.368   5.276  0.00  0.00    -0.050 Br
BRANCH  17  19
ATOM     19  O   UNL     1      -3.630  -3.657   0.366  0.00  0.00    -0.487 OA
BRANCH  19  20
ATOM     20  C   UNL     1      -4.829  -4.410   0.557  0.00  0.00    +0.264 C 
BRANCH  20  21
ATOM     21  C   UNL     1      -5.500  -4.632  -0.773  0.00  0.00    -0.010 A 
ATOM     22  C   UNL     1      -6.420  -3.714  -1.246  0.00  0.00    +0.008 A 
ATOM     23  C   UNL     1      -7.036  -3.917  -2.466  0.00  0.00    +0.020 A 
ATOM     24  C   UNL     1      -6.732  -5.040  -3.215  0.00  0.00    +0.041 A 
ATOM     25  C   UNL     1      -5.812  -5.959  -2.742  0.00  0.00    +0.020 A 
ATOM     26  C   UNL     1      -5.193  -5.751  -1.524  0.00  0.00    +0.008 A 
ATOM     27 CL   UNL     1      -7.506  -5.296  -4.748  0.00  0.00    -0.084 Cl
ENDBRANCH  20  21
ENDBRANCH  19  20
ENDBRANCH  17  19
ENDBRANCH   4  12
BRANCH   3  28
ATOM     28  C   UNL     1      -2.364   0.081   0.002  0.00  0.00    +0.241 C 
ATOM     29  O   UNL     1      -2.324   1.298  -0.001  0.00  0.00    -0.271 OA
ATOM     30  N   UNL     1      -3.554  -0.553   0.004  0.00  0.00    -0.325 N 
ATOM     31  H   UNL     1      -3.586  -1.522   0.007  0.00  0.00    +0.145 HD
ATOM     32  H   UNL     1      -4.377  -0.040   0.003  0.00  0.00    +0.145 HD
ENDBRANCH   3  28
TORSDOF 5
