REMARK  Name = ZINC66951885
REMARK  4 active torsions:
REMARK  status: ('A' for Active; 'I' for Inactive)
REMARK    1  A    between atoms: C_10  and  C_11
REMARK    2  A    between atoms: C_10  and  O_27
REMARK    3  A    between atoms: C_11  and  N_12
REMARK    4  A    between atoms: N_15  and  C_16
REMARK                            x       y       z     vdW  Elec       q    Type
REMARK                         _______ _______ _______ _____ _____    ______ ____
ROOT
ATOM      1  N   UNL     1       4.832   1.446   0.482  0.00  0.00    -0.296 N 
ATOM      2  C   UNL     1       5.711   2.251   1.111  0.00  0.00    +0.304 C 
ATOM      3  O   UNL     1       6.383   1.819   2.028  0.00  0.00    -0.253 OA
ATOM      4  N   UNL     1       5.846   3.534   0.723  0.00  0.00    -0.269 N 
ATOM      5  H   UNL     1       4.297   1.790  -0.250  0.00  0.00    +0.150 HD
ATOM      6  H   UNL     1       5.264   3.897   0.037  0.00  0.00    +0.156 HD
ENDROOT
BRANCH   4   7
ATOM      7  C   UNL     1       6.827   4.345   1.311  0.00  0.00    +0.037 A 
ATOM      8  C   UNL     1       7.476   5.309   0.552  0.00  0.00    +0.027 A 
ATOM      9  C   UNL     1       8.444   6.112   1.128  0.00  0.00    +0.049 A 
ATOM     10  C   UNL     1       8.767   5.954   2.465  0.00  0.00    +0.142 A 
ATOM     11  C   UNL     1       8.117   4.986   3.229  0.00  0.00    +0.077 A 
ATOM     12  C   UNL     1       7.144   4.186   2.653  0.00  0.00    +0.050 A 
ATOM     13  N   UNL     1       8.457   4.838   4.581  0.00  0.00    -0.280 N 
ATOM     14  C   UNL     1       9.157   5.818   5.191  0.00  0.00    +0.255 C 
ATOM     15  O   UNL     1       9.488   5.698   6.352  0.00  0.00    -0.272 OA
ATOM     16  C   UNL     1       9.526   7.063   4.424  0.00  0.00    +0.325 C 
ATOM     17  O   UNL     1       9.716   6.738   3.045  0.00  0.00    -0.481 OA
ATOM     18  H   UNL     1       8.193   4.043   5.071  0.00  0.00    +0.155 HD
ENDBRANCH   4   7
BRANCH   1  19
ATOM     19  C   UNL     1       4.686   0.050   0.903  0.00  0.00    +0.145 C 
BRANCH  19  29
ATOM     20  C   UNL     1       3.554  -4.784   1.114  0.00  0.00    +0.000 A 
ATOM     21  C   UNL     1       3.565  -3.780   2.065  0.00  0.00    +0.000 A 
ATOM     22  C   UNL     1       3.623  -2.461   1.667  0.00  0.00    +0.007 A 
ATOM     23  C   UNL     1       3.672  -2.132   0.318  0.00  0.00    -0.011 A 
ATOM     24  C   UNL     1       3.667  -3.131  -0.628  0.00  0.00    -0.041 A 
ATOM     25  C   UNL     1       3.605  -4.459  -0.226  0.00  0.00    +0.004 A 
ATOM     26  C   UNL     1       3.734  -2.849  -2.106  0.00  0.00    +0.035 C 
ATOM     27  C   UNL     1       3.366  -1.394  -2.392  0.00  0.00    +0.008 C 
ATOM     28  C   UNL     1       4.210  -0.493  -1.483  0.00  0.00    +0.041 C 
ATOM     29  C   UNL     1       3.726  -0.671  -0.045  0.00  0.00    +0.107 C 
BRANCH  29  30
ATOM     30  O   UNL     1       2.421  -0.104   0.086  0.00  0.00    -0.382 OA
ATOM     31  H   UNL     1       2.054  -0.165   0.978  0.00  0.00    +0.211 HD
ENDBRANCH  29  30
ENDBRANCH  19  29
ENDBRANCH   1  19
TORSDOF 4
