REMARK  Name = ZINC15677790
REMARK  9 active torsions:
REMARK  status: ('A' for Active; 'I' for Inactive)
REMARK    1  A    between atoms: C_1  and  C_2
REMARK    2  A    between atoms: C_2  and  O_3
REMARK    3  A    between atoms: O_3  and  C_4
REMARK    4  A    between atoms: C_7  and  C_10
REMARK    5  A    between atoms: C_10  and  C_11
REMARK    6  A    between atoms: C_11  and  N_12
REMARK    7  A    between atoms: C_13  and  C_15
REMARK    8  A    between atoms: N_20  and  S_22
REMARK    9  A    between atoms: S_22  and  N_25
REMARK                            x       y       z     vdW  Elec       q    Type
REMARK                         _______ _______ _______ _____ _____    ______ ____
ROOT
ATOM      1  C   UNL     1       7.213   4.330  -2.658  0.00  0.00    +0.091 C 
ATOM      2  C   UNL     1       8.300   3.513  -1.955  0.00  0.00    +0.015 C 
ATOM      3  C   UNL     1       9.607   4.311  -1.935  0.00  0.00    +0.018 C 
ATOM      4  C   UNL     1      10.058   4.580  -3.374  0.00  0.00    +0.110 C 
ATOM      5  N   UNL     1       8.961   5.236  -4.098  0.00  0.00    -0.166 NA
ATOM      6  C   UNL     1       7.638   4.599  -4.105  0.00  0.00    +0.123 C 
ENDROOT
BRANCH   1   8
ATOM      7  N   UNL     1       5.353   3.206  -1.477  0.00  0.00    -0.315 N 
ATOM      8  C   UNL     1       5.919   3.557  -2.648  0.00  0.00    +0.217 C 
ATOM      9  O   UNL     1       5.388   3.252  -3.695  0.00  0.00    -0.275 OA
ATOM     10  H   UNL     1       5.777   3.450  -0.640  0.00  0.00    +0.149 HD
BRANCH   7  11
ATOM     11  C   UNL     1       4.095   2.455  -1.468  0.00  0.00    +0.109 C 
BRANCH  11  12
ATOM     12  C   UNL     1       3.671   2.186  -0.023  0.00  0.00    +0.054 C 
BRANCH  12  16
ATOM     13  C   UNL     1       0.002  -0.004   0.002  0.00  0.00    +0.121 A 
ATOM     14  C   UNL     1      -0.017   1.383   0.010  0.00  0.00    +0.046 A 
ATOM     15  C   UNL     1       1.171   2.089   0.002  0.00  0.00    +0.007 A 
ATOM     16  C   UNL     1       2.377   1.414  -0.013  0.00  0.00    -0.046 A 
ATOM     17  C   UNL     1       2.399   0.031  -0.021  0.00  0.00    +0.007 A 
ATOM     18  C   UNL     1       1.214  -0.679  -0.013  0.00  0.00    +0.046 A 
BRANCH  13  19
ATOM     19  O   UNL     1      -1.165  -0.701   0.010  0.00  0.00    -0.492 OA
BRANCH  19  21
ATOM     20  C   UNL     1      -2.474  -2.732   0.012  0.00  0.00    +0.048 C 
ATOM     21  C   UNL     1      -1.069  -2.126   0.001  0.00  0.00    +0.225 C 
ENDBRANCH  19  21
ENDBRANCH  13  19
ENDBRANCH  12  16
ENDBRANCH  11  12
ENDBRANCH   7  11
ENDBRANCH   1   8
BRANCH   5  22
ATOM     22  S   UNL     1       9.213   6.668  -4.893  0.00  0.00    +0.100 S 
ATOM     23  O   UNL     1      10.602   6.732  -5.184  0.00  0.00    -0.141 OA
ATOM     24  O   UNL     1       8.218   6.751  -5.904  0.00  0.00    -0.141 OA
BRANCH  22  25
ATOM     25  N   UNL     1       8.898   7.886  -3.817  0.00  0.00    -0.166 NA
ATOM     26  C   UNL     1       7.546   8.451  -3.701  0.00  0.00    +0.116 C 
ATOM     27  C   UNL     1       7.624   9.967  -3.874  0.00  0.00    +0.082 C 
ATOM     28  C   UNL     1       8.637  10.540  -2.882  0.00  0.00    +0.173 C 
ATOM     29  C   UNL     1      10.021   9.947  -3.150  0.00  0.00    +0.082 C 
ATOM     30  C   UNL     1       9.966   8.427  -2.966  0.00  0.00    +0.116 C 
ATOM     31  O   UNL     1       8.689  11.966  -3.016  0.00  0.00    -0.346 OA
ATOM     32  C   UNL     1       8.326  12.530  -1.739  0.00  0.00    +0.191 C 
ATOM     33  C   UNL     1       8.603  11.369  -0.752  0.00  0.00    +0.191 C 
ATOM     34  O   UNL     1       8.230  10.214  -1.542  0.00  0.00    -0.346 OA
ENDBRANCH  22  25
ENDBRANCH   5  22
TORSDOF 8
