REMARK  Name = ZINC40475562
REMARK  3 active torsions:
REMARK  status: ('A' for Active; 'I' for Inactive)
REMARK    1  A    between atoms: C_3  and  C_6
REMARK    2  A    between atoms: N_21  and  C_24
REMARK    3  A    between atoms: C_27  and  N_30
REMARK                            x       y       z     vdW  Elec       q    Type
REMARK                         _______ _______ _______ _____ _____    ______ ____
ROOT
ATOM      1  C   UNL     1       3.761   1.845  -0.024  0.00  0.00    +0.078 C 
ATOM      2  C   UNL     1       4.420   1.399   1.218  0.00  0.00    +0.033 A 
ATOM      3  C   UNL     1       5.691   0.951   1.415  0.00  0.00    +0.110 A 
ATOM      4  N   UNL     1       6.010   0.680   2.680  0.00  0.00    -0.225 NA
ATOM      5  C   UNL     1       5.133   0.796   3.654  0.00  0.00    +0.147 A 
ATOM      6  S   UNL     1       5.359   0.480   5.372  0.00  0.00    -0.023 SA
ATOM      7  S   UNL     1       3.744   1.319   2.861  0.00  0.00    -0.063 S 
ATOM      8  S   UNL     1       6.779   0.734   0.029  0.00  0.00    -0.091 S 
ATOM      9  C   UNL     1       5.943   1.555  -1.320  0.00  0.00    +0.152 C 
ATOM     10  C   UNL     1       4.418   1.396  -1.328  0.00  0.00    +0.111 C 
ATOM     11  C   UNL     1       4.103   2.555  -2.301  0.00  0.00    +0.232 C 
ATOM     12  O   UNL     1       3.172   2.619  -3.074  0.00  0.00    -0.274 OA
ATOM     13  N   UNL     1       5.066   3.483  -2.122  0.00  0.00    -0.209 N 
ATOM     14  C   UNL     1       6.121   3.040  -1.407  0.00  0.00    +0.240 C 
ATOM     15  O   UNL     1       7.026   3.701  -0.945  0.00  0.00    -0.274 OA
ENDROOT
BRANCH  13  16
ATOM     16  C   UNL     1       4.972   4.791  -2.619  0.00  0.00    +0.044 A 
ATOM     17  C   UNL     1       3.846   5.186  -3.329  0.00  0.00    +0.026 A 
ATOM     18  C   UNL     1       3.756   6.474  -3.817  0.00  0.00    +0.034 A 
ATOM     19  C   UNL     1       4.786   7.371  -3.599  0.00  0.00    +0.126 A 
ATOM     20  C   UNL     1       5.909   6.981  -2.893  0.00  0.00    +0.034 A 
ATOM     21  C   UNL     1       6.002   5.695  -2.397  0.00  0.00    +0.026 A 
BRANCH  19  22
ATOM     22  N   UNL     1       4.687   8.752  -4.124  0.00  0.00    +0.056 N 
ATOM     23  O   UNL     1       3.706   9.094  -4.742  0.00  0.00    -0.126 OA
ATOM     24  O   UNL     1       5.586   9.537  -3.934  0.00  0.00    -0.126 OA
ENDBRANCH  19  22
ENDBRANCH  13  16
BRANCH   1  27
ATOM     25  C   UNL     1      -0.016   1.351   0.009  0.00  0.00    +0.008 A 
ATOM     26  C   UNL     1       1.183   2.038   0.002  0.00  0.00    +0.012 A 
ATOM     27  C   UNL     1       2.343   1.336  -0.013  0.00  0.00    -0.001 A 
ATOM     28  S   UNL     1       1.754  -0.349  -0.017  0.00  0.00    -0.101 S 
ATOM     29  C   UNL     1       0.002  -0.004   0.002  0.00  0.00    +0.045 A 
ENDBRANCH   1  27
TORSDOF 3
