REMARK  Name = ZINC05059162
REMARK  7 active torsions:
REMARK  status: ('A' for Active; 'I' for Inactive)
REMARK    1  A    between atoms: C_1  and  C_2
REMARK    2  A    between atoms: C_2  and  C_25
REMARK    3  A    between atoms: C_3  and  C_20
REMARK    4  A    between atoms: N_6  and  O_7
REMARK    5  A    between atoms: N_14  and  N_15
REMARK    6  A    between atoms: N_15  and  C_16
REMARK    7  A    between atoms: C_16  and  N_18
REMARK                            x       y       z     vdW  Elec       q    Type
REMARK                         _______ _______ _______ _____ _____    ______ ____
ROOT
ATOM      1  C   UNL     1       1.515   3.372   1.521  0.00  0.00    +0.037 C 
ATOM      2  C   UNL     1       1.173   2.618   0.234  0.00  0.00    +0.088 C 
ATOM      3  C   UNL     1       0.731   3.584  -0.843  0.00  0.00    +0.095 C 
ATOM      4  N   UNL     1      -0.324   3.115  -1.433  0.00  0.00    -0.138 N 
ATOM      5  C   UNL     1      -0.705   1.828  -0.849  0.00  0.00    +0.197 C 
ATOM      6  N   UNL     1      -0.001   1.735   0.447  0.00  0.00    -0.145 NA
ATOM      7  C   UNL     1      -0.207   0.685  -1.768  0.00  0.00    +0.056 C 
ATOM      8  C   UNL     1      -0.679   0.915  -3.144  0.00  0.00    +0.004 C 
ATOM      9  C   UNL     1      -2.192   0.898  -3.311  0.00  0.00    +0.000 C 
ATOM     10  C   UNL     1      -2.736   2.285  -3.066  0.00  0.00    +0.006 C 
ATOM     11  C   UNL     1      -3.165   2.418  -1.591  0.00  0.00    +0.056 C 
ATOM     12  C   UNL     1      -2.178   1.732  -0.661  0.00  0.00    +0.082 C 
ATOM     13  N   UNL     1      -2.630   1.047   0.321  0.00  0.00    -0.186 NA
ATOM     14  O   UNL     1      -1.010   3.758  -2.492  0.00  0.00    -0.167 OA
ATOM     15  C   UNL     1       2.377   1.800  -0.240  0.00  0.00    +0.037 C 
ENDROOT
BRANCH   3  16
ATOM     16  C   UNL     1       1.393   4.852  -1.168  0.00  0.00    +0.036 A 
ATOM     17  C   UNL     1       1.058   5.789  -2.130  0.00  0.00    +0.017 A 
ATOM     18  C   UNL     1       1.839   6.914  -2.247  0.00  0.00    +0.008 A 
ATOM     19  C   UNL     1       2.908   7.070  -1.422  0.00  0.00    +0.046 A 
ATOM     20  S   UNL     1       2.836   5.593  -0.422  0.00  0.00    -0.095 S 
ENDBRANCH   3  16
BRANCH   6  21
ATOM     21  O   UNL     1       0.419   0.360   0.719  0.00  0.00    -0.309 OA
ATOM     22  H   UNL     1       0.977   0.267   1.503  0.00  0.00    +0.237 HD
ENDBRANCH   6  21
BRANCH  13  23
ATOM     23  N   UNL     1      -4.003   1.048   0.602  0.00  0.00    -0.219 N 
ATOM     24  H   UNL     1      -4.619   1.506   0.009  0.00  0.00    +0.176 HD
BRANCH  23  25
ATOM     25  C   UNL     1      -4.467   0.412   1.695  0.00  0.00    +0.147 C 
ATOM     26  S   UNL     1      -6.145   0.412   2.038  0.00  0.00    -0.017 S 
BRANCH  25  27
ATOM     27  N   UNL     1      -3.611  -0.225   2.519  0.00  0.00    -0.339 N 
ATOM     28  H   UNL     1      -2.661  -0.225   2.324  0.00  0.00    +0.144 HD
ATOM     29  H   UNL     1      -3.946  -0.683   3.306  0.00  0.00    +0.144 HD
ENDBRANCH  25  27
ENDBRANCH  23  25
ENDBRANCH  13  23
TORSDOF 5
