REMARK  Name = ZINC55360397
REMARK  7 active torsions:
REMARK  status: ('A' for Active; 'I' for Inactive)
REMARK    1  A    between atoms: C_6  and  C_11
REMARK    2  A    between atoms: C_14  and  C_17
REMARK    3  A    between atoms: C_17  and  N_18
REMARK    4  A    between atoms: N_18  and  C_19
REMARK    5  A    between atoms: C_19  and  C_20
REMARK    6  A    between atoms: C_20  and  C_21
REMARK    7  A    between atoms: C_21  and  C_22
REMARK                            x       y       z     vdW  Elec       q    Type
REMARK                         _______ _______ _______ _____ _____    ______ ____
ROOT
ATOM      1  C   UNL     1       4.982  -2.713  -0.059  0.00  0.00    +0.160 A 
ATOM      2  N   UNL     1       6.109  -2.014  -0.061  0.00  0.00    -0.235 NA
ATOM      3  C   UNL     1       7.282  -2.624  -0.075  0.00  0.00    +0.116 A 
ATOM      4  C   UNL     1       7.324  -4.010  -0.088  0.00  0.00    -0.028 A 
ATOM      5  C   UNL     1       6.126  -4.710  -0.086  0.00  0.00    +0.116 A 
ATOM      6  N   UNL     1       4.987  -4.039  -0.066  0.00  0.00    -0.235 NA
ENDROOT
BRANCH   1  12
ATOM      7  C   UNL     1      -0.016   1.357   0.009  0.00  0.00    +0.001 A 
ATOM      8  C   UNL     1       1.168   2.091   0.002  0.00  0.00    +0.001 A 
ATOM      9  C   UNL     1       2.378   1.468  -0.013  0.00  0.00    +0.008 A 
ATOM     10  C   UNL     1       2.437   0.063  -0.021  0.00  0.00    -0.017 A 
ATOM     11  C   UNL     1       3.667  -0.612  -0.036  0.00  0.00    +0.020 A 
ATOM     12  C   UNL     1       3.685  -1.994  -0.043  0.00  0.00    +0.020 A 
ATOM     13  C   UNL     1       2.485  -2.724  -0.035  0.00  0.00    +0.012 A 
ATOM     14  C   UNL     1       1.284  -2.089  -0.021  0.00  0.00    +0.009 A 
ATOM     15  C   UNL     1       1.232  -0.684  -0.013  0.00  0.00    -0.018 A 
ATOM     16  C   UNL     1       0.002  -0.004   0.002  0.00  0.00    +0.008 A 
ENDBRANCH   1  12
BRANCH   4  17
ATOM     17  C   UNL     1       8.642  -4.741  -0.105  0.00  0.00    -0.044 C 
BRANCH  17  18
ATOM     18  N   UNL     1       9.081  -4.991   1.274  0.00  0.00    +0.382 N 
ATOM     19  H   UNL     1       9.189  -4.112   1.757  0.00  0.00    -0.085 HD
ATOM     20  H   UNL     1       8.391  -5.553   1.750  0.00  0.00    -0.085 HD
BRANCH  18  21
ATOM     21  C   UNL     1      10.365  -5.703   1.258  0.00  0.00    -0.082 C 
BRANCH  21  22
ATOM     22  C   UNL     1      10.823  -5.963   2.695  0.00  0.00    -0.013 C 
BRANCH  22  23
ATOM     23  C   UNL     1      12.161  -6.705   2.678  0.00  0.00    +0.054 C 
BRANCH  23  24
ATOM     24  C   UNL     1      12.611  -6.961   4.093  0.00  0.00    +0.050 A 
ATOM     25  C   UNL     1      12.913  -8.209   4.524  0.00  0.00    +0.071 A 
ATOM     26  S   UNL     1      13.363  -7.877   6.219  0.00  0.00    -0.061 S 
ATOM     27  C   UNL     1      13.123  -6.211   6.202  0.00  0.00    +0.156 A 
ATOM     28  N   UNL     1      12.734  -5.978   4.967  0.00  0.00    -0.230 NA
ATOM     29  N   UNL     1      13.299  -5.305   7.236  0.00  0.00    -0.338 N 
ATOM     30  H   UNL     1      13.597  -5.614   8.106  0.00  0.00    +0.144 HD
ATOM     31  H   UNL     1      13.122  -4.363   7.090  0.00  0.00    +0.144 HD
ENDBRANCH  23  24
ENDBRANCH  22  23
ENDBRANCH  21  22
ENDBRANCH  18  21
ENDBRANCH  17  18
ENDBRANCH   4  17
TORSDOF 7
