REMARK  Name = ZINC50284422
REMARK  2 active torsions:
REMARK  status: ('A' for Active; 'I' for Inactive)
REMARK    1  A    between atoms: C_1  and  C_2
REMARK    2  A    between atoms: C_2  and  C_4
REMARK                            x       y       z     vdW  Elec       q    Type
REMARK                         _______ _______ _______ _____ _____    ______ ____
ROOT
ATOM      1  C   UNL     1       0.731  -0.503   1.223  0.00  0.00    +0.234 A 
ATOM      2  N   UNL     1       0.271  -0.522   2.442  0.00  0.00    -0.111 NA
ATOM      3  N   UNL     1       1.163  -1.015   3.227  0.00  0.00    -0.116 NA
ATOM      4  C   UNL     1       2.222  -1.327   2.537  0.00  0.00    +0.332 A 
ATOM      5  O   UNL     1       1.972  -1.016   1.254  0.00  0.00    -0.426 OA
ENDROOT
BRANCH   1   7
ATOM      6  C   UNL     1      -0.019   1.526   0.010  0.00  0.00    +0.034 C 
ATOM      7  C   UNL     1       0.002  -0.004   0.002  0.00  0.00    +0.165 C 
ATOM      8 CL   UNL     1      -1.689  -0.628   0.015  0.00  0.00    -0.112 Cl
ENDBRANCH   1   7
TORSDOF 1
