REMARK  Name = ZINC20822816
REMARK  11 active torsions:
REMARK  status: ('A' for Active; 'I' for Inactive)
REMARK    1  A    between atoms: C_1  and  C_2
REMARK    2  A    between atoms: C_5  and  S_9
REMARK    3  A    between atoms: C_7  and  C_8
REMARK    4  A    between atoms: S_9  and  N_12
REMARK    5  A    between atoms: N_12  and  C_13
REMARK    6  A    between atoms: C_13  and  C_14
REMARK    7  A    between atoms: C_14  and  O_16
REMARK    8  A    between atoms: O_16  and  C_17
REMARK    9  A    between atoms: C_17  and  C_18
REMARK   10  A    between atoms: N_20  and  C_21
REMARK   11  A    between atoms: C_22  and  C_30
REMARK                            x       y       z     vdW  Elec       q    Type
REMARK                         _______ _______ _______ _____ _____    ______ ____
ROOT
ATOM      1  C   UNL     1      -1.330   1.944   0.019  0.00  0.00    +0.328 C 
ENDROOT
BRANCH   1   2
ATOM      2  C   UNL     1      -0.014   1.209   0.009  0.00  0.00    +0.255 C 
ATOM      3  O   UNL     1       0.002  -0.004   0.002  0.00  0.00    -0.272 OA
ATOM      4  N   UNL     1       1.143   1.898   0.001  0.00  0.00    -0.277 N 
ATOM      5  H   UNL     1       1.129   2.998   0.007  0.00  0.00    +0.155 HD
BRANCH   4   6
ATOM      6  C   UNL     1       2.354   1.221  -0.014  0.00  0.00    +0.084 A 
ATOM      7  C   UNL     1       3.637   1.749  -0.029  0.00  0.00    +0.068 A 
ATOM      8  C   UNL     1       4.748   0.813  -0.039  0.00  0.00    -0.023 A 
ATOM      9  C   UNL     1       4.401  -0.492  -0.044  0.00  0.00    -0.004 A 
ATOM     10  S   UNL     1       2.630  -0.489  -0.026  0.00  0.00    -0.077 S 
ATOM     11  C   UNL     1       5.323  -1.672  -0.060  0.00  0.00    +0.043 C 
ATOM     12  C   UNL     1       6.726  -1.184  -0.449  0.00  0.00    +0.005 C 
ATOM     13  C   UNL     1       7.070   0.049   0.392  0.00  0.00    +0.005 C 
ATOM     14  C   UNL     1       6.212   1.236  -0.050  0.00  0.00    +0.037 C 
BRANCH   7  15
ATOM     15  C   UNL     1       3.863   3.198  -0.031  0.00  0.00    +0.244 C 
ATOM     16  O   UNL     1       3.970   3.799   1.023  0.00  0.00    -0.270 OA
ATOM     17  N   UNL     1       3.952   3.865  -1.199  0.00  0.00    -0.325 N 
ATOM     18  H   UNL     1       4.122   4.952  -1.200  0.00  0.00    +0.145 HD
ATOM     19  H   UNL     1       3.856   3.322  -2.151  0.00  0.00    +0.145 HD
ENDBRANCH   7  15
ENDBRANCH   4   6
ENDBRANCH   1   2
BRANCH   1  20
ATOM     20  O   UNL     1      -2.420   0.986   0.019  0.00  0.00    -0.454 OA
BRANCH  20  21
ATOM     21  C   UNL     1      -3.667   1.482   0.028  0.00  0.00    +0.323 C 
ATOM     22  O   UNL     1      -3.842   2.678   0.035  0.00  0.00    -0.249 OA
BRANCH  21  23
ATOM     23  C   UNL     1      -4.850   0.548   0.028  0.00  0.00    +0.226 C 
BRANCH  23  24
ATOM     24  N   UNL     1      -6.089   1.329   0.038  0.00  0.00    -0.179 NA
ATOM     25  H   UNL     1      -6.092   2.350   0.447  0.00  0.00    +0.149 HD
BRANCH  24  26
ATOM     26  S   UNL     1      -7.530   0.601  -0.330  0.00  0.00    +0.059 S 
ATOM     27  O   UNL     1      -8.533   1.600  -0.209  0.00  0.00    -0.153 OA
ATOM     28  O   UNL     1      -7.322  -0.127  -1.533  0.00  0.00    -0.153 OA
BRANCH  26  33
ATOM     29  C   UNL     1      -8.623  -3.474   3.984  0.00  0.00    +0.044 C 
ATOM     30  C   UNL     1      -8.351  -2.456   2.906  0.00  0.00    -0.047 A 
ATOM     31  C   UNL     1      -7.643  -2.820   1.775  0.00  0.00    +0.005 A 
ATOM     32  C   UNL     1      -7.397  -1.888   0.785  0.00  0.00    +0.029 A 
ATOM     33  C   UNL     1      -7.849  -0.589   0.930  0.00  0.00    +0.106 A 
ATOM     34  C   UNL     1      -8.557  -0.226   2.060  0.00  0.00    +0.032 A 
ATOM     35  C   UNL     1      -8.808  -1.160   3.048  0.00  0.00    -0.046 A 
ATOM     36  C   UNL     1      -9.579  -0.763   4.281  0.00  0.00    +0.044 C 
ENDBRANCH  26  33
ENDBRANCH  24  26
ENDBRANCH  23  24
ENDBRANCH  21  23
ENDBRANCH  20  21
ENDBRANCH   1  20
TORSDOF 9
