REMARK  Name = ZINC25782040
REMARK  7 active torsions:
REMARK  status: ('A' for Active; 'I' for Inactive)
REMARK    1  A    between atoms: C_1  and  C_2
REMARK    2  A    between atoms: N_8  and  C_9
REMARK    3  A    between atoms: C_9  and  C_10
REMARK    4  A    between atoms: C_11  and  C_21
REMARK    5  A    between atoms: N_23  and  N_24
REMARK    6  A    between atoms: C_25  and  C_26
REMARK    7  A    between atoms: C_25  and  C_27
REMARK                            x       y       z     vdW  Elec       q    Type
REMARK                         _______ _______ _______ _____ _____    ______ ____
ROOT
ATOM      1  C   UNL     1       5.824  -0.701  -3.482  0.00  0.00    +0.063 A 
ATOM      2  C   UNL     1       6.240   0.580  -3.252  0.00  0.00    +0.170 A 
ATOM      3  N   UNL     1       7.316   0.540  -2.448  0.00  0.00    -0.124 NA
ATOM      4  N   UNL     1       7.597  -0.684  -2.163  0.00  0.00    -0.058 NA
ATOM      5  N   UNL     1       6.662  -1.512  -2.800  0.00  0.00    -0.194 N 
ATOM      6  C   UNL     1       6.609  -2.909  -2.743  0.00  0.00    +0.240 A 
ATOM      7  C   UNL     1       7.532  -3.773  -2.001  0.00  0.00    +0.206 A 
ATOM      8  N   UNL     1       7.168  -5.013  -2.179  0.00  0.00    -0.032 NA
ATOM      9  O   UNL     1       6.033  -5.013  -3.028  0.00  0.00    -0.239 OA
ATOM     10  N   UNL     1       5.735  -3.665  -3.344  0.00  0.00    -0.027 NA
ATOM     11  N   UNL     1       8.610  -3.344  -1.234  0.00  0.00    -0.337 N 
ATOM     12  H   UNL     1       9.243  -4.079  -0.715  0.00  0.00    +0.144 HD
ATOM     13  H   UNL     1       8.829  -2.270  -1.146  0.00  0.00    +0.144 HD
ENDROOT
BRANCH   2  14
ATOM     14  C   UNL     1       5.613   1.800  -3.795  0.00  0.00    +0.285 C 
ATOM     15  O   UNL     1       4.638   1.714  -4.515  0.00  0.00    -0.267 OA
ATOM     16  N   UNL     1       6.122   3.010  -3.491  0.00  0.00    -0.201 N 
ATOM     17  H   UNL     1       7.005   3.088  -2.840  0.00  0.00    +0.178 HD
BRANCH  16  18
ATOM     18  N   UNL     1       5.527   4.170  -4.006  0.00  0.00    -0.184 NA
ATOM     19  C   UNL     1       6.087   5.325  -3.816  0.00  0.00    +0.063 C 
ATOM     20  C   UNL     1       5.370   6.586  -4.229  0.00  0.00    +0.068 C 
BRANCH  19  21
ATOM     21  C   UNL     1       7.422   5.405  -3.197  0.00  0.00    +0.000 A 
ATOM     22  C   UNL     1       7.751   6.452  -2.326  0.00  0.00    +0.029 A 
ATOM     23  C   UNL     1       9.011   6.485  -1.766  0.00  0.00    +0.111 A 
ATOM     24  N   UNL     1       9.902   5.554  -2.048  0.00  0.00    -0.263 NA
ATOM     25  C   UNL     1       9.636   4.553  -2.867  0.00  0.00    +0.111 A 
ATOM     26  C   UNL     1       8.401   4.439  -3.468  0.00  0.00    +0.029 A 
ENDBRANCH  19  21
ENDBRANCH  16  18
ENDBRANCH   2  14
BRANCH   1  27
ATOM     27  C   UNL     1       4.651  -1.127  -4.328  0.00  0.00    -0.019 C 
BRANCH  27  34
ATOM     28  C   UNL     1       2.653  -3.015  -4.928  0.00  0.00    -0.013 C 
ATOM     29  C   UNL     1       2.296  -1.681  -4.269  0.00  0.00    -0.071 C 
ATOM     30  C   UNL     1       1.097  -1.878  -3.338  0.00  0.00    -0.016 C 
ATOM     31  C   UNL     1       0.756  -0.545  -2.665  0.00  0.00    -0.003 C 
ATOM     32  C   UNL     1       1.984  -0.037  -1.904  0.00  0.00    -0.019 C 
ATOM     33  C   UNL     1       3.157   0.106  -2.877  0.00  0.00    -0.078 C 
ATOM     34  N   UNL     1       3.444  -1.195  -3.494  0.00  0.00    +0.385 N 
ATOM     35  H   UNL     1       3.632  -1.916  -2.684  0.00  0.00    -0.081 HD
ENDBRANCH  27  34
ENDBRANCH   1  27
TORSDOF 5
