REMARK  Name = ZINC20724494
REMARK  7 active torsions:
REMARK  status: ('A' for Active; 'I' for Inactive)
REMARK    1  A    between atoms: C_1  and  O_2
REMARK    2  A    between atoms: O_2  and  C_3
REMARK    3  A    between atoms: C_8  and  O_9
REMARK    4  A    between atoms: O_9  and  C_10
REMARK    5  A    between atoms: N_13  and  C_16
REMARK    6  A    between atoms: C_16  and  C_17
REMARK    7  A    between atoms: C_17  and  N_19
REMARK                            x       y       z     vdW  Elec       q    Type
REMARK                         _______ _______ _______ _____ _____    ______ ____
ROOT
ATOM      1  C   UNL     1      -1.221  -0.720   0.003  0.00  0.00    +0.162 A 
ATOM      2  C   UNL     1      -2.377   0.032   0.013  0.00  0.00    +0.064 A 
ATOM      3  C   UNL     1      -3.615  -0.610   0.022  0.00  0.00    +0.069 A 
ATOM      4  C   UNL     1      -3.684  -2.022   0.020  0.00  0.00    +0.082 A 
ATOM      5  C   UNL     1      -2.505  -2.766   0.009  0.00  0.00    +0.078 A 
ATOM      6  C   UNL     1      -1.285  -2.117  -0.005  0.00  0.00    +0.164 A 
ATOM      7  N   UNL     1      -4.902  -2.621   0.029  0.00  0.00    -0.237 NA
ATOM      8  C   UNL     1      -6.000  -1.930   0.040  0.00  0.00    +0.203 A 
ATOM      9  N   UNL     1      -6.028  -0.571   0.042  0.00  0.00    -0.290 N 
ATOM     10  C   UNL     1      -4.877   0.142   0.034  0.00  0.00    +0.262 A 
ATOM     11  O   UNL     1      -4.888   1.359   0.036  0.00  0.00    -0.267 OA
ENDROOT
BRANCH   1  13
ATOM     12  C   UNL     1      -0.015   1.330   0.002  0.00  0.00    +0.277 C 
ATOM     13  O   UNL     1      -0.011  -0.099  -0.007  0.00  0.00    -0.491 OA
ENDBRANCH   1  13
BRANCH   6  14
ATOM     14  O   UNL     1      -0.137  -2.843  -0.021  0.00  0.00    -0.491 OA
ATOM     15  C   UNL     1      -0.269  -4.266  -0.028  0.00  0.00    +0.277 C 
ENDBRANCH   6  14
BRANCH   9  16
ATOM     16  C   UNL     1      -7.315   0.129   0.054  0.00  0.00    +0.224 C 
BRANCH  16  17
ATOM     17  C   UNL     1      -7.745   0.366   1.479  0.00  0.00    +0.259 C 
ATOM     18  O   UNL     1      -7.043  -0.013   2.397  0.00  0.00    -0.272 OA
BRANCH  17  19
ATOM     19  N   UNL     1      -8.891   0.990   1.732  0.00  0.00    -0.145 NA
ATOM     20  C   UNL     1      -9.322   1.108   2.985  0.00  0.00    +0.198 A 
ATOM     21  N   UNL     1      -8.628   0.737   4.094  0.00  0.00    -0.326 N 
ATOM     22  H   UNL     1      -7.742   0.344   4.104  0.00  0.00    +0.169 HD
ATOM     23  C   UNL     1      -9.409   1.018   5.210  0.00  0.00    +0.065 A 
ATOM     24  C   UNL     1      -9.207   0.850   6.573  0.00  0.00    +0.028 A 
ATOM     25  C   UNL     1     -10.189   1.234   7.465  0.00  0.00    +0.002 A 
ATOM     26  C   UNL     1     -11.373   1.784   7.007  0.00  0.00    +0.002 A 
ATOM     27  C   UNL     1     -11.584   1.955   5.653  0.00  0.00    +0.028 A 
ATOM     28  C   UNL     1     -10.604   1.573   4.748  0.00  0.00    +0.065 A 
ATOM     29  N   UNL     1     -10.522   1.623   3.360  0.00  0.00    -0.326 N 
ATOM     30  H   UNL     1     -11.205   1.965   2.762  0.00  0.00    +0.169 HD
ENDBRANCH  17  19
ENDBRANCH  16  17
ENDBRANCH   9  16
TORSDOF 5
