REMARK  Name = ZINC44864583
REMARK  6 active torsions:
REMARK  status: ('A' for Active; 'I' for Inactive)
REMARK    1  A    between atoms: C_1  and  C_2
REMARK    2  A    between atoms: C_2  and  C_3
REMARK    3  A    between atoms: C_3  and  C_5
REMARK    4  A    between atoms: C_3  and  C_9
REMARK    5  A    between atoms: N_6  and  O_7
REMARK    6  A    between atoms: N_11  and  C_12
REMARK                            x       y       z     vdW  Elec       q    Type
REMARK                         _______ _______ _______ _____ _____    ______ ____
ROOT
ATOM      1  C   UNL     1       0.872  -2.011   1.173  0.00  0.00    +0.227 C 
ATOM      2  O   UNL     1       0.392  -2.701   2.047  0.00  0.00    -0.275 OA
ATOM      3  N   UNL     1       1.526  -2.584   0.144  0.00  0.00    -0.285 N 
ATOM      4  H   UNL     1       1.852  -2.038  -0.589  0.00  0.00    +0.155 HD
ENDROOT
BRANCH   3   5
ATOM      5  C   UNL     1       1.736  -3.967   0.132  0.00  0.00    +0.039 A 
ATOM      6  C   UNL     1       2.909  -4.488  -0.399  0.00  0.00    +0.061 A 
ATOM      7  C   UNL     1       3.114  -5.856  -0.409  0.00  0.00    +0.128 A 
ATOM      8  C   UNL     1       2.151  -6.706   0.108  0.00  0.00    +0.076 A 
ATOM      9  C   UNL     1       0.981  -6.189   0.638  0.00  0.00    +0.128 A 
ATOM     10  C   UNL     1       0.774  -4.821   0.656  0.00  0.00    +0.061 A 
ATOM     11  F   UNL     1       0.043  -7.020   1.142  0.00  0.00    -0.205 F 
ATOM     12  F   UNL     1       4.255  -6.364  -0.926  0.00  0.00    -0.205 F 
ENDBRANCH   3   5
BRANCH   1  13
ATOM     13  C   UNL     1       0.736  -0.511   1.238  0.00  0.00    +0.141 C 
BRANCH  13  14
ATOM     14  C   UNL     1      -0.032  -0.129   2.477  0.00  0.00    +0.144 C 
ATOM     15  N   UNL     1      -1.307   0.067   2.411  0.00  0.00    -0.076 NA
ATOM     16  N   UNL     1       0.625   0.010   3.679  0.00  0.00    -0.343 N 
ATOM     17  H   UNL     1       1.583  -0.137   3.728  0.00  0.00    +0.144 HD
ATOM     18  H   UNL     1       0.131   0.256   4.476  0.00  0.00    +0.144 HD
BRANCH  15  19
ATOM     19  O   UNL     1      -2.029   0.426   3.575  0.00  0.00    -0.408 OA
ATOM     20  H   UNL     1      -2.977   0.551   3.428  0.00  0.00    +0.328 HD
ENDBRANCH  15  19
ENDBRANCH  13  14
BRANCH  13  22
ATOM     21  C   UNL     1      -0.041   1.517   0.003  0.00  0.00    +0.005 C 
ATOM     22  C   UNL     1      -0.012  -0.013  -0.000  0.00  0.00    +0.017 C 
ENDBRANCH  13  22
ENDBRANCH   1  13
TORSDOF 5
