REMARK  Name = ZINC62411418
REMARK  3 active torsions:
REMARK  status: ('A' for Active; 'I' for Inactive)
REMARK    1  A    between atoms: N_7  and  C_8
REMARK    2  A    between atoms: C_8  and  C_9
REMARK    3  A    between atoms: C_9  and  N_10
REMARK                            x       y       z     vdW  Elec       q    Type
REMARK                         _______ _______ _______ _____ _____    ______ ____
ROOT
ATOM      1  N   UNL     1       4.948  -4.083  -0.060  0.00  0.00    -0.298 N 
ATOM      2  C   UNL     1       6.116  -4.756  -0.082  0.00  0.00    +0.303 C 
ATOM      3  O   UNL     1       7.165  -4.151  -0.187  0.00  0.00    -0.253 OA
ATOM      4  N   UNL     1       6.120  -6.101   0.013  0.00  0.00    -0.282 N 
ATOM      5  C   UNL     1       4.861  -6.789   0.012  0.00  0.00    +0.113 C 
ATOM      6  C   UNL     1       4.925  -8.126  -0.664  0.00  0.00    +0.007 C 
ATOM      7  C   UNL     1       5.661  -8.081  -1.993  0.00  0.00    +0.008 C 
ATOM      8  C   UNL     1       7.160  -8.281  -1.881  0.00  0.00    -0.009 C 
ATOM      9  C   UNL     1       7.489  -9.513  -1.034  0.00  0.00    +0.007 C 
ATOM     10  C   UNL     1       6.880  -9.286   0.351  0.00  0.00    -0.009 C 
ATOM     11  C   UNL     1       5.357  -9.269   0.210  0.00  0.00    +0.008 C 
ATOM     12  C   UNL     1       7.387  -8.009   0.981  0.00  0.00    +0.026 C 
ATOM     13  C   UNL     1       7.399  -6.783   0.104  0.00  0.00    +0.078 C 
ATOM     14  C   UNL     1       7.895  -7.079  -1.306  0.00  0.00    +0.026 C 
ATOM     15  H   UNL     1       4.109  -4.569  -0.048  0.00  0.00    +0.150 HD
ENDROOT
BRANCH   1  16
ATOM     16  C   UNL     1       4.948  -2.618  -0.054  0.00  0.00    +0.124 C 
BRANCH  16  17
ATOM     17  C   UNL     1       3.505  -2.109  -0.028  0.00  0.00    +0.123 C 
BRANCH  17  24
ATOM     18  C   UNL     1      -0.013   1.385   0.044  0.00  0.00    +0.039 A 
ATOM     19  C   UNL     1       1.195   2.063   0.027  0.00  0.00    +0.116 A 
ATOM     20  N   UNL     1       2.323   1.372   0.006  0.00  0.00    -0.223 NA
ATOM     21  C   UNL     1       2.305   0.047   0.001  0.00  0.00    +0.215 A 
ATOM     22  N   UNL     1       1.168  -0.631   0.016  0.00  0.00    -0.223 NA
ATOM     23  C   UNL     1       0.005  -0.001   0.038  0.00  0.00    +0.116 A 
ATOM     24  N   UNL     1       3.504  -0.644  -0.022  0.00  0.00    -0.312 N 
ATOM     25  H   UNL     1       4.344  -0.158  -0.033  0.00  0.00    +0.149 HD
ENDBRANCH  17  24
ENDBRANCH  16  17
ENDBRANCH   1  16
TORSDOF 3
