REMARK  Name = ZINC36522242
REMARK  18 active torsions:
REMARK  status: ('A' for Active; 'I' for Inactive)
REMARK    1  A    between atoms: C_1  and  C_2
REMARK    2  A    between atoms: C_2  and  C_3
REMARK    3  A    between atoms: C_3  and  C_4
REMARK    4  A    between atoms: C_4  and  C_5
REMARK    5  A    between atoms: C_5  and  C_6
REMARK    6  A    between atoms: C_6  and  N_7
REMARK    7  A    between atoms: N_7  and  C_8
REMARK    8  A    between atoms: C_8  and  C_10
REMARK    9  A    between atoms: C_8  and  C_19
REMARK   10  A    between atoms: C_11  and  O_18
REMARK   11  A    between atoms: C_13  and  O_17
REMARK   12  A    between atoms: C_15  and  O_16
REMARK   13  A    between atoms: N_21  and  C_22
REMARK   14  A    between atoms: C_22  and  C_23
REMARK   15  A    between atoms: C_22  and  C_24
REMARK   16  A    between atoms: C_22  and  C_25
REMARK   17  A    between atoms: C_26  and  C_28
REMARK   18  A    between atoms: C_28  and  C_29
REMARK                            x       y       z     vdW  Elec       q    Type
REMARK                         _______ _______ _______ _____ _____    ______ ____
ROOT
ATOM      1  C   UNL     1      -4.854  -4.710  -1.232  0.00  0.00    +0.199 C 
ENDROOT
BRANCH   1   2
ATOM      2  C   UNL     1      -5.278  -5.895  -0.404  0.00  0.00    +0.065 A 
ATOM      3  C   UNL     1      -6.311  -6.711  -0.839  0.00  0.00    +0.129 A 
ATOM      4  C   UNL     1      -6.701  -7.802  -0.077  0.00  0.00    +0.091 A 
ATOM      5  C   UNL     1      -6.058  -8.078   1.120  0.00  0.00    +0.124 A 
ATOM      6  C   UNL     1      -5.024  -7.262   1.555  0.00  0.00    +0.091 A 
ATOM      7  C   UNL     1      -4.631  -6.173   0.791  0.00  0.00    +0.129 A 
BRANCH   7   8
ATOM      8  O   UNL     1      -3.615  -5.377   1.215  0.00  0.00    -0.506 OA
ATOM      9  H   UNL     1      -3.885  -4.697   1.847  0.00  0.00    +0.292 HD
ENDBRANCH   7   8
BRANCH   5  10
ATOM     10  O   UNL     1      -6.440  -9.146   1.867  0.00  0.00    -0.507 OA
ATOM     11  H   UNL     1      -5.970  -9.964   1.654  0.00  0.00    +0.292 HD
ENDBRANCH   5  10
BRANCH   3  12
ATOM     12  O   UNL     1      -6.942  -6.442  -2.013  0.00  0.00    -0.506 OA
ATOM     13  H   UNL     1      -6.591  -6.932  -2.769  0.00  0.00    +0.292 HD
ENDBRANCH   3  12
ENDBRANCH   1   2
BRANCH   1  14
ATOM     14  C   UNL     1      -6.077  -3.987  -1.737  0.00  0.00    +0.239 C 
ATOM     15  O   UNL     1      -6.755  -3.336  -0.971  0.00  0.00    -0.273 OA
ATOM     16  N   UNL     1      -6.415  -4.064  -3.039  0.00  0.00    -0.309 N 
ATOM     17  H   UNL     1      -5.935  -4.665  -3.630  0.00  0.00    +0.149 HD
BRANCH  16  18
ATOM     18  C   UNL     1      -7.508  -3.240  -3.562  0.00  0.00    +0.026 C 
ATOM     19  C   UNL     1      -7.176  -1.761  -3.353  0.00  0.00    +0.031 C 
ATOM     20  C   UNL     1      -7.686  -3.517  -5.056  0.00  0.00    +0.031 C 
ATOM     21  C   UNL     1      -8.803  -3.582  -2.822  0.00  0.00    +0.031 C 
ENDBRANCH  16  18
ENDBRANCH   1  14
BRANCH   1  22
ATOM     22  N   UNL     1      -4.054  -3.800  -0.408  0.00  0.00    -0.285 N 
ATOM     23  C   UNL     1      -4.597  -3.225   0.683  0.00  0.00    +0.221 C 
ATOM     24  O   UNL     1      -5.673  -3.603   1.096  0.00  0.00    -0.275 OA
BRANCH  22  25
ATOM     25  C   UNL     1      -2.664  -3.514  -0.771  0.00  0.00    +0.109 C 
BRANCH  25  26
ATOM     26  C   UNL     1      -2.618  -2.301  -1.702  0.00  0.00    +0.019 C 
BRANCH  26  27
ATOM     27  C   UNL     1      -1.166  -2.003  -2.081  0.00  0.00    +0.002 C 
BRANCH  27  28
ATOM     28  C   UNL     1      -1.120  -0.790  -3.012  0.00  0.00    -0.000 C 
BRANCH  28  30
ATOM     29  C   UNL     1       0.377   0.721  -4.322  0.00  0.00    +0.004 C 
ATOM     30  C   UNL     1       0.332  -0.492  -3.391  0.00  0.00    -0.003 C 
ENDBRANCH  28  30
ENDBRANCH  27  28
ENDBRANCH  26  27
ENDBRANCH  25  26
ENDBRANCH  22  25
BRANCH  23  31
ATOM     31  C   UNL     1      -3.868  -2.112   1.390  0.00  0.00    +0.131 C 
BRANCH  31  32
ATOM     32  C   UNL     1      -4.683  -1.647   2.569  0.00  0.00    -0.039 A 
ATOM     33  C   UNL     1      -5.611  -0.634   2.412  0.00  0.00    +0.004 A 
ATOM     34  C   UNL     1      -6.359  -0.208   3.494  0.00  0.00    +0.000 A 
ATOM     35  C   UNL     1      -6.179  -0.794   4.733  0.00  0.00    +0.000 A 
ATOM     36  C   UNL     1      -5.252  -1.808   4.890  0.00  0.00    +0.000 A 
ATOM     37  C   UNL     1      -4.507  -2.237   3.807  0.00  0.00    +0.004 A 
ENDBRANCH  31  32
ENDBRANCH  23  31
ENDBRANCH   1  22
TORSDOF 14
