REMARK  Name = ZINC20321228
REMARK  7 active torsions:
REMARK  status: ('A' for Active; 'I' for Inactive)
REMARK    1  A    between atoms: C_1  and  C_2
REMARK    2  A    between atoms: C_3  and  C_17
REMARK    3  A    between atoms: N_11  and  C_12
REMARK    4  A    between atoms: C_12  and  C_13
REMARK    5  A    between atoms: C_12  and  C_14
REMARK    6  A    between atoms: C_12  and  C_15
REMARK    7  A    between atoms: C_15  and  O_16
REMARK                            x       y       z     vdW  Elec       q    Type
REMARK                         _______ _______ _______ _____ _____    ______ ____
ROOT
ATOM      1  C   UNL     1       0.592   1.589  -0.059  0.00  0.00    +0.052 C 
ATOM      2  C   UNL     1       0.281   0.114  -0.060  0.00  0.00    -0.003 A 
ATOM      3  C   UNL     1       0.029  -0.690   0.999  0.00  0.00    +0.005 A 
ATOM      4  C   UNL     1      -0.250  -2.102   0.758  0.00  0.00    +0.055 A 
ATOM      5  C   UNL     1      -0.541  -3.139   1.685  0.00  0.00    +0.131 A 
ATOM      6  N   UNL     1      -0.765  -4.363   1.234  0.00  0.00    -0.220 NA
ATOM      7  C   UNL     1      -0.726  -4.656  -0.053  0.00  0.00    +0.224 A 
ATOM      8  N   UNL     1      -0.461  -3.736  -0.960  0.00  0.00    -0.228 NA
ATOM      9  C   UNL     1      -0.226  -2.489  -0.597  0.00  0.00    +0.114 A 
ATOM     10  S   UNL     1       0.151  -0.986  -1.457  0.00  0.00    -0.073 S 
ATOM     11  N   UNL     1      -0.590  -2.873   3.041  0.00  0.00    -0.321 N 
ATOM     12  H   UNL     1      -0.476  -1.840   3.403  0.00  0.00    +0.148 HD
ENDROOT
BRANCH   3  13
ATOM     13  C   UNL     1       0.037  -0.147   2.378  0.00  0.00    -0.016 A 
ATOM     14  C   UNL     1       1.097  -0.434   3.238  0.00  0.00    +0.008 A 
ATOM     15  C   UNL     1       1.101   0.079   4.519  0.00  0.00    +0.001 A 
ATOM     16  C   UNL     1       0.052   0.868   4.954  0.00  0.00    +0.000 A 
ATOM     17  C   UNL     1      -1.005   1.153   4.108  0.00  0.00    +0.001 A 
ATOM     18  C   UNL     1      -1.018   0.649   2.823  0.00  0.00    +0.008 A 
ENDBRANCH   3  13
BRANCH  11  19
ATOM     19  C   UNL     1      -0.793  -3.966   3.995  0.00  0.00    +0.051 C 
ATOM     20  C   UNL     1      -2.128  -4.654   3.706  0.00  0.00    +0.033 C 
ATOM     21  C   UNL     1       0.344  -4.980   3.859  0.00  0.00    +0.033 C 
BRANCH  19  22
ATOM     22  C   UNL     1      -0.807  -3.404   5.419  0.00  0.00    +0.180 C 
BRANCH  22  23
ATOM     23  O   UNL     1      -1.005  -4.470   6.349  0.00  0.00    -0.393 OA
ATOM     24  H   UNL     1      -1.044  -4.258   7.428  0.00  0.00    +0.209 HD
ENDBRANCH  22  23
ENDBRANCH  19  22
ENDBRANCH  11  19
TORSDOF 4
