REMARK  Name = ZINC12645442
REMARK  9 active torsions:
REMARK  status: ('A' for Active; 'I' for Inactive)
REMARK    1  A    between atoms: C_1  and  C_2
REMARK    2  A    between atoms: C_2  and  C_3
REMARK    3  A    between atoms: C_2  and  C_4
REMARK    4  A    between atoms: N_6  and  C_7
REMARK    5  A    between atoms: C_10  and  N_13
REMARK    6  A    between atoms: N_13  and  C_14
REMARK    7  A    between atoms: C_14  and  C_15
REMARK    8  A    between atoms: N_17  and  C_18
REMARK    9  A    between atoms: C_23  and  N_24
REMARK                            x       y       z     vdW  Elec       q    Type
REMARK                         _______ _______ _______ _____ _____    ______ ____
ROOT
ATOM      1  C   UNL     1      -0.381   1.434  -0.098  0.00  0.00    +0.198 C 
ENDROOT
BRANCH   1   2
ATOM      2  C   UNL     1      -1.041   1.857  -1.385  0.00  0.00    +0.234 C 
ATOM      3  O   UNL     1      -2.011   2.585  -1.358  0.00  0.00    -0.274 OA
ATOM      4  N   UNL     1      -0.554   1.428  -2.565  0.00  0.00    -0.282 N 
ATOM      5  H   UNL     1       0.261   0.902  -2.591  0.00  0.00    +0.155 HD
BRANCH   4   6
ATOM      6  C   UNL     1      -1.223   1.740  -3.754  0.00  0.00    +0.061 A 
ATOM      7  C   UNL     1      -1.866   2.962  -3.890  0.00  0.00    +0.045 A 
ATOM      8  C   UNL     1      -2.523   3.270  -5.067  0.00  0.00    +0.043 A 
ATOM      9  C   UNL     1      -2.549   2.359  -6.109  0.00  0.00    +0.022 A 
ATOM     10  C   UNL     1      -1.915   1.138  -5.979  0.00  0.00    +0.031 A 
ATOM     11  C   UNL     1      -1.250   0.823  -4.803  0.00  0.00    +0.088 A 
ATOM     12 CL   UNL     1      -3.322   4.802  -5.237  0.00  0.00    -0.083 Cl
BRANCH  11  13
ATOM     13  N   UNL     1      -0.606  -0.417  -4.670  0.00  0.00    -0.218 N 
ATOM     14  C   UNL     1      -0.468  -1.361  -5.621  0.00  0.00    +0.225 A 
ATOM     15  N   UNL     1       0.195  -2.364  -5.102  0.00  0.00    -0.222 NA
ATOM     16  C   UNL     1       0.486  -2.103  -3.829  0.00  0.00    +0.245 A 
ATOM     17  N   UNL     1       0.017  -0.923  -3.518  0.00  0.00    -0.153 NA
ENDBRANCH  11  13
ENDBRANCH   4   6
ENDBRANCH   1   2
BRANCH   1  18
ATOM     18  N   UNL     1      -1.093   2.030   1.035  0.00  0.00    -0.335 N 
ATOM     19  H   UNL     1      -1.864   2.598   0.880  0.00  0.00    +0.147 HD
BRANCH  18  23
ATOM     20  C   UNL     1       0.192   1.282   4.930  0.00  0.00    +0.034 A 
ATOM     21  C   UNL     1      -0.911   2.095   4.707  0.00  0.00    +0.025 A 
ATOM     22  C   UNL     1      -1.337   2.343   3.417  0.00  0.00    +0.025 A 
ATOM     23  C   UNL     1      -0.662   1.779   2.342  0.00  0.00    +0.028 A 
ATOM     24  C   UNL     1       0.438   0.961   2.566  0.00  0.00    +0.025 A 
ATOM     25  C   UNL     1       0.867   0.717   3.856  0.00  0.00    +0.025 A 
BRANCH  20  28
ATOM     26  C   UNL     1      -0.251   1.101   7.262  0.00  0.00    +0.220 C 
ATOM     27  O   UNL     1      -1.430   1.278   7.041  0.00  0.00    -0.275 OA
ATOM     28  N   UNL     1       0.624   1.030   6.239  0.00  0.00    -0.285 N 
ATOM     29  H   UNL     1       1.552   0.805   6.409  0.00  0.00    +0.155 HD
BRANCH  26  31
ATOM     30  C   UNL     1      -0.947   1.079   9.642  0.00  0.00    +0.017 C 
ATOM     31  C   UNL     1       0.237   0.962   8.681  0.00  0.00    +0.069 C 
ATOM     32  C   UNL     1       0.904  -0.404   8.859  0.00  0.00    +0.017 C 
ENDBRANCH  26  31
ENDBRANCH  20  28
ENDBRANCH  18  23
ENDBRANCH   1  18
TORSDOF 7
