REMARK  Name = ZINC42121720
REMARK  8 active torsions:
REMARK  status: ('A' for Active; 'I' for Inactive)
REMARK    1  A    between atoms: C_1  and  C_2
REMARK    2  A    between atoms: C_4  and  N_7
REMARK    3  A    between atoms: C_8  and  C_10
REMARK    4  A    between atoms: C_10  and  N_11
REMARK    5  A    between atoms: N_11  and  C_12
REMARK    6  A    between atoms: C_17  and  C_18
REMARK    7  A    between atoms: C_22  and  C_29
REMARK    8  A    between atoms: C_25  and  C_28
REMARK                            x       y       z     vdW  Elec       q    Type
REMARK                         _______ _______ _______ _____ _____    ______ ____
ROOT
ATOM      1  C   UNL     1      -0.193  -8.205  -1.664  0.00  0.00    +0.040 A 
ATOM      2  C   UNL     1      -0.298  -8.319  -3.045  0.00  0.00    +0.024 A 
ATOM      3  C   UNL     1       0.008  -9.512  -3.666  0.00  0.00    +0.002 A 
ATOM      4  C   UNL     1       0.421 -10.605  -2.920  0.00  0.00    +0.001 A 
ATOM      5  C   UNL     1       0.531 -10.512  -1.550  0.00  0.00    +0.015 A 
ATOM      6  C   UNL     1       0.230  -9.309  -0.907  0.00  0.00    +0.058 A 
ENDROOT
BRANCH   6   7
ATOM      7  C   UNL     1       0.351  -9.200   0.558  0.00  0.00    +0.248 C 
ATOM      8  O   UNL     1      -0.571  -8.755   1.214  0.00  0.00    -0.270 OA
ATOM      9  N   UNL     1       1.485  -9.595   1.172  0.00  0.00    -0.297 N 
ATOM     10  C   UNL     1       2.652 -10.019   0.387  0.00  0.00    +0.111 C 
ATOM     11  C   UNL     1       3.870  -9.207   0.837  0.00  0.00    +0.004 C 
ATOM     12  C   UNL     1       4.044  -9.352   2.351  0.00  0.00    +0.009 C 
ATOM     13  C   UNL     1       2.807  -8.802   3.063  0.00  0.00    +0.004 C 
ATOM     14  C   UNL     1       1.578  -9.603   2.638  0.00  0.00    +0.111 C 
ATOM     15  C   UNL     1       2.996  -8.916   4.577  0.00  0.00    +0.009 C 
ATOM     16  C   UNL     1       3.660  -7.733   0.486  0.00  0.00    +0.009 C 
ENDBRANCH   6   7
BRANCH   1  17
ATOM     17  N   UNL     1      -0.500  -7.005  -1.037  0.00  0.00    -0.335 N 
ATOM     18  H   UNL     1      -0.426  -6.928  -0.073  0.00  0.00    +0.147 HD
BRANCH  17  19
ATOM     19  C   UNL     1      -0.935  -5.853  -1.831  0.00  0.00    +0.198 C 
BRANCH  19  21
ATOM     20  N   UNL     1      -1.617  -3.510  -1.431  0.00  0.00    -0.253 N 
ATOM     21  C   UNL     1      -1.203  -4.685  -0.918  0.00  0.00    +0.236 C 
ATOM     22  O   UNL     1      -1.046  -4.802   0.279  0.00  0.00    -0.274 OA
ATOM     23  H   UNL     1      -1.743  -3.416  -2.389  0.00  0.00    +0.158 HD
BRANCH  20  27
ATOM     24  C   UNL     1      -2.851   1.031   0.217  0.00  0.00    +0.069 C 
ATOM     25  C   UNL     1      -2.411  -0.410   0.179  0.00  0.00    +0.082 A 
ATOM     26  C   UNL     1      -2.283  -1.200  -0.972  0.00  0.00    +0.092 A 
ATOM     27  C   UNL     1      -1.864  -2.434  -0.591  0.00  0.00    +0.224 A 
ATOM     28  O   UNL     1      -1.731  -2.428   0.747  0.00  0.00    -0.339 OA
ATOM     29  N   UNL     1      -2.078  -1.136   1.211  0.00  0.00    -0.081 NA
ENDBRANCH  20  27
ENDBRANCH  19  21
ENDBRANCH  17  19
ENDBRANCH   1  17
TORSDOF 5
