REMARK  Name = ZINC39361610
REMARK  7 active torsions:
REMARK  status: ('A' for Active; 'I' for Inactive)
REMARK    1  A    between atoms: C_1  and  C_2
REMARK    2  A    between atoms: C_8  and  C_10
REMARK    3  A    between atoms: C_10  and  S_11
REMARK    4  A    between atoms: S_11  and  C_12
REMARK    5  A    between atoms: C_15  and  C_24
REMARK    6  A    between atoms: N_17  and  C_18
REMARK    7  A    between atoms: C_24  and  C_25
REMARK                            x       y       z     vdW  Elec       q    Type
REMARK                         _______ _______ _______ _____ _____    ______ ____
ROOT
ATOM      1  C   UNL     1      -6.268  -5.421  -0.032  0.00  0.00    +0.180 C 
ATOM      2  N   UNL     1      -5.701  -6.580  -0.026  0.00  0.00    -0.162 NA
ATOM      3  N   UNL     1      -6.645  -7.613   0.013  0.00  0.00    -0.246 N 
ATOM      4  C   UNL     1      -7.966  -6.962   0.032  0.00  0.00    +0.187 C 
ATOM      5  N   UNL     1      -7.652  -5.523   0.007  0.00  0.00    -0.258 N 
ATOM      6  H   UNL     1      -6.466  -8.567   0.024  0.00  0.00    +0.170 HD
ENDROOT
BRANCH   5   7
ATOM      7  C   UNL     1      -8.567  -4.468   0.018  0.00  0.00    +0.037 A 
ATOM      8  C   UNL     1      -9.416  -4.272  -1.065  0.00  0.00    +0.023 A 
ATOM      9  C   UNL     1     -10.320  -3.228  -1.051  0.00  0.00    +0.002 A 
ATOM     10  C   UNL     1     -10.380  -2.378   0.038  0.00  0.00    +0.000 A 
ATOM     11  C   UNL     1      -9.537  -2.570   1.117  0.00  0.00    +0.002 A 
ATOM     12  C   UNL     1      -8.634  -3.615   1.112  0.00  0.00    +0.023 A 
ENDBRANCH   5   7
BRANCH   1  13
ATOM     13  S   UNL     1      -5.392  -3.893  -0.076  0.00  0.00    -0.079 S 
BRANCH  13  14
ATOM     14  C   UNL     1      -3.647  -4.389  -0.116  0.00  0.00    +0.173 C 
BRANCH  14  22
ATOM     15  C   UNL     1      -0.023   1.502  -0.294  0.00  0.00    +0.089 C 
ATOM     16  C   UNL     1      -0.002  -0.005  -0.274  0.00  0.00    +0.136 A 
ATOM     17  C   UNL     1      -1.080  -0.808  -0.234  0.00  0.00    +0.091 A 
ATOM     18  C   UNL     1      -0.629  -2.147  -0.228  0.00  0.00    +0.168 A 
ATOM     19  N   UNL     1       0.679  -2.131  -0.263  0.00  0.00    -0.063 NA
ATOM     20  O   UNL     1       1.095  -0.778  -0.298  0.00  0.00    -0.358 OA
ATOM     21  N   UNL     1      -1.435  -3.285  -0.191  0.00  0.00    -0.267 N 
ATOM     22  C   UNL     1      -2.776  -3.160  -0.156  0.00  0.00    +0.229 C 
ATOM     23  O   UNL     1      -3.283  -2.058  -0.157  0.00  0.00    -0.275 OA
ATOM     24  H   UNL     1      -1.030  -4.167  -0.190  0.00  0.00    +0.156 HD
ENDBRANCH  14  22
ENDBRANCH  13  14
ENDBRANCH   1  13
BRANCH   4  25
ATOM     25  C   UNL     1      -8.724  -7.322   1.312  0.00  0.00    +0.097 C 
BRANCH  25  26
ATOM     26  C   UNL     1      -8.945  -8.812   1.362  0.00  0.00    +0.029 A 
ATOM     27  N   UNL     1     -10.018  -9.369   0.722  0.00  0.00    -0.311 N 
ATOM     28  C   UNL     1     -10.225 -10.698   0.760  0.00  0.00    +0.327 A 
ATOM     29  O   UNL     1     -11.185 -11.172   0.184  0.00  0.00    -0.247 OA
ATOM     30  N   UNL     1      -9.384 -11.510   1.427  0.00  0.00    -0.275 N 
ATOM     31  C   UNL     1      -8.315 -10.999   2.071  0.00  0.00    +0.254 A 
ATOM     32  O   UNL     1      -7.553 -11.733   2.675  0.00  0.00    -0.268 OA
ATOM     33  C   UNL     1      -8.083  -9.603   2.035  0.00  0.00    +0.091 A 
ATOM     34  H   UNL     1      -9.548 -12.466   1.444  0.00  0.00    +0.173 HD
ATOM     35  H   UNL     1     -10.636  -8.800   0.235  0.00  0.00    +0.170 HD
ENDBRANCH  25  26
ENDBRANCH   4  25
TORSDOF 6
