REMARK  Name = ZINC06188198
REMARK  5 active torsions:
REMARK  status: ('A' for Active; 'I' for Inactive)
REMARK    1  A    between atoms: C_3  and  O_30
REMARK    2  A    between atoms: C_6  and  C_7
REMARK    3  A    between atoms: C_10  and  C_21
REMARK    4  A    between atoms: C_16  and  N_20
REMARK    5  A    between atoms: C_17  and  C_18
REMARK                            x       y       z     vdW  Elec       q    Type
REMARK                         _______ _______ _______ _____ _____    ______ ____
ROOT
ATOM      1  C   UNL     1      -1.293  -0.774   0.011  0.00  0.00    +0.102 C 
ATOM      2  C   UNL     1      -1.373  -1.648  -1.214  0.00  0.00    +0.054 A 
ATOM      3  C   UNL     1      -1.586  -1.285  -2.547  0.00  0.00    +0.100 A 
ATOM      4  N   UNL     1      -1.576  -2.386  -3.274  0.00  0.00    -0.171 NA
ATOM      5  N   UNL     1      -1.357  -3.478  -2.420  0.00  0.00    -0.246 N 
ATOM      6  H   UNL     1      -1.302  -4.409  -2.687  0.00  0.00    +0.192 HD
ATOM      7  C   UNL     1      -1.236  -3.005  -1.162  0.00  0.00    +0.223 A 
ATOM      8  O   UNL     1      -1.020  -3.675  -0.003  0.00  0.00    -0.423 OA
ATOM      9  C   UNL     1      -1.213  -3.005   1.151  0.00  0.00    +0.200 C 
ATOM     10  C   UNL     1      -1.349  -1.662   1.229  0.00  0.00    +0.098 C 
ENDROOT
BRANCH   3  11
ATOM     11  C   UNL     1      -1.788   0.095  -3.055  0.00  0.00    +0.006 A 
ATOM     12  C   UNL     1      -2.472   1.030  -2.282  0.00  0.00    +0.014 A 
ATOM     13  C   UNL     1      -2.659   2.313  -2.755  0.00  0.00    +0.050 A 
ATOM     14  C   UNL     1      -2.168   2.676  -3.999  0.00  0.00    +0.166 A 
ATOM     15  C   UNL     1      -1.482   1.744  -4.777  0.00  0.00    +0.167 A 
ATOM     16  C   UNL     1      -1.289   0.458  -4.304  0.00  0.00    +0.059 A 
ATOM     17  O   UNL     1      -1.106   2.343  -5.944  0.00  0.00    -0.453 OA
ATOM     18  C   UNL     1      -1.919   3.526  -6.049  0.00  0.00    +0.466 C 
ATOM     19  O   UNL     1      -2.219   3.858  -4.680  0.00  0.00    -0.453 OA
ENDBRANCH   3  11
BRANCH   1  25
ATOM     20  C   UNL     1      -0.017   1.378   0.010  0.00  0.00    +0.008 A 
ATOM     21  C   UNL     1       1.169   2.087   0.002  0.00  0.00    +0.046 A 
ATOM     22  C   UNL     1       2.380   1.409  -0.013  0.00  0.00    +0.117 A 
ATOM     23  C   UNL     1       2.396   0.022  -0.021  0.00  0.00    +0.046 A 
ATOM     24  C   UNL     1       1.207  -0.681  -0.013  0.00  0.00    +0.008 A 
ATOM     25  C   UNL     1       0.002  -0.004   0.002  0.00  0.00    -0.034 A 
BRANCH  22  26
ATOM     26  O   UNL     1       3.548   2.104  -0.021  0.00  0.00    -0.507 OA
ATOM     27  H   UNL     1       3.895   2.300   0.860  0.00  0.00    +0.292 HD
ENDBRANCH  22  26
ENDBRANCH   1  25
BRANCH   9  28
ATOM     28  N   UNL     1      -1.275  -3.729   2.316  0.00  0.00    -0.328 N 
ATOM     29  H   UNL     1      -1.180  -4.694   2.293  0.00  0.00    +0.145 HD
ATOM     30  H   UNL     1      -1.413  -3.275   3.163  0.00  0.00    +0.145 HD
ENDBRANCH   9  28
BRANCH  10  31
ATOM     31  C   UNL     1      -1.555  -1.061   2.512  0.00  0.00    +0.101 C 
ATOM     32  N   UNL     1      -1.718  -0.584   3.530  0.00  0.00    -0.191 NA
ENDBRANCH  10  31
TORSDOF 5
