REMARK  Name = ZINC05608113
REMARK  7 active torsions:
REMARK  status: ('A' for Active; 'I' for Inactive)
REMARK    1  A    between atoms: C_1  and  C_2
REMARK    2  A    between atoms: N_7  and  C_10
REMARK    3  A    between atoms: C_10  and  C_11
REMARK    4  A    between atoms: C_11  and  O_13
REMARK    5  A    between atoms: O_13  and  C_14
REMARK    6  A    between atoms: C_19  and  C_22
REMARK    7  A    between atoms: C_24  and  C_25
REMARK                            x       y       z     vdW  Elec       q    Type
REMARK                         _______ _______ _______ _____ _____    ______ ____
ROOT
ATOM      1  C   UNL     1      -0.355   4.363   0.028  0.00  0.00    +0.046 C 
ATOM      2  C   UNL     1      -1.518   3.405   0.028  0.00  0.00    -0.017 A 
ATOM      3  C   UNL     1      -2.827   3.893   0.037  0.00  0.00    +0.076 A 
ATOM      4  C   UNL     1      -3.849   2.916   0.036  0.00  0.00    +0.116 A 
ATOM      5  N   UNL     1      -5.134   3.247   0.044  0.00  0.00    -0.230 NA
ATOM      6  C   UNL     1      -5.519   4.494   0.052  0.00  0.00    +0.203 A 
ATOM      7  N   UNL     1      -4.632   5.519   0.053  0.00  0.00    -0.288 N 
ATOM      8  C   UNL     1      -3.303   5.295   0.046  0.00  0.00    +0.263 A 
ATOM      9  O   UNL     1      -2.514   6.223   0.047  0.00  0.00    -0.267 OA
ATOM     10  S   UNL     1      -2.949   1.386   0.016  0.00  0.00    -0.064 S 
ATOM     11  C   UNL     1      -1.296   2.059   0.019  0.00  0.00    +0.079 A 
ENDROOT
BRANCH  11  12
ATOM     12  C   UNL     1      -0.016   1.344   0.009  0.00  0.00    +0.248 C 
ATOM     13  O   UNL     1       1.029   1.966   0.003  0.00  0.00    -0.270 OA
ATOM     14  N   UNL     1       0.002  -0.004   0.002  0.00  0.00    -0.325 N 
ATOM     15  H   UNL     1       0.849  -0.478  -0.009  0.00  0.00    +0.145 HD
ATOM     16  H   UNL     1      -0.831  -0.500   0.007  0.00  0.00    +0.145 HD
ENDBRANCH  11  12
BRANCH   7  17
ATOM     17  C   UNL     1      -5.128   6.897   0.062  0.00  0.00    +0.246 C 
BRANCH  17  18
ATOM     18  C   UNL     1      -5.304   7.377  -1.356  0.00  0.00    +0.327 C 
ATOM     19  O   UNL     1      -5.043   6.642  -2.279  0.00  0.00    -0.249 OA
BRANCH  18  20
ATOM     20  O   UNL     1      -5.752   8.620  -1.593  0.00  0.00    -0.460 OA
BRANCH  20  21
ATOM     21  C   UNL     1      -5.898   9.014  -2.983  0.00  0.00    +0.177 C 
ATOM     22  C   UNL     1      -7.306   8.664  -3.467  0.00  0.00    +0.044 C 
ATOM     23  C   UNL     1      -7.460   9.079  -4.932  0.00  0.00    +0.004 C 
ATOM     24  C   UNL     1      -7.236  10.587  -5.060  0.00  0.00    +0.003 C 
ATOM     25  C   UNL     1      -5.827  10.937  -4.576  0.00  0.00    -0.011 C 
ATOM     26  C   UNL     1      -5.674  10.522  -3.111  0.00  0.00    +0.048 C 
ATOM     27  C   UNL     1      -5.604  12.445  -4.705  0.00  0.00    +0.007 C 
ENDBRANCH  20  21
ENDBRANCH  18  20
ENDBRANCH  17  18
ENDBRANCH   7  17
TORSDOF 5
