REMARK  Name = ZINC38742633
REMARK  7 active torsions:
REMARK  status: ('A' for Active; 'I' for Inactive)
REMARK    1  A    between atoms: C_1  and  C_2
REMARK    2  A    between atoms: C_2  and  C_3
REMARK    3  A    between atoms: C_2  and  C_4
REMARK    4  A    between atoms: C_6  and  C_10
REMARK    5  A    between atoms: C_18  and  C_20
REMARK    6  A    between atoms: C_20  and  O_21
REMARK    7  A    between atoms: O_21  and  C_22
REMARK                            x       y       z     vdW  Elec       q    Type
REMARK                         _______ _______ _______ _____ _____    ______ ____
ROOT
ATOM      1  C   UNL     1      -3.607  -3.034  -0.220  0.00  0.00    +0.206 C 
ATOM      2  N   UNL     1      -3.340  -3.804  -1.458  0.00  0.00    -0.231 NA
ATOM      3  N   UNL     1      -4.631  -4.371  -1.886  0.00  0.00    -0.224 NA
ATOM      4  C   UNL     1      -5.613  -3.453  -1.276  0.00  0.00    +0.240 C 
ATOM      5  N   UNL     1      -5.033  -3.275   0.098  0.00  0.00    -0.206 N 
ATOM      6  N   UNL     1      -5.942  -3.473   1.114  0.00  0.00    -0.175 NA
ATOM      7  C   UNL     1      -7.096  -4.027   0.935  0.00  0.00    +0.132 C 
ATOM      8  S   UNL     1      -7.176  -4.311  -0.862  0.00  0.00    -0.064 S 
ATOM      9  H   UNL     1      -2.951  -3.212  -2.176  0.00  0.00    +0.143 HD
ATOM     10  H   UNL     1      -4.711  -4.370  -2.892  0.00  0.00    +0.144 HD
ENDROOT
BRANCH   1  13
ATOM     11  C   UNL     1      -1.412  -0.526   0.013  0.00  0.00    +0.064 C 
ATOM     12  C   UNL     1      -1.940  -1.303  -0.935  0.00  0.00    +0.030 C 
ATOM     13  C   UNL     1      -3.362  -1.543  -0.460  0.00  0.00    +0.190 C 
ATOM     14  N   UNL     1      -3.420  -0.792   0.805  0.00  0.00    -0.177 NA
ATOM     15  N   UNL     1      -2.315  -0.275   0.986  0.00  0.00    -0.158 NA
BRANCH  11  17
ATOM     16  C   UNL     1      -0.019   1.526   0.010  0.00  0.00    +0.014 C 
ATOM     17  C   UNL     1       0.002  -0.004   0.002  0.00  0.00    +0.033 C 
ATOM     18  C   UNL     1       0.742  -0.511   1.242  0.00  0.00    +0.014 C 
ENDBRANCH  11  17
ENDBRANCH   1  13
BRANCH   7  19
ATOM     19  C   UNL     1      -8.140  -4.353   1.972  0.00  0.00    +0.293 C 
BRANCH  19  20
ATOM     20  O   UNL     1      -7.674  -3.950   3.261  0.00  0.00    -0.484 OA
BRANCH  20  21
ATOM     21  C   UNL     1      -8.502  -4.174   4.315  0.00  0.00    +0.139 A 
ATOM     22  C   UNL     1      -9.736  -4.775   4.113  0.00  0.00    +0.047 A 
ATOM     23  C   UNL     1     -10.576  -5.003   5.186  0.00  0.00    +0.004 A 
ATOM     24  C   UNL     1     -10.188  -4.631   6.461  0.00  0.00    +0.002 A 
ATOM     25  C   UNL     1      -8.960  -4.032   6.665  0.00  0.00    +0.023 A 
ATOM     26  C   UNL     1      -8.113  -3.807   5.596  0.00  0.00    +0.083 A 
ATOM     27 CL   UNL     1      -6.567  -3.060   5.854  0.00  0.00    -0.080 Cl
ENDBRANCH  20  21
ENDBRANCH  19  20
ENDBRANCH   7  19
TORSDOF 5
