REMARK  Name = ZINC15799356
REMARK  11 active torsions:
REMARK  status: ('A' for Active; 'I' for Inactive)
REMARK    1  A    between atoms: C_1  and  C_2
REMARK    2  A    between atoms: C_2  and  O_3
REMARK    3  A    between atoms: O_3  and  C_4
REMARK    4  A    between atoms: C_6  and  C_16
REMARK    5  A    between atoms: C_9  and  O_10
REMARK    6  A    between atoms: O_10  and  C_11
REMARK    7  A    between atoms: C_11  and  C_12
REMARK    8  A    between atoms: C_17  and  C_18
REMARK    9  A    between atoms: C_17  and  C_20
REMARK   10  A    between atoms: N_22  and  C_23
REMARK   11  A    between atoms: C_29  and  C_31
REMARK                            x       y       z     vdW  Elec       q    Type
REMARK                         _______ _______ _______ _____ _____    ______ ____
ROOT
ATOM      1  C   UNL     1      -0.280   3.902   2.442  0.00  0.00    +0.164 A 
ATOM      2  C   UNL     1      -0.403   5.262   2.640  0.00  0.00    +0.057 A 
ATOM      3  C   UNL     1      -0.987   6.061   1.647  0.00  0.00    -0.019 A 
ATOM      4  C   UNL     1      -1.439   5.474   0.457  0.00  0.00    +0.027 A 
ATOM      5  C   UNL     1      -1.306   4.116   0.267  0.00  0.00    +0.064 A 
ATOM      6  C   UNL     1      -0.726   3.326   1.253  0.00  0.00    +0.177 A 
ATOM      7 BR   UNL     1      -1.915   3.325  -1.339  0.00  0.00    -0.046 Br
ENDROOT
BRANCH   3   8
ATOM      8  C   UNL     1      -1.127   7.505   1.853  0.00  0.00    +0.032 C 
ATOM      9  C   UNL     1      -2.166   8.188   1.260  0.00  0.00    +0.114 C 
BRANCH   9  10
ATOM     10  C   UNL     1      -2.223   9.656   1.341  0.00  0.00    +0.255 C 
ATOM     11  O   UNL     1      -1.352  10.266   1.933  0.00  0.00    -0.269 OA
ATOM     12  N   UNL     1      -3.239  10.324   0.761  0.00  0.00    -0.308 N 
ATOM     13  H   UNL     1      -3.933   9.837   0.290  0.00  0.00    +0.149 HD
BRANCH  12  14
ATOM     14  C   UNL     1      -3.296  11.786   0.843  0.00  0.00    +0.076 C 
ATOM     15  C   UNL     1      -3.967  12.198   2.155  0.00  0.00    +0.022 C 
ATOM     16  C   UNL     1      -4.026  13.724   2.240  0.00  0.00    +0.002 C 
ATOM     17  C   UNL     1      -4.834  14.270   1.060  0.00  0.00    +0.000 C 
ATOM     18  C   UNL     1      -4.162  13.858  -0.252  0.00  0.00    +0.005 C 
ATOM     19  C   UNL     1      -4.103  12.331  -0.337  0.00  0.00    +0.006 C 
ATOM     20  C   UNL     1      -3.432  11.919  -1.648  0.00  0.00    +0.009 C 
ENDBRANCH  12  14
ENDBRANCH   9  10
BRANCH   9  21
ATOM     21  C   UNL     1      -3.191   7.469   0.564  0.00  0.00    +0.104 C 
ATOM     22  N   UNL     1      -4.003   6.899   0.012  0.00  0.00    -0.191 NA
ENDBRANCH   9  21
ENDBRANCH   3   8
BRANCH   1  23
ATOM     23  O   UNL     1       0.282   3.123   3.406  0.00  0.00    -0.489 OA
BRANCH  23  25
ATOM     24  C   UNL     1       1.317   2.749   5.557  0.00  0.00    +0.048 C 
ATOM     25  C   UNL     1       0.717   3.780   4.598  0.00  0.00    +0.226 C 
ENDBRANCH  23  25
ENDBRANCH   1  23
BRANCH   6  26
ATOM     26  O   UNL     1      -0.598   1.988   1.060  0.00  0.00    -0.478 OA
BRANCH  26  27
ATOM     27  C   UNL     1       0.608   1.534   0.442  0.00  0.00    +0.324 C 
BRANCH  27  28
ATOM     28  C   UNL     1       0.571   0.033   0.310  0.00  0.00    +0.248 C 
ATOM     29  O   UNL     1      -0.393  -0.587   0.707  0.00  0.00    -0.272 OA
ATOM     30  N   UNL     1       1.609  -0.620  -0.248  0.00  0.00    -0.327 N 
ATOM     31  H   UNL     1       2.380  -0.124  -0.565  0.00  0.00    +0.145 HD
ATOM     32  H   UNL     1       1.586  -1.586  -0.332  0.00  0.00    +0.145 HD
ENDBRANCH  27  28
ENDBRANCH  26  27
ENDBRANCH   6  26
TORSDOF 9
