REMARK  Name = ZINC12446272
REMARK  7 active torsions:
REMARK  status: ('A' for Active; 'I' for Inactive)
REMARK    1  A    between atoms: C_3  and  C_9
REMARK    2  A    between atoms: C_9  and  N_10
REMARK    3  A    between atoms: C_14  and  C_17
REMARK    4  A    between atoms: C_14  and  O_28
REMARK    5  A    between atoms: C_17  and  N_51
REMARK    6  A    between atoms: C_18  and  C_19
REMARK    7  A    between atoms: C_18  and  N_51
REMARK                            x       y       z     vdW  Elec       q    Type
REMARK                         _______ _______ _______ _____ _____    ______ ____
ROOT
ATOM      1  N   UNL     1      -5.178   8.265  -3.383  0.00  0.00    -0.295 N 
ATOM      2  C   UNL     1      -6.437   8.936  -3.082  0.00  0.00    +0.108 C 
ATOM      3  C   UNL     1      -6.935   8.541  -1.691  0.00  0.00    +0.022 C 
ATOM      4  C   UNL     1      -6.926   7.012  -1.582  0.00  0.00    +0.044 C 
ATOM      5  C   UNL     1      -5.471   6.534  -1.605  0.00  0.00    +0.127 C 
ATOM      6  C   UNL     1      -4.740   7.178  -2.747  0.00  0.00    +0.246 C 
ATOM      7  O   UNL     1      -3.694   6.683  -3.111  0.00  0.00    -0.273 OA
ENDROOT
BRANCH   5   8
ATOM      8  O   UNL     1      -4.838   6.889  -0.374  0.00  0.00    -0.381 OA
ATOM      9  H   UNL     1      -3.912   6.615  -0.315  0.00  0.00    +0.211 HD
ENDBRANCH   5   8
BRANCH   1  10
ATOM     10  C   UNL     1      -4.342   8.821  -4.449  0.00  0.00    +0.146 C 
BRANCH  10  13
ATOM     11  C   UNL     1      -5.804   8.326  -7.895  0.00  0.00    +0.003 A 
ATOM     12  C   UNL     1      -5.457   8.905  -6.688  0.00  0.00    +0.008 A 
ATOM     13  C   UNL     1      -4.719   8.189  -5.764  0.00  0.00    +0.008 A 
ATOM     14  C   UNL     1      -4.321   6.894  -6.049  0.00  0.00    +0.163 A 
ATOM     15  C   UNL     1      -4.673   6.313  -7.258  0.00  0.00    +0.159 A 
ATOM     16  C   UNL     1      -5.413   7.032  -8.181  0.00  0.00    +0.041 A 
ATOM     17  F   UNL     1      -4.290   5.048  -7.536  0.00  0.00    -0.202 F 
ATOM     18  F   UNL     1      -3.595   6.197  -5.149  0.00  0.00    -0.202 F 
ENDBRANCH  10  13
ENDBRANCH   1  10
BRANCH   5  19
ATOM     19  C   UNL     1      -5.439   5.014  -1.773  0.00  0.00    -0.037 C 
BRANCH  19  20
ATOM     20  N   UNL     1      -6.192   4.389  -0.670  0.00  0.00    +0.385 N 
ATOM     21  H   UNL     1      -7.138   4.787  -0.637  0.00  0.00    -0.085 HD
ATOM     22  H   UNL     1      -5.712   4.577   0.218  0.00  0.00    -0.085 HD
BRANCH  20  23
ATOM     23  C   UNL     1      -6.285   2.931  -0.874  0.00  0.00    -0.024 C 
BRANCH  23  24
ATOM     24  C   UNL     1      -7.059   2.321   0.266  0.00  0.00    +0.049 A 
ATOM     25  C   UNL     1      -8.447   2.130   0.308  0.00  0.00    -0.006 A 
ATOM     26  C   UNL     1      -8.751   1.557   1.494  0.00  0.00    +0.039 A 
ATOM     27  N   UNL     1      -7.597   1.390   2.179  0.00  0.00    -0.281 N 
ATOM     28  H   UNL     1      -7.507   0.989   3.091  0.00  0.00    +0.189 HD
ATOM     29  N   UNL     1      -6.551   1.877   1.387  0.00  0.00    -0.180 NA
ATOM     30  C   UNL     1     -10.243   1.327   1.598  0.00  0.00    +0.055 C 
ATOM     31  C   UNL     1     -10.866   2.224   0.506  0.00  0.00    +0.011 C 
ATOM     32  C   UNL     1      -9.703   2.344  -0.508  0.00  0.00    +0.039 C 
ENDBRANCH  23  24
ENDBRANCH  20  23
ENDBRANCH  19  20
ENDBRANCH   5  19
TORSDOF 7
