REMARK  Name = ZINC39934123
REMARK  6 active torsions:
REMARK  status: ('A' for Active; 'I' for Inactive)
REMARK    1  A    between atoms: C_1  and  C_2
REMARK    2  A    between atoms: C_2  and  C_23
REMARK    3  A    between atoms: C_6  and  C_21
REMARK    4  A    between atoms: C_17  and  C_19
REMARK    5  A    between atoms: C_17  and  C_20
REMARK    6  A    between atoms: C_21  and  N_22
REMARK                            x       y       z     vdW  Elec       q    Type
REMARK                         _______ _______ _______ _____ _____    ______ ____
ROOT
ATOM      1  C   UNL     1      -0.168   1.515  -0.069  0.00  0.00    +0.074 C 
ATOM      2  C   UNL     1       0.002  -0.004   0.002  0.00  0.00    +0.166 C 
ATOM      3  O   UNL     1      -1.286  -0.629   0.110  0.00  0.00    -0.341 OA
ATOM      4  C   UNL     1      -1.288  -1.369   1.339  0.00  0.00    +0.180 C 
ATOM      5  C   UNL     1      -2.084  -2.650   1.234  0.00  0.00    +0.135 C 
ATOM      6  O   UNL     1      -1.440  -3.657   0.440  0.00  0.00    -0.345 OA
ATOM      7  C   UNL     1      -0.150  -3.949   0.950  0.00  0.00    +0.285 C 
ATOM      8  C   UNL     1       0.710  -2.682   0.692  0.00  0.00    +0.209 C 
ATOM      9  C   UNL     1       0.216  -1.607   1.621  0.00  0.00    +0.186 C 
ATOM     10  O   UNL     1       0.782  -0.350   1.160  0.00  0.00    -0.341 OA
ATOM     11  O   UNL     1       2.029  -3.170   0.912  0.00  0.00    -0.338 OA
ATOM     12  C   UNL     1       1.987  -4.576   0.580  0.00  0.00    +0.168 C 
ATOM     13  O   UNL     1       0.611  -4.948   0.269  0.00  0.00    -0.318 OA
ATOM     14  C   UNL     1       2.891  -4.847  -0.625  0.00  0.00    +0.074 C 
ATOM     15  C   UNL     1       2.464  -5.403   1.775  0.00  0.00    +0.074 C 
ATOM     16  C   UNL     1       0.708  -0.502  -1.261  0.00  0.00    +0.074 C 
ENDROOT
BRANCH   5  17
ATOM     17  C   UNL     1      -3.445  -2.333   0.610  0.00  0.00    -0.052 C 
BRANCH  17  18
ATOM     18  N   UNL     1      -4.277  -3.543   0.609  0.00  0.00    +0.380 N 
ATOM     19  H   UNL     1      -3.821  -4.265   0.072  0.00  0.00    -0.090 HD
ATOM     20  H   UNL     1      -4.409  -3.861   1.558  0.00  0.00    -0.090 HD
ATOM     21  H   UNL     1      -5.175  -3.334   0.197  0.00  0.00    -0.090 HD
ENDBRANCH  17  18
ENDBRANCH   5  17
TORSDOF 2
