REMARK  Name = ZINC04499604
REMARK  19 active torsions:
REMARK  status: ('A' for Active; 'I' for Inactive)
REMARK    1  A    between atoms: C_1  and  C_2
REMARK    2  A    between atoms: C_2  and  C_3
REMARK    3  A    between atoms: C_2  and  C_4
REMARK    4  A    between atoms: C_4  and  C_5
REMARK    5  A    between atoms: C_5  and  C_7
REMARK    6  A    between atoms: C_5  and  N_14
REMARK    7  A    between atoms: N_9  and  N_10
REMARK    8  A    between atoms: C_11  and  C_13
REMARK    9  A    between atoms: C_15  and  C_17
REMARK   10  A    between atoms: C_17  and  C_19
REMARK   11  A    between atoms: C_17  and  N_23
REMARK   12  A    between atoms: C_19  and  C_20
REMARK   13  A    between atoms: C_20  and  C_21
REMARK   14  A    between atoms: C_20  and  C_22
REMARK   15  A    between atoms: C_24  and  O_26
REMARK   16  A    between atoms: O_26  and  C_27
REMARK   17  A    between atoms: C_27  and  C_28
REMARK   18  A    between atoms: C_27  and  C_29
REMARK   19  A    between atoms: C_27  and  C_30
REMARK                            x       y       z     vdW  Elec       q    Type
REMARK                         _______ _______ _______ _____ _____    ______ ____
ROOT
ATOM      1  N   UNL     1      -0.141  -1.098   0.816  0.00  0.00    -0.302 N 
ATOM      2  C   UNL     1      -1.145  -0.428   0.216  0.00  0.00    +0.234 C 
ATOM      3  O   UNL     1      -1.588  -0.820  -0.842  0.00  0.00    -0.274 OA
ATOM      4  H   UNL     1       0.262  -0.746   1.626  0.00  0.00    +0.150 HD
ENDROOT
BRANCH   1   5
ATOM      5  C   UNL     1       0.343  -2.358   0.246  0.00  0.00    +0.161 C 
BRANCH   5   6
ATOM      6  C   UNL     1       0.904  -3.224   1.344  0.00  0.00    +0.249 C 
ATOM      7  O   UNL     1       1.268  -2.722   2.386  0.00  0.00    -0.272 OA
ATOM      8  N   UNL     1       1.003  -4.556   1.168  0.00  0.00    -0.233 N 
ATOM      9  H   UNL     1       0.782  -4.949   0.309  0.00  0.00    +0.173 HD
BRANCH   8  10
ATOM     10  N   UNL     1       1.424  -5.374   2.225  0.00  0.00    -0.235 N 
ATOM     11  C   UNL     1       1.522  -6.706   2.048  0.00  0.00    +0.226 C 
ATOM     12  O   UNL     1       1.246  -7.198   0.975  0.00  0.00    -0.275 OA
ATOM     13  C   UNL     1       1.975  -7.585   3.185  0.00  0.00    +0.110 C 
ATOM     14  H   UNL     1       1.645  -4.981   3.083  0.00  0.00    +0.173 HD
ENDBRANCH   8  10
ENDBRANCH   5   6
BRANCH   5  15
ATOM     15  C   UNL     1       1.438  -2.065  -0.782  0.00  0.00    +0.034 C 
BRANCH  15  17
ATOM     16  C   UNL     1       0.756  -3.973  -2.244  0.00  0.00    +0.007 C 
ATOM     17  C   UNL     1       1.900  -3.375  -1.423  0.00  0.00    -0.015 C 
ATOM     18  C   UNL     1       3.096  -3.102  -2.337  0.00  0.00    +0.007 C 
ENDBRANCH  15  17
ENDBRANCH   5  15
ENDBRANCH   1   5
BRANCH   2  19
ATOM     19  C   UNL     1      -1.717   0.808   0.861  0.00  0.00    +0.162 C 
BRANCH  19  20
ATOM     20  N   UNL     1      -2.373   1.631  -0.158  0.00  0.00    -0.270 N 
ATOM     21  C   UNL     1      -2.456   2.966   0.005  0.00  0.00    +0.401 C 
ATOM     22  O   UNL     1      -1.907   3.498   0.950  0.00  0.00    -0.226 OA
ATOM     23  H   UNL     1      -2.748   1.215  -0.949  0.00  0.00    +0.153 HD
BRANCH  21  24
ATOM     24  O   UNL     1      -3.146   3.711  -0.879  0.00  0.00    -0.445 OA
BRANCH  24  25
ATOM     25  C   UNL     1      -3.193   5.142  -0.641  0.00  0.00    +0.107 C 
ATOM     26  C   UNL     1      -1.771   5.707  -0.649  0.00  0.00    +0.055 C 
ATOM     27  C   UNL     1      -4.016   5.816  -1.741  0.00  0.00    +0.055 C 
ATOM     28  C   UNL     1      -3.841   5.412   0.719  0.00  0.00    +0.055 C 
ENDBRANCH  24  25
ENDBRANCH  21  24
ENDBRANCH  19  20
BRANCH  19  29
ATOM     29  C   UNL     1      -2.739   0.402   1.925  0.00  0.00    +0.035 C 
BRANCH  29  30
ATOM     30  C   UNL     1      -2.025  -0.325   3.067  0.00  0.00    -0.015 C 
ATOM     31  C   UNL     1      -1.080   0.647   3.777  0.00  0.00    +0.007 C 
ATOM     32  C   UNL     1      -3.060  -0.849   4.064  0.00  0.00    +0.007 C 
ENDBRANCH  29  30
ENDBRANCH  19  29
ENDBRANCH   2  19
TORSDOF 11
