REMARK  Name = ZINC40234514
REMARK  8 active torsions:
REMARK  status: ('A' for Active; 'I' for Inactive)
REMARK    1  A    between atoms: C_1  and  C_2
REMARK    2  A    between atoms: C_2  and  N_3
REMARK    3  A    between atoms: N_3  and  C_4
REMARK    4  A    between atoms: N_3  and  S_11
REMARK    5  A    between atoms: C_8  and  C_10
REMARK    6  A    between atoms: S_11  and  C_14
REMARK    7  A    between atoms: C_17  and  C_21
REMARK    8  A    between atoms: C_19  and  N_20
REMARK                            x       y       z     vdW  Elec       q    Type
REMARK                         _______ _______ _______ _____ _____    ______ ____
ROOT
ATOM      1  S   UNL     1      -1.552  -1.074   1.518  0.00  0.00    +0.076 S 
ATOM      2  O   UNL     1      -1.739  -0.194   2.617  0.00  0.00    -0.150 OA
ATOM      3  O   UNL     1      -2.513  -2.056   1.157  0.00  0.00    -0.150 OA
ENDROOT
BRANCH   1   4
ATOM      4  C   UNL     1      -0.040  -1.931   1.809  0.00  0.00    +0.129 A 
ATOM      5  C   UNL     1       0.707  -1.650   2.936  0.00  0.00    +0.031 A 
ATOM      6  C   UNL     1       1.894  -2.322   3.166  0.00  0.00    +0.005 A 
ATOM      7  C   UNL     1       2.336  -3.277   2.268  0.00  0.00    -0.049 A 
ATOM      8  C   UNL     1       1.593  -3.562   1.140  0.00  0.00    +0.028 A 
ATOM      9  C   UNL     1       0.398  -2.893   0.909  0.00  0.00    +0.052 A 
ATOM     10  C   UNL     1       3.630  -4.006   2.522  0.00  0.00    +0.044 C 
BRANCH   9  11
ATOM     11  N   UNL     1      -0.358  -3.183  -0.229  0.00  0.00    -0.356 N 
ATOM     12  H   UNL     1      -1.155  -2.666  -0.427  0.00  0.00    +0.142 HD
ATOM     13  H   UNL     1      -0.087  -3.902  -0.821  0.00  0.00    +0.142 HD
ENDBRANCH   9  11
ENDBRANCH   1   4
BRANCH   1  14
ATOM     14  N   UNL     1      -1.325  -0.121   0.182  0.00  0.00    -0.203 N 
BRANCH  14  15
ATOM     15  C   UNL     1      -1.737  -0.570  -1.075  0.00  0.00    +0.051 A 
ATOM     16  C   UNL     1      -3.072  -0.884  -1.298  0.00  0.00    +0.025 A 
ATOM     17  C   UNL     1      -3.476  -1.328  -2.542  0.00  0.00    +0.002 A 
ATOM     18  C   UNL     1      -2.554  -1.459  -3.564  0.00  0.00    +0.003 A 
ATOM     19  C   UNL     1      -1.225  -1.147  -3.345  0.00  0.00    -0.049 A 
ATOM     20  C   UNL     1      -0.815  -0.698  -2.105  0.00  0.00    +0.028 A 
ATOM     21  C   UNL     1      -0.223  -1.293  -4.462  0.00  0.00    +0.044 C 
ENDBRANCH  14  15
BRANCH  14  23
ATOM     22  C   UNL     1      -1.752   2.287   0.177  0.00  0.00    +0.026 C 
ATOM     23  C   UNL     1      -0.692   1.193   0.319  0.00  0.00    +0.128 C 
ENDBRANCH  14  23
ENDBRANCH   1  14
TORSDOF 5
