REMARK  Name = ZINC39916003
REMARK  11 active torsions:
REMARK  status: ('A' for Active; 'I' for Inactive)
REMARK    1  A    between atoms: C_6  and  O_11
REMARK    2  A    between atoms: O_11  and  C_12
REMARK    3  A    between atoms: C_12  and  C_13
REMARK    4  A    between atoms: C_13  and  N_14
REMARK    5  A    between atoms: C_22  and  S_23
REMARK    6  A    between atoms: S_23  and  C_24
REMARK    7  A    between atoms: C_26  and  O_39
REMARK    8  A    between atoms: C_28  and  O_38
REMARK    9  A    between atoms: C_30  and  O_37
REMARK   10  A    between atoms: C_32  and  C_35
REMARK   11  A    between atoms: C_35  and  O_36
REMARK                            x       y       z     vdW  Elec       q    Type
REMARK                         _______ _______ _______ _____ _____    ______ ____
ROOT
ATOM      1  N   UNL     1       6.424  -6.264   0.116  0.00  0.00    -0.315 N 
ATOM      2  C   UNL     1       6.427  -7.141   1.188  0.00  0.00    +0.070 A 
ATOM      3  C   UNL     1       6.491  -6.978   2.563  0.00  0.00    +0.028 A 
ATOM      4  C   UNL     1       6.474  -8.084   3.388  0.00  0.00    +0.002 A 
ATOM      5  C   UNL     1       6.393  -9.360   2.851  0.00  0.00    +0.002 A 
ATOM      6  C   UNL     1       6.329  -9.541   1.487  0.00  0.00    +0.030 A 
ATOM      7  C   UNL     1       6.345  -8.431   0.638  0.00  0.00    +0.090 A 
ATOM      8  N   UNL     1       6.296  -8.289  -0.712  0.00  0.00    -0.222 NA
ATOM      9  C   UNL     1       6.337  -7.016  -1.022  0.00  0.00    +0.172 A 
ENDROOT
BRANCH   1  10
ATOM     10  C   UNL     1       6.495  -4.803   0.188  0.00  0.00    +0.165 C 
BRANCH  10  11
ATOM     11  C   UNL     1       5.080  -4.228   0.280  0.00  0.00    +0.250 C 
BRANCH  11  12
ATOM     12  O   UNL     1       5.149  -2.802   0.350  0.00  0.00    -0.490 OA
BRANCH  12  18
ATOM     13  C   UNL     1       0.330   1.257   0.771  0.00  0.00    +0.001 A 
ATOM     14  C   UNL     1       1.526   1.972   0.756  0.00  0.00    +0.001 A 
ATOM     15  C   UNL     1       2.724   1.331   0.670  0.00  0.00    +0.008 A 
ATOM     16  C   UNL     1       2.758  -0.072   0.596  0.00  0.00    -0.014 A 
ATOM     17  C   UNL     1       3.976  -0.767   0.507  0.00  0.00    +0.054 A 
ATOM     18  C   UNL     1       3.971  -2.131   0.436  0.00  0.00    +0.121 A 
ATOM     19  C   UNL     1       2.769  -2.846   0.451  0.00  0.00    +0.046 A 
ATOM     20  C   UNL     1       1.574  -2.202   0.536  0.00  0.00    +0.012 A 
ATOM     21  C   UNL     1       1.541  -0.799   0.611  0.00  0.00    -0.018 A 
ATOM     22  C   UNL     1       0.324  -0.102   0.700  0.00  0.00    +0.008 A 
ENDBRANCH  12  18
ENDBRANCH  11  12
ENDBRANCH  10  11
ENDBRANCH   1  10
BRANCH   9  23
ATOM     23  S   UNL     1       6.291  -6.371  -2.661  0.00  0.00    -0.054 S 
BRANCH  23  24
ATOM     24  C   UNL     1       6.174  -7.846  -3.710  0.00  0.00    +0.214 C 
ATOM     25  C   UNL     1       6.000  -7.421  -5.170  0.00  0.00    +0.185 C 
ATOM     26  C   UNL     1       5.963  -8.671  -6.056  0.00  0.00    +0.177 C 
ATOM     27  C   UNL     1       7.245  -9.479  -5.834  0.00  0.00    +0.176 C 
ATOM     28  C   UNL     1       7.371  -9.824  -4.348  0.00  0.00    +0.176 C 
ATOM     29  O   UNL     1       7.368  -8.620  -3.579  0.00  0.00    -0.355 OA
BRANCH  27  30
ATOM     30  O   UNL     1       7.190 -10.683  -6.602  0.00  0.00    -0.386 OA
ATOM     31  H   UNL     1       7.106 -10.538  -7.555  0.00  0.00    +0.210 HD
ENDBRANCH  27  30
BRANCH  26  32
ATOM     32  O   UNL     1       4.828  -9.467  -5.712  0.00  0.00    -0.386 OA
ATOM     33  H   UNL     1       3.981  -9.014  -5.823  0.00  0.00    +0.210 HD
ENDBRANCH  26  32
BRANCH  25  34
ATOM     34  O   UNL     1       7.096  -6.591  -5.560  0.00  0.00    -0.386 OA
ATOM     35  H   UNL     1       7.182  -5.782  -5.036  0.00  0.00    +0.210 HD
ENDBRANCH  25  34
BRANCH  28  36
ATOM     36  C   UNL     1       6.190 -10.701  -3.927  0.00  0.00    +0.190 C 
BRANCH  36  37
ATOM     37  O   UNL     1       6.385 -11.149  -2.584  0.00  0.00    -0.392 OA
ATOM     38  H   UNL     1       5.673 -11.712  -2.249  0.00  0.00    +0.210 HD
ENDBRANCH  36  37
ENDBRANCH  28  36
ENDBRANCH  23  24
ENDBRANCH   9  23
TORSDOF 11
