REMARK  Name = ZINC21105669
REMARK  8 active torsions:
REMARK  status: ('A' for Active; 'I' for Inactive)
REMARK    1  A    between atoms: C_1  and  N_2
REMARK    2  A    between atoms: N_2  and  C_3
REMARK    3  A    between atoms: C_3  and  C_4
REMARK    4  A    between atoms: N_6  and  C_7
REMARK    5  A    between atoms: C_14  and  C_16
REMARK    6  A    between atoms: C_16  and  S_17
REMARK    7  A    between atoms: S_17  and  C_18
REMARK    8  A    between atoms: C_22  and  N_24
REMARK                            x       y       z     vdW  Elec       q    Type
REMARK                         _______ _______ _______ _____ _____    ______ ____
ROOT
ATOM      1  C   UNL     1       0.010  -0.726  -1.296  0.00  0.00    +0.132 C 
ATOM      2  N   UNL     1       0.003  -0.004  -0.021  0.00  0.00    -0.295 N 
ATOM      3  C   UNL     1       0.016  -0.689   1.141  0.00  0.00    +0.226 C 
ATOM      4  O   UNL     1       0.010  -0.091   2.196  0.00  0.00    -0.275 OA
ENDROOT
BRANCH   2   5
ATOM      5  C   UNL     1      -0.017   1.460  -0.008  0.00  0.00    +0.203 C 
BRANCH   5   6
ATOM      6  C   UNL     1       1.397   1.982  -0.007  0.00  0.00    +0.235 C 
ATOM      7  O   UNL     1       2.329   1.207  -0.016  0.00  0.00    -0.274 OA
ATOM      8  N   UNL     1       1.624   3.311   0.004  0.00  0.00    -0.283 N 
ATOM      9  H   UNL     1       0.781   4.014  -0.062  0.00  0.00    +0.155 HD
BRANCH   8  10
ATOM     10  C   UNL     1       2.934   3.795   0.100  0.00  0.00    +0.047 A 
ATOM     11  C   UNL     1       3.977   3.106  -0.505  0.00  0.00    +0.024 A 
ATOM     12  C   UNL     1       5.267   3.589  -0.412  0.00  0.00    +0.002 A 
ATOM     13  C   UNL     1       5.523   4.753   0.290  0.00  0.00    +0.001 A 
ATOM     14  C   UNL     1       4.488   5.439   0.898  0.00  0.00    +0.017 A 
ATOM     15  C   UNL     1       3.194   4.964   0.805  0.00  0.00    +0.039 A 
ATOM     16 BR   UNL     1       1.779   5.902   1.638  0.00  0.00    -0.048 Br
ENDBRANCH   8  10
ENDBRANCH   5   6
ENDBRANCH   2   5
BRANCH   3  17
ATOM     17  C   UNL     1       0.037  -2.195   1.127  0.00  0.00    +0.173 C 
BRANCH  17  18
ATOM     18  S   UNL     1       0.049  -2.813   2.829  0.00  0.00    -0.077 S 
BRANCH  18  19
ATOM     19  C   UNL     1       0.073  -4.549   2.523  0.00  0.00    +0.192 A 
ATOM     20  N   UNL     1       0.070  -4.984   1.272  0.00  0.00    -0.207 NA
ATOM     21  C   UNL     1       0.093  -6.287   1.004  0.00  0.00    +0.122 A 
ATOM     22  C   UNL     1       0.109  -7.196   2.058  0.00  0.00    +0.086 A 
ATOM     23  C   UNL     1       0.105  -6.702   3.359  0.00  0.00    +0.122 A 
ATOM     24  N   UNL     1       0.087  -5.385   3.551  0.00  0.00    -0.207 NA
ATOM     25  N   UNL     1       0.097  -6.734  -0.309  0.00  0.00    -0.343 N 
ATOM     26  H   UNL     1       0.116  -7.813  -0.522  0.00  0.00    +0.144 HD
ATOM     27  H   UNL     1       0.080  -6.010  -1.136  0.00  0.00    +0.144 HD
BRANCH  23  28
ATOM     28  N   UNL     1       0.120  -7.569   4.440  0.00  0.00    -0.343 N 
ATOM     29  H   UNL     1       0.117  -7.170   5.465  0.00  0.00    +0.144 HD
ATOM     30  H   UNL     1       0.135  -8.656   4.272  0.00  0.00    +0.144 HD
ENDBRANCH  23  28
ENDBRANCH  18  19
ENDBRANCH  17  18
ENDBRANCH   3  17
TORSDOF 7
