REMARK  Name = ZINC40111022
REMARK  7 active torsions:
REMARK  status: ('A' for Active; 'I' for Inactive)
REMARK    1  A    between atoms: C_1  and  C_2
REMARK    2  A    between atoms: C_5  and  O_8
REMARK    3  A    between atoms: O_8  and  C_9
REMARK    4  A    between atoms: C_9  and  C_10
REMARK    5  A    between atoms: N_12  and  C_13
REMARK    6  A    between atoms: C_17  and  C_19
REMARK    7  A    between atoms: C_19  and  C_26
REMARK                            x       y       z     vdW  Elec       q    Type
REMARK                         _______ _______ _______ _____ _____    ______ ____
ROOT
ATOM      1  C   UNL     1       0.033  -8.495   1.972  0.00  0.00    +0.034 A 
ATOM      2  C   UNL     1       0.045  -9.073   0.709  0.00  0.00    +0.023 A 
ATOM      3  C   UNL     1      -0.027 -10.445   0.578  0.00  0.00    +0.002 A 
ATOM      4  C   UNL     1      -0.112 -11.245   1.704  0.00  0.00    +0.006 A 
ATOM      5  C   UNL     1      -0.125 -10.673   2.962  0.00  0.00    -0.014 A 
ATOM      6  C   UNL     1      -0.047  -9.301   3.100  0.00  0.00    +0.029 A 
ENDROOT
BRANCH   5   7
ATOM      7  C   UNL     1      -0.219 -11.548   4.186  0.00  0.00    +0.135 C 
ATOM      8  C   UNL     1      -1.529 -11.313   4.911  0.00  0.00    +0.248 C 
ATOM      9  O   UNL     1      -1.916 -10.277   5.407  0.00  0.00    -0.273 OA
ATOM     10  N   UNL     1      -2.175 -12.495   4.888  0.00  0.00    -0.238 N 
ATOM     11  C   UNL     1      -1.463 -13.435   4.256  0.00  0.00    +0.307 C 
ATOM     12  O   UNL     1      -1.838 -14.582   4.108  0.00  0.00    -0.252 OA
ATOM     13  N   UNL     1      -0.285 -12.969   3.803  0.00  0.00    -0.282 N 
ATOM     14  C   UNL     1       0.968 -11.296   5.117  0.00  0.00    +0.047 C 
ATOM     15  H   UNL     1      -3.049 -12.646   5.282  0.00  0.00    +0.159 HD
ATOM     16  H   UNL     1       0.389 -13.471   3.318  0.00  0.00    +0.152 HD
ENDBRANCH   5   7
BRANCH   1  19
ATOM     17  C   UNL     1      -0.494  -6.306   1.202  0.00  0.00    +0.255 C 
ATOM     18  O   UNL     1      -1.024  -6.790   0.225  0.00  0.00    -0.272 OA
ATOM     19  N   UNL     1       0.106  -7.104   2.108  0.00  0.00    -0.283 N 
ATOM     20  H   UNL     1       0.588  -6.714   2.853  0.00  0.00    +0.155 HD
BRANCH  17  21
ATOM     21  C   UNL     1      -0.505  -4.813   1.403  0.00  0.00    +0.324 C 
BRANCH  21  22
ATOM     22  O   UNL     1      -1.195  -4.191   0.318  0.00  0.00    -0.483 OA
BRANCH  22  27
ATOM     23  C   UNL     1      -1.614   1.425   0.436  0.00  0.00    +0.044 C 
ATOM     24  C   UNL     1      -1.501  -0.078   0.404  0.00  0.00    -0.050 A 
ATOM     25  C   UNL     1      -2.054  -0.789  -0.645  0.00  0.00    +0.007 A 
ATOM     26  C   UNL     1      -1.952  -2.166  -0.676  0.00  0.00    +0.046 A 
ATOM     27  C   UNL     1      -1.295  -2.836   0.346  0.00  0.00    +0.121 A 
ATOM     28  C   UNL     1      -0.742  -2.120   1.397  0.00  0.00    +0.046 A 
ATOM     29  C   UNL     1      -0.841  -0.742   1.422  0.00  0.00    +0.007 A 
ENDBRANCH  22  27
ENDBRANCH  21  22
ENDBRANCH  17  21
ENDBRANCH   1  19
TORSDOF 5
