REMARK  Name = ZINC40480146
REMARK  5 active torsions:
REMARK  status: ('A' for Active; 'I' for Inactive)
REMARK    1  A    between atoms: C_1  and  C_2
REMARK    2  A    between atoms: C_5  and  N_11
REMARK    3  A    between atoms: C_6  and  C_8
REMARK    4  A    between atoms: C_12  and  C_14
REMARK    5  A    between atoms: C_17  and  O_21
REMARK                            x       y       z     vdW  Elec       q    Type
REMARK                         _______ _______ _______ _____ _____    ______ ____
ROOT
ATOM      1  N   UNL     1       0.038  -4.017  -0.065  0.00  0.00    -0.286 N 
ATOM      2  C   UNL     1      -0.097  -4.627  -1.259  0.00  0.00    +0.203 C 
ATOM      3  O   UNL     1      -0.133  -3.967  -2.276  0.00  0.00    -0.277 OA
ATOM      4  H   UNL     1       0.147  -4.546   0.741  0.00  0.00    +0.155 HD
ENDROOT
BRANCH   1   9
ATOM      5  C   UNL     1      -0.047   1.651   0.241  0.00  0.00    +0.044 C 
ATOM      6  C   UNL     1      -0.019   0.146   0.168  0.00  0.00    -0.050 A 
ATOM      7  C   UNL     1      -0.649  -0.505  -0.881  0.00  0.00    +0.005 A 
ATOM      8  C   UNL     1      -0.631  -1.882  -0.961  0.00  0.00    +0.024 A 
ATOM      9  C   UNL     1       0.019  -2.628   0.013  0.00  0.00    +0.048 A 
ATOM     10  C   UNL     1       0.658  -1.972   1.078  0.00  0.00    +0.085 A 
ATOM     11  C   UNL     1       0.636  -0.575   1.141  0.00  0.00    +0.020 A 
BRANCH  10  12
ATOM     12  C   UNL     1       1.351  -2.749   2.118  0.00  0.00    +0.388 C 
ATOM     13  O   UNL     1       1.823  -2.182   3.093  0.00  0.00    -0.241 OA
ATOM     14  O   UNL     1       1.455  -3.963   2.006  0.00  0.00    -0.241 OA
ENDBRANCH  10  12
ENDBRANCH   1   9
BRANCH   2  15
ATOM     15  C   UNL     1      -0.204  -6.128  -1.331  0.00  0.00    +0.019 C 
ATOM     16  C   UNL     1       1.200  -6.760  -1.225  0.00  0.00    +0.023 C 
ATOM     17  C   UNL     1       1.126  -7.946  -2.222  0.00  0.00    +0.097 C 
ATOM     18  C   UNL     1       0.233  -7.357  -3.343  0.00  0.00    -0.050 C 
ATOM     19  N   UNL     1      -0.770  -6.529  -2.632  0.00  0.00    +0.388 N 
ATOM     20  H   UNL     1      -1.612  -7.065  -2.485  0.00  0.00    -0.085 HD
ATOM     21  H   UNL     1      -0.982  -5.708  -3.178  0.00  0.00    -0.085 HD
BRANCH  17  22
ATOM     22  O   UNL     1       2.424  -8.276  -2.722  0.00  0.00    -0.394 OA
ATOM     23  H   UNL     1       2.428  -9.012  -3.349  0.00  0.00    +0.210 HD
ENDBRANCH  17  22
ENDBRANCH   2  15
TORSDOF 4
