REMARK  Name = ZINC14253639
REMARK  8 active torsions:
REMARK  status: ('A' for Active; 'I' for Inactive)
REMARK    1  A    between atoms: C_1  and  C_2
REMARK    2  A    between atoms: C_5  and  C_36
REMARK    3  A    between atoms: N_8  and  S_10
REMARK    4  A    between atoms: S_10  and  C_13
REMARK    5  A    between atoms: C_17  and  C_19
REMARK    6  A    between atoms: N_21  and  C_22
REMARK    7  A    between atoms: N_21  and  C_23
REMARK    8  A    between atoms: C_23  and  C_24
REMARK                            x       y       z     vdW  Elec       q    Type
REMARK                         _______ _______ _______ _____ _____    ______ ____
ROOT
ATOM      1  C   UNL     1       3.500   1.287   3.623  0.00  0.00    +0.106 A 
ATOM      2  C   UNL     1       4.181   1.043   2.444  0.00  0.00    +0.028 A 
ATOM      3  C   UNL     1       3.500   1.008   1.240  0.00  0.00    +0.003 A 
ATOM      4  C   UNL     1       2.136   1.218   1.208  0.00  0.00    +0.013 A 
ATOM      5  C   UNL     1       1.444   1.464   2.395  0.00  0.00    +0.039 A 
ATOM      6  C   UNL     1       2.138   1.503   3.606  0.00  0.00    +0.041 A 
ENDROOT
BRANCH   5   7
ATOM      7  C   UNL     1      -0.017   1.690   2.369  0.00  0.00    +0.247 C 
ATOM      8  O   UNL     1      -0.722   1.210   3.235  0.00  0.00    -0.270 OA
ATOM      9  N   UNL     1      -0.567   2.427   1.384  0.00  0.00    -0.293 N 
ATOM     10  C   UNL     1       0.268   2.926   0.288  0.00  0.00    +0.133 C 
BRANCH   9  11
ATOM     11  C   UNL     1      -2.001   2.730   1.409  0.00  0.00    +0.181 C 
BRANCH  11  12
ATOM     12  C   UNL     1      -2.755   1.650   0.678  0.00  0.00    +0.128 A 
ATOM     13  N   UNL     1      -4.107   1.750   0.597  0.00  0.00    -0.309 N 
ATOM     14  H   UNL     1      -4.559   2.505   1.006  0.00  0.00    +0.170 HD
ATOM     15  C   UNL     1      -4.830   0.808  -0.053  0.00  0.00    +0.259 A 
ATOM     16  O   UNL     1      -6.042   0.888  -0.137  0.00  0.00    -0.267 OA
ATOM     17  C   UNL     1      -4.096  -0.317  -0.649  0.00  0.00    +0.065 A 
ATOM     18  C   UNL     1      -4.746  -1.341  -1.334  0.00  0.00    +0.015 A 
ATOM     19  C   UNL     1      -4.008  -2.373  -1.872  0.00  0.00    +0.001 A 
ATOM     20  C   UNL     1      -2.626  -2.398  -1.737  0.00  0.00    +0.002 A 
ATOM     21  C   UNL     1      -1.965  -1.396  -1.064  0.00  0.00    +0.028 A 
ATOM     22  C   UNL     1      -2.691  -0.340  -0.509  0.00  0.00    +0.078 A 
ATOM     23  N   UNL     1      -2.080   0.668   0.162  0.00  0.00    -0.232 NA
ENDBRANCH  11  12
ENDBRANCH   9  11
ENDBRANCH   5   7
BRANCH   1  24
ATOM     24  S   UNL     1       4.377   1.330   5.151  0.00  0.00    +0.061 S 
ATOM     25  O   UNL     1       3.431   1.035   6.170  0.00  0.00    -0.153 OA
ATOM     26  O   UNL     1       5.558   0.563   4.963  0.00  0.00    -0.153 OA
BRANCH  24  32
ATOM     27  C   UNL     1       7.290   5.193   3.616  0.00  0.00    +0.009 C 
ATOM     28  C   UNL     1       5.937   4.614   4.037  0.00  0.00    +0.002 C 
ATOM     29  C   UNL     1       5.168   5.654   4.855  0.00  0.00    +0.009 C 
ATOM     30  C   UNL     1       3.802   5.088   5.248  0.00  0.00    +0.002 C 
ATOM     31  C   UNL     1       4.001   3.841   6.116  0.00  0.00    +0.112 C 
ATOM     32  N   UNL     1       4.862   2.895   5.394  0.00  0.00    -0.176 NA
ATOM     33  C   UNL     1       6.163   3.361   4.896  0.00  0.00    +0.112 C 
ATOM     34  C   UNL     1       3.022   4.712   3.987  0.00  0.00    +0.009 C 
ENDBRANCH  24  32
ENDBRANCH   1  24
TORSDOF 5
