REMARK  Name = ZINC59061007
REMARK  10 active torsions:
REMARK  status: ('A' for Active; 'I' for Inactive)
REMARK    1  A    between atoms: C_1  and  C_2
REMARK    2  A    between atoms: C_5  and  C_37
REMARK    3  A    between atoms: N_8  and  C_10
REMARK    4  A    between atoms: C_10  and  C_11
REMARK    5  A    between atoms: C_16  and  C_17
REMARK    6  A    between atoms: C_17  and  N_18
REMARK    7  A    between atoms: C_19  and  C_21
REMARK    8  A    between atoms: C_21  and  N_22
REMARK    9  A    between atoms: C_25  and  C_29
REMARK   10  A    between atoms: C_25  and  C_30
REMARK                            x       y       z     vdW  Elec       q    Type
REMARK                         _______ _______ _______ _____ _____    ______ ____
ROOT
ATOM      1  N   UNL     1       2.228  -0.129   4.709  0.00  0.00    -0.310 N 
ATOM      2  C   UNL     1       1.379   0.656   5.402  0.00  0.00    +0.231 C 
ATOM      3  O   UNL     1       0.810   1.572   4.846  0.00  0.00    -0.274 OA
ATOM      4  H   UNL     1       2.684  -0.861   5.154  0.00  0.00    +0.149 HD
ENDROOT
BRANCH   1   5
ATOM      5  C   UNL     1       2.463   0.124   3.285  0.00  0.00    +0.139 C 
BRANCH   5  11
ATOM      6  C   UNL     1       3.041  -2.188   2.520  0.00  0.00    -0.059 A 
ATOM      7  C   UNL     1       3.941  -3.113   2.025  0.00  0.00    +0.002 A 
ATOM      8  C   UNL     1       5.246  -2.739   1.766  0.00  0.00    +0.000 A 
ATOM      9  C   UNL     1       5.651  -1.438   2.002  0.00  0.00    +0.000 A 
ATOM     10  C   UNL     1       4.752  -0.513   2.497  0.00  0.00    +0.005 A 
ATOM     11  C   UNL     1       3.445  -0.886   2.751  0.00  0.00    -0.029 A 
BRANCH   6  12
ATOM     12  C   UNL     1       1.618  -2.596   2.802  0.00  0.00    -0.043 C 
BRANCH  12  18
ATOM     13  C   UNL     1       1.374  -5.328  -1.253  0.00  0.00    +0.005 C 
ATOM     14  C   UNL     1       1.299  -5.353   0.275  0.00  0.00    -0.031 C 
ATOM     15  C   UNL     1      -0.060  -5.909   0.711  0.00  0.00    +0.003 C 
ATOM     16  C   UNL     1      -0.155  -5.856   2.239  0.00  0.00    -0.031 C 
ATOM     17  C   UNL     1       0.060  -4.415   2.708  0.00  0.00    -0.075 C 
ATOM     18  N   UNL     1       1.386  -3.951   2.283  0.00  0.00    +0.383 N 
ATOM     19  C   UNL     1       1.461  -3.931   0.817  0.00  0.00    -0.075 C 
ATOM     20  C   UNL     1       0.919  -6.758   2.849  0.00  0.00    +0.005 C 
ATOM     21  H   UNL     1       2.091  -4.574   2.646  0.00  0.00    -0.081 HD
ENDBRANCH  12  18
ENDBRANCH   6  12
ENDBRANCH   5  11
ENDBRANCH   1   5
BRANCH   2  22
ATOM     22  C   UNL     1       1.138   0.397   6.867  0.00  0.00    +0.213 C 
BRANCH  22  23
ATOM     23  N   UNL     1       0.183   1.379   7.386  0.00  0.00    -0.215 N 
ATOM     24  C   UNL     1       0.532   2.571   7.909  0.00  0.00    +0.251 C 
ATOM     25  O   UNL     1       1.653   3.015   8.034  0.00  0.00    -0.272 OA
ATOM     26  C   UNL     1      -0.768   3.240   8.308  0.00  0.00    +0.135 C 
ATOM     27  N   UNL     1      -1.796   2.255   7.927  0.00  0.00    -0.281 N 
ATOM     28  C   UNL     1      -1.144   1.206   7.394  0.00  0.00    +0.310 C 
ATOM     29  O   UNL     1      -1.698   0.211   6.970  0.00  0.00    -0.252 OA
ATOM     30  C   UNL     1      -0.802   3.497   9.816  0.00  0.00    +0.047 C 
ATOM     31  H   UNL     1      -2.755   2.346   8.037  0.00  0.00    +0.152 HD
BRANCH  26  32
ATOM     32  C   UNL     1      -0.959   4.526   7.545  0.00  0.00    -0.015 A 
ATOM     33  C   UNL     1       0.142   5.255   7.135  0.00  0.00    +0.009 A 
ATOM     34  C   UNL     1      -0.031   6.434   6.435  0.00  0.00    +0.039 A 
ATOM     35  C   UNL     1      -1.307   6.885   6.145  0.00  0.00    +0.123 A 
ATOM     36  C   UNL     1      -2.409   6.154   6.557  0.00  0.00    +0.039 A 
ATOM     37  C   UNL     1      -2.233   4.973   7.252  0.00  0.00    +0.009 A 
ATOM     38  F   UNL     1      -1.478   8.038   5.462  0.00  0.00    -0.205 F 
ENDBRANCH  26  32
ENDBRANCH  22  23
ENDBRANCH   2  22
TORSDOF 7
