REMARK  Name = ZINC49078818
REMARK  5 active torsions:
REMARK  status: ('A' for Active; 'I' for Inactive)
REMARK    1  A    between atoms: C_1  and  C_2
REMARK    2  A    between atoms: C_5  and  S_9
REMARK    3  A    between atoms: S_9  and  N_12
REMARK    4  A    between atoms: N_12  and  C_13
REMARK    5  A    between atoms: C_13  and  C_18
REMARK                            x       y       z     vdW  Elec       q    Type
REMARK                         _______ _______ _______ _____ _____    ______ ____
ROOT
ATOM      1  S   UNL     1       0.061  -4.852  -0.014  0.00  0.00    +0.060 S 
ATOM      2  O   UNL     1       0.264  -5.222  -1.371  0.00  0.00    -0.153 OA
ATOM      3  O   UNL     1      -0.496  -3.599   0.359  0.00  0.00    -0.153 OA
ENDROOT
BRANCH   1   8
ATOM      4  C   UNL     1      -3.464  -9.099   2.425  0.00  0.00    +0.044 C 
ATOM      5  C   UNL     1      -2.583  -8.039   1.816  0.00  0.00    -0.049 A 
ATOM      6  C   UNL     1      -2.917  -6.704   1.947  0.00  0.00    +0.005 A 
ATOM      7  C   UNL     1      -2.109  -5.731   1.389  0.00  0.00    +0.030 A 
ATOM      8  C   UNL     1      -0.967  -6.092   0.699  0.00  0.00    +0.123 A 
ATOM      9  C   UNL     1      -0.632  -7.428   0.568  0.00  0.00    +0.068 A 
ATOM     10  C   UNL     1      -1.438  -8.401   1.132  0.00  0.00    +0.025 A 
ATOM     11 CL   UNL     1       0.802  -7.883  -0.298  0.00  0.00    -0.082 Cl
ENDBRANCH   1   8
BRANCH   1  12
ATOM     12  N   UNL     1       1.538  -4.953   0.730  0.00  0.00    -0.184 NA
ATOM     13  H   UNL     1       2.316  -5.239   0.226  0.00  0.00    +0.149 HD
BRANCH  12  14
ATOM     14  C   UNL     1       1.668  -4.612   2.149  0.00  0.00    +0.037 C 
ATOM     15  C   UNL     1       1.408  -3.110   2.356  0.00  0.00    +0.023 C 
ATOM     16  C   UNL     1       2.701  -2.517   2.951  0.00  0.00    +0.002 C 
ATOM     17  C   UNL     1       3.810  -3.503   2.509  0.00  0.00    +0.002 C 
ATOM     18  C   UNL     1       3.111  -4.879   2.626  0.00  0.00    +0.023 C 
ATOM     19  C   UNL     1       0.681  -5.436   2.978  0.00  0.00    +0.029 C 
ENDBRANCH  12  14
ENDBRANCH   1  12
TORSDOF 3
