REMARK  Name = ZINC54733699
REMARK  9 active torsions:
REMARK  status: ('A' for Active; 'I' for Inactive)
REMARK    1  A    between atoms: C_1  and  C_2
REMARK    2  A    between atoms: C_5  and  C_7
REMARK    3  A    between atoms: C_7  and  C_9
REMARK    4  A    between atoms: C_7  and  N_10
REMARK    5  A    between atoms: N_13  and  C_14
REMARK    6  A    between atoms: C_16  and  C_22
REMARK    7  A    between atoms: C_16  and  C_23
REMARK    8  A    between atoms: C_18  and  C_20
REMARK    9  A    between atoms: C_18  and  C_21
REMARK                            x       y       z     vdW  Elec       q    Type
REMARK                         _______ _______ _______ _____ _____    ______ ____
ROOT
ATOM      1  N   UNL     1       2.256  -4.340  -0.642  0.00  0.00    -0.292 N 
ATOM      2  C   UNL     1       2.610  -5.525  -1.178  0.00  0.00    +0.300 C 
ATOM      3  O   UNL     1       2.001  -6.534  -0.878  0.00  0.00    -0.253 OA
ATOM      4  N   UNL     1       3.639  -5.591  -2.046  0.00  0.00    -0.297 N 
ATOM      5  H   UNL     1       2.742  -3.535  -0.881  0.00  0.00    +0.151 HD
ATOM      6  H   UNL     1       4.125  -4.787  -2.285  0.00  0.00    +0.151 HD
ENDROOT
BRANCH   4   7
ATOM      7  C   UNL     1       4.024  -6.883  -2.630  0.00  0.00    +0.072 C 
ATOM      8  C   UNL     1       5.007  -7.585  -1.691  0.00  0.00    +0.009 C 
ATOM      9  C   UNL     1       5.428  -8.926  -2.291  0.00  0.00    -0.072 C 
ATOM     10  N   UNL     1       5.951  -8.783  -3.641  0.00  0.00    +0.386 N 
ATOM     11  C   UNL     1       5.199  -7.958  -4.574  0.00  0.00    -0.072 C 
ATOM     12  C   UNL     1       4.726  -6.642  -3.966  0.00  0.00    +0.009 C 
ATOM     13  C   UNL     1       6.143  -7.608  -5.749  0.00  0.00    -0.010 C 
ATOM     14  C   UNL     1       4.010  -8.717  -5.167  0.00  0.00    -0.010 C 
ATOM     15  C   UNL     1       4.269  -9.921  -2.226  0.00  0.00    -0.010 C 
ATOM     16  C   UNL     1       6.564  -9.488  -1.406  0.00  0.00    -0.010 C 
ATOM     17  H   UNL     1       6.903  -8.411  -3.578  0.00  0.00    -0.084 HD
ATOM     18  H   UNL     1       6.054  -9.716  -4.046  0.00  0.00    -0.084 HD
ENDBRANCH   4   7
BRANCH   1  19
ATOM     19  C   UNL     1       1.138  -4.267   0.301  0.00  0.00    +0.108 C 
ATOM     20  C   UNL     1       1.638  -4.589   1.711  0.00  0.00    +0.033 C 
BRANCH  19  25
ATOM     21  C   UNL     1      -0.121   1.254   0.165  0.00  0.00    +0.051 C 
ATOM     22  C   UNL     1      -0.047  -0.250   0.216  0.00  0.00    -0.013 A 
ATOM     23  C   UNL     1      -1.055  -1.152   0.300  0.00  0.00    +0.011 A 
ATOM     24  C   UNL     1      -0.748  -2.499   0.333  0.00  0.00    +0.013 A 
ATOM     25  C   UNL     1       0.553  -2.879   0.281  0.00  0.00    +0.010 A 
ATOM     26  S   UNL     1       1.392  -1.306   0.175  0.00  0.00    -0.097 S 
ENDBRANCH  19  25
ENDBRANCH   1  19
TORSDOF 3
