REMARK  Name = ZINC67591242
REMARK  5 active torsions:
REMARK  status: ('A' for Active; 'I' for Inactive)
REMARK    1  A    between atoms: C_1  and  C_2
REMARK    2  A    between atoms: C_7  and  C_10
REMARK    3  A    between atoms: N_18  and  C_19
REMARK    4  A    between atoms: C_19  and  C_20
REMARK    5  A    between atoms: C_23  and  O_26
REMARK                            x       y       z     vdW  Elec       q    Type
REMARK                         _______ _______ _______ _____ _____    ______ ____
ROOT
ATOM      1  C   UNL     1      -0.022   1.523   0.001  0.00  0.00    +0.039 C 
ATOM      2  C   UNL     1      -0.000  -0.007  -0.002  0.00  0.00    +0.133 C 
ATOM      3  C   UNL     1      -1.438  -0.539   0.016  0.00  0.00    +0.140 C 
ATOM      4  N   UNL     1      -2.041  -0.204   1.315  0.00  0.00    -0.280 N 
ATOM      5  C   UNL     1      -1.294  -0.553   2.535  0.00  0.00    +0.145 C 
ATOM      6  C   UNL     1       0.137  -0.020   2.394  0.00  0.00    +0.166 C 
ATOM      7  O   UNL     1       0.691  -0.477   1.157  0.00  0.00    -0.366 OA
ATOM      8  C   UNL     1      -3.241   0.404   1.387  0.00  0.00    +0.303 C 
ATOM      9  O   UNL     1      -3.799   0.769   0.371  0.00  0.00    -0.253 OA
ATOM     10  N   UNL     1      -3.823   0.607   2.586  0.00  0.00    -0.295 N 
ATOM     11  H   UNL     1      -3.347   0.381   3.400  0.00  0.00    +0.151 HD
ENDROOT
BRANCH   6  12
ATOM     12  C   UNL     1       0.977  -0.523   3.540  0.00  0.00    -0.017 A 
ATOM     13  C   UNL     1       1.579  -1.764   3.462  0.00  0.00    +0.006 A 
ATOM     14  C   UNL     1       2.349  -2.226   4.513  0.00  0.00    +0.000 A 
ATOM     15  C   UNL     1       2.517  -1.446   5.641  0.00  0.00    +0.000 A 
ATOM     16  C   UNL     1       1.915  -0.204   5.719  0.00  0.00    +0.000 A 
ATOM     17  C   UNL     1       1.149   0.259   4.667  0.00  0.00    +0.006 A 
ENDBRANCH   6  12
BRANCH  10  18
ATOM     18  C   UNL     1      -5.174   1.168   2.658  0.00  0.00    +0.141 C 
BRANCH  18  19
ATOM     19  C   UNL     1      -5.589   1.293   4.102  0.00  0.00    -0.030 A 
ATOM     20  C   UNL     1      -6.235   0.243   4.728  0.00  0.00    +0.009 A 
ATOM     21  C   UNL     1      -6.617   0.356   6.051  0.00  0.00    +0.046 A 
ATOM     22  C   UNL     1      -6.352   1.524   6.751  0.00  0.00    +0.117 A 
ATOM     23  C   UNL     1      -5.703   2.576   6.120  0.00  0.00    +0.046 A 
ATOM     24  C   UNL     1      -5.319   2.456   4.799  0.00  0.00    +0.009 A 
BRANCH  22  25
ATOM     25  O   UNL     1      -6.727   1.637   8.052  0.00  0.00    -0.507 OA
ATOM     26  H   UNL     1      -6.056   1.341   8.682  0.00  0.00    +0.292 HD
ENDBRANCH  22  25
ENDBRANCH  18  19
ENDBRANCH  10  18
TORSDOF 4
