REMARK  Name = ZINC66433716
REMARK  7 active torsions:
REMARK  status: ('A' for Active; 'I' for Inactive)
REMARK    1  A    between atoms: C_1  and  C_2
REMARK    2  A    between atoms: C_2  and  C_3
REMARK    3  A    between atoms: C_2  and  O_4
REMARK    4  A    between atoms: O_4  and  C_5
REMARK    5  A    between atoms: C_10  and  N_11
REMARK    6  A    between atoms: C_12  and  C_14
REMARK    7  A    between atoms: C_17  and  N_21
REMARK                            x       y       z     vdW  Elec       q    Type
REMARK                         _______ _______ _______ _____ _____    ______ ____
ROOT
ATOM      1  N   UNL     1      -3.944  -1.433  -0.209  0.00  0.00    -0.278 N 
ATOM      2  C   UNL     1      -4.988  -2.115   0.301  0.00  0.00    +0.250 C 
ATOM      3  O   UNL     1      -5.053  -3.321   0.162  0.00  0.00    -0.270 OA
ATOM      4  H   UNL     1      -3.923  -0.464  -0.153  0.00  0.00    +0.155 HD
ENDROOT
BRANCH   1  10
ATOM      5  C   UNL     1      -1.585  -1.641  -0.710  0.00  0.00    +0.142 A 
ATOM      6  C   UNL     1      -0.543  -2.329  -1.311  0.00  0.00    +0.050 A 
ATOM      7  C   UNL     1      -0.798  -3.487  -2.022  0.00  0.00    +0.042 A 
ATOM      8  C   UNL     1      -2.093  -3.962  -2.137  0.00  0.00    +0.125 A 
ATOM      9  C   UNL     1      -3.139  -3.281  -1.539  0.00  0.00    +0.065 A 
ATOM     10  C   UNL     1      -2.888  -2.121  -0.819  0.00  0.00    +0.079 A 
ATOM     11  F   UNL     1      -2.337  -5.094  -2.833  0.00  0.00    -0.205 F 
BRANCH   5  12
ATOM     12  O   UNL     1      -1.336  -0.502  -0.010  0.00  0.00    -0.488 OA
BRANCH  12  14
ATOM     13  C   UNL     1      -0.030   1.532   0.002  0.00  0.00    +0.051 C 
ATOM     14  C   UNL     1       0.001   0.003  -0.047  0.00  0.00    +0.167 C 
ATOM     15  C   UNL     1       0.781  -0.530   1.156  0.00  0.00    +0.051 C 
ENDBRANCH  12  14
ENDBRANCH   5  12
ENDBRANCH   1  10
BRANCH   2  16
ATOM     16  C   UNL     1      -6.054  -1.397   1.030  0.00  0.00    +0.055 A 
ATOM     17  C   UNL     1      -5.987  -0.011   1.187  0.00  0.00    +0.017 A 
ATOM     18  C   UNL     1      -6.985   0.652   1.867  0.00  0.00    +0.033 A 
ATOM     19  C   UNL     1      -8.054  -0.051   2.395  0.00  0.00    +0.128 A 
ATOM     20  C   UNL     1      -8.129  -1.424   2.245  0.00  0.00    +0.053 A 
ATOM     21  C   UNL     1      -7.138  -2.101   1.560  0.00  0.00    +0.055 A 
ATOM     22 CL   UNL     1      -7.237  -3.824   1.365  0.00  0.00    -0.083 Cl
BRANCH  19  23
ATOM     23  N   UNL     1      -9.122   0.669   3.125  0.00  0.00    +0.056 N 
ATOM     24  O   UNL     1      -9.059   1.869   3.259  0.00  0.00    -0.126 OA
ATOM     25  O   UNL     1     -10.056   0.057   3.587  0.00  0.00    -0.126 OA
ENDBRANCH  19  23
ENDBRANCH   2  16
TORSDOF 5
