REMARK  Name = ZINC64517337
REMARK  8 active torsions:
REMARK  status: ('A' for Active; 'I' for Inactive)
REMARK    1  A    between atoms: C_1  and  C_2
REMARK    2  A    between atoms: C_2  and  C_3
REMARK    3  A    between atoms: C_3  and  C_4
REMARK    4  A    between atoms: C_6  and  C_10
REMARK    5  A    between atoms: N_15  and  C_16
REMARK    6  A    between atoms: C_16  and  C_17
REMARK    7  A    between atoms: C_22  and  C_23
REMARK    8  A    between atoms: C_26  and  C_29
REMARK                            x       y       z     vdW  Elec       q    Type
REMARK                         _______ _______ _______ _____ _____    ______ ____
ROOT
ATOM      1  C   UNL     1      -0.064  -4.834   0.919  0.00  0.00    +0.081 C 
ATOM      2  C   UNL     1      -0.055  -6.325   0.522  0.00  0.00    +0.022 C 
ATOM      3  C   UNL     1       0.827  -6.974   1.621  0.00  0.00    +0.017 C 
ATOM      4  C   UNL     1       0.440  -6.139   2.867  0.00  0.00    +0.085 C 
ATOM      5  N   UNL     1       0.259  -4.759   2.356  0.00  0.00    -0.297 NA
ENDROOT
BRANCH   1   8
ATOM      6  C   UNL     1      -1.413  -2.041   0.005  0.00  0.00    +0.123 C 
ATOM      7  C   UNL     1      -1.493  -2.780   1.089  0.00  0.00    +0.040 C 
ATOM      8  C   UNL     1      -1.449  -4.236   0.666  0.00  0.00    +0.136 C 
ATOM      9  N   UNL     1      -1.736  -4.160  -0.790  0.00  0.00    -0.147 NA
ATOM     10  O   UNL     1      -1.316  -2.788  -1.121  0.00  0.00    -0.411 OA
ATOM     11  H   UNL     1      -2.721  -4.286  -0.972  0.00  0.00    +0.168 HD
BRANCH   6  12
ATOM     12  C   UNL     1      -1.433  -0.534   0.013  0.00  0.00    +0.076 C 
BRANCH  12  14
ATOM     13  C   UNL     1      -0.019   1.526   0.010  0.00  0.00    +0.004 C 
ATOM     14  C   UNL     1       0.002  -0.004   0.002  0.00  0.00    +0.004 C 
ENDBRANCH  12  14
ENDBRANCH   6  12
ENDBRANCH   1   8
BRANCH   5  15
ATOM     15  C   UNL     1       1.463  -3.948   2.583  0.00  0.00    +0.100 C 
BRANCH  15  16
ATOM     16  C   UNL     1       1.625  -3.686   4.082  0.00  0.00    +0.097 C 
ATOM     17  C   UNL     1       0.532  -2.764   4.584  0.00  0.00    +0.118 C 
ATOM     18  N   UNL     1       1.130  -1.707   5.029  0.00  0.00    -0.161 NA
ATOM     19  N   UNL     1       2.512  -1.782   4.897  0.00  0.00    -0.153 NA
ATOM     20  C   UNL     1       2.898  -2.908   4.353  0.00  0.00    +0.080 C 
BRANCH  20  21
ATOM     21  C   UNL     1       4.277  -3.332   4.063  0.00  0.00    -0.001 A 
ATOM     22  C   UNL     1       4.519  -4.574   3.468  0.00  0.00    +0.010 A 
ATOM     23  C   UNL     1       5.814  -4.964   3.200  0.00  0.00    +0.004 A 
ATOM     24  C   UNL     1       6.872  -4.131   3.518  0.00  0.00    -0.050 A 
ATOM     25  C   UNL     1       6.640  -2.900   4.108  0.00  0.00    +0.004 A 
ATOM     26  C   UNL     1       5.351  -2.493   4.376  0.00  0.00    +0.010 A 
ATOM     27  C   UNL     1       8.285  -4.566   3.222  0.00  0.00    +0.044 C 
ENDBRANCH  20  21
ENDBRANCH  15  16
ENDBRANCH   5  15
TORSDOF 6
