REMARK  Name = ZINC55324864
REMARK  8 active torsions:
REMARK  status: ('A' for Active; 'I' for Inactive)
REMARK    1  A    between atoms: C_1  and  C_2
REMARK    2  A    between atoms: C_4  and  C_24
REMARK    3  A    between atoms: C_5  and  C_23
REMARK    4  A    between atoms: C_6  and  C_9
REMARK    5  A    between atoms: C_7  and  C_8
REMARK    6  A    between atoms: N_11  and  C_12
REMARK    7  A    between atoms: C_12  and  C_13
REMARK    8  A    between atoms: C_13  and  N_14
REMARK                            x       y       z     vdW  Elec       q    Type
REMARK                         _______ _______ _______ _____ _____    ______ ____
ROOT
ATOM      1  C   UNL     1       0.052  -2.845   2.458  0.00  0.00    +0.245 C 
ATOM      2  O   UNL     1       1.111  -3.140   2.977  0.00  0.00    -0.270 OA
ATOM      3  N   UNL     1      -1.108  -3.203   3.043  0.00  0.00    -0.310 N 
ATOM      4  H   UNL     1      -1.953  -2.968   2.629  0.00  0.00    +0.149 HD
ENDROOT
BRANCH   1  10
ATOM      5  C   UNL     1      -0.018   1.503   0.010  0.00  0.00    +0.044 C 
ATOM      6  C   UNL     1       0.002  -0.004   0.002  0.00  0.00    -0.047 A 
ATOM      7  C   UNL     1       0.006  -0.688  -1.201  0.00  0.00    +0.007 A 
ATOM      8  C   UNL     1       0.025  -2.071  -1.217  0.00  0.00    -0.047 A 
ATOM      9  C   UNL     1       0.040  -2.778  -0.033  0.00  0.00    -0.035 A 
ATOM     10  C   UNL     1       0.036  -2.094   1.184  0.00  0.00    +0.043 A 
ATOM     11  C   UNL     1       0.023  -0.699   1.194  0.00  0.00    -0.035 A 
ATOM     12  C   UNL     1       0.025   0.048   2.503  0.00  0.00    +0.045 C 
ATOM     13  C   UNL     1       0.060  -4.285  -0.052  0.00  0.00    +0.045 C 
ATOM     14  C   UNL     1       0.029  -2.807  -2.532  0.00  0.00    +0.044 C 
ENDBRANCH   1  10
BRANCH   3  15
ATOM     15  C   UNL     1      -1.093  -3.947   4.305  0.00  0.00    +0.128 C 
BRANCH  15  16
ATOM     16  C   UNL     1      -2.529  -4.225   4.751  0.00  0.00    +0.164 C 
BRANCH  16  17
ATOM     17  N   UNL     1      -2.514  -4.970   6.013  0.00  0.00    -0.242 N 
ATOM     18  C   UNL     1      -2.490  -6.336   6.162  0.00  0.00    +0.089 A 
ATOM     19  C   UNL     1      -2.473  -7.405   5.272  0.00  0.00    +0.029 A 
ATOM     20  C   UNL     1      -2.450  -8.685   5.749  0.00  0.00    +0.002 A 
ATOM     21  C   UNL     1      -2.444  -8.930   7.117  0.00  0.00    +0.002 A 
ATOM     22  C   UNL     1      -2.460  -7.899   8.010  0.00  0.00    +0.032 A 
ATOM     23  C   UNL     1      -2.483  -6.577   7.546  0.00  0.00    +0.113 A 
ATOM     24  N   UNL     1      -2.503  -5.382   8.170  0.00  0.00    -0.129 NA
ATOM     25  N   UNL     1      -2.515  -4.428   7.307  0.00  0.00    -0.065 NA
ENDBRANCH  16  17
ENDBRANCH  15  16
ENDBRANCH   3  15
TORSDOF 4
