REMARK  Name = ZINC16001219
REMARK  3 active torsions:
REMARK  status: ('A' for Active; 'I' for Inactive)
REMARK    1  A    between atoms: C_5  and  C_7
REMARK    2  A    between atoms: N_16  and  C_19
REMARK    3  A    between atoms: C_23  and  N_25
REMARK                            x       y       z     vdW  Elec       q    Type
REMARK                         _______ _______ _______ _____ _____    ______ ____
ROOT
ATOM      1  C   UNL     1       1.251  -2.159  -0.022  0.00  0.00    +0.081 C 
ATOM      2  N   UNL     1       0.141  -2.987   0.077  0.00  0.00    -0.264 N 
ATOM      3  O   UNL     1       0.532  -4.244  -0.512  0.00  0.00    -0.256 OA
ATOM      4  C   UNL     1       1.859  -4.369   0.024  0.00  0.00    +0.272 C 
ATOM      5  C   UNL     1       2.365  -2.926  -0.133  0.00  0.00    +0.081 C 
ATOM      6  H   UNL     1      -0.720  -2.765   0.463  0.00  0.00    +0.194 HD
ATOM      7  C   UNL     1       3.723  -3.112  -0.412  0.00  0.00    +0.258 C 
ATOM      8  O   UNL     1       4.609  -2.313  -0.163  0.00  0.00    -0.269 OA
ATOM      9  N   UNL     1       3.899  -4.313  -0.998  0.00  0.00    -0.204 N 
ATOM     10  C   UNL     1       2.821  -5.133  -0.843  0.00  0.00    +0.263 C 
ATOM     11  O   UNL     1       2.660  -6.239  -1.314  0.00  0.00    -0.271 OA
ENDROOT
BRANCH   1  16
ATOM     12  C   UNL     1       1.749   1.414  -1.060  0.00  0.00    +0.001 A 
ATOM     13  C   UNL     1       1.171   2.087   0.003  0.00  0.00    +0.001 A 
ATOM     14  C   UNL     1       0.620   1.383   1.058  0.00  0.00    +0.020 A 
ATOM     15  C   UNL     1       0.642   0.002   1.057  0.00  0.00    +0.050 A 
ATOM     16  C   UNL     1       1.223  -0.683  -0.013  0.00  0.00    +0.019 A 
ATOM     17  C   UNL     1       1.778   0.036  -1.075  0.00  0.00    +0.011 A 
ATOM     18 CL   UNL     1      -0.051  -0.880   2.383  0.00  0.00    -0.083 Cl
ENDBRANCH   1  16
BRANCH   9  19
ATOM     19  C   UNL     1       5.067  -4.685  -1.676  0.00  0.00    +0.046 A 
ATOM     20  C   UNL     1       5.163  -5.942  -2.258  0.00  0.00    +0.024 A 
ATOM     21  C   UNL     1       6.315  -6.306  -2.926  0.00  0.00    +0.004 A 
ATOM     22  C   UNL     1       7.373  -5.420  -3.016  0.00  0.00    +0.033 A 
ATOM     23  C   UNL     1       7.281  -4.168  -2.438  0.00  0.00    +0.128 A 
ATOM     24  C   UNL     1       6.128  -3.796  -1.774  0.00  0.00    +0.056 A 
BRANCH  23  25
ATOM     25  N   UNL     1       8.415  -3.223  -2.536  0.00  0.00    +0.056 N 
ATOM     26  O   UNL     1       9.422  -3.546  -3.122  0.00  0.00    -0.126 OA
ATOM     27  O   UNL     1       8.335  -2.127  -2.031  0.00  0.00    -0.126 OA
ENDBRANCH  23  25
ENDBRANCH   9  19
TORSDOF 3
