REMARK  Name = ZINC43209345
REMARK  6 active torsions:
REMARK  status: ('A' for Active; 'I' for Inactive)
REMARK    1  A    between atoms: C_4  and  C_7
REMARK    2  A    between atoms: C_7  and  C_8
REMARK    3  A    between atoms: C_8  and  C_35
REMARK    4  A    between atoms: C_13  and  C_16
REMARK    5  A    between atoms: C_21  and  O_22
REMARK    6  A    between atoms: N_26  and  C_29
REMARK                            x       y       z     vdW  Elec       q    Type
REMARK                         _______ _______ _______ _____ _____    ______ ____
ROOT
ATOM      1  C   UNL     1       4.171  -0.963   1.399  0.00  0.00    +0.138 C 
ATOM      2  C   UNL     1       5.607  -1.528   1.411  0.00  0.00    +0.121 C 
ATOM      3  C   UNL     1       6.521  -0.290   1.613  0.00  0.00    +0.111 C 
ATOM      4  C   UNL     1       5.552   0.909   1.688  0.00  0.00    +0.101 C 
ATOM      5  N   UNL     1       4.263   0.316   2.149  0.00  0.00    -0.293 NA
ATOM      6  C   UNL     1       7.142  -0.532   2.970  0.00  0.00    +0.228 C 
ATOM      7  O   UNL     1       7.931   0.205   3.521  0.00  0.00    -0.275 OA
ATOM      8  N   UNL     1       6.684  -1.686   3.469  0.00  0.00    -0.238 N 
ATOM      9  C   UNL     1       5.811  -2.342   2.669  0.00  0.00    +0.228 C 
ATOM     10  O   UNL     1       5.276  -3.402   2.913  0.00  0.00    -0.275 OA
ATOM     11  H   UNL     1       3.490   0.923   1.923  0.00  0.00    +0.124 HD
ENDROOT
BRANCH   4  12
ATOM     12  C   UNL     1       6.041   1.917   2.696  0.00  0.00    +0.013 A 
ATOM     13  C   UNL     1       5.568   1.882   3.994  0.00  0.00    +0.028 A 
ATOM     14  C   UNL     1       6.017   2.807   4.919  0.00  0.00    +0.042 A 
ATOM     15  C   UNL     1       6.940   3.769   4.548  0.00  0.00    +0.023 A 
ATOM     16  C   UNL     1       7.415   3.807   3.251  0.00  0.00    +0.047 A 
ATOM     17  C   UNL     1       6.971   2.876   2.323  0.00  0.00    +0.122 A 
ATOM     18 CL   UNL     1       5.420   2.762   6.549  0.00  0.00    -0.084 Cl
BRANCH  17  19
ATOM     19  O   UNL     1       7.441   2.908   1.048  0.00  0.00    -0.506 OA
ATOM     20  H   UNL     1       6.922   3.464   0.451  0.00  0.00    +0.292 HD
ENDBRANCH  17  19
ENDBRANCH   4  12
BRANCH   8  21
ATOM     21  C   UNL     1       7.098  -2.204   4.775  0.00  0.00    +0.084 C 
ATOM     22  C   UNL     1       6.720  -1.200   5.866  0.00  0.00    +0.023 C 
ATOM     23  C   UNL     1       7.153  -1.742   7.230  0.00  0.00    +0.002 C 
ATOM     24  C   UNL     1       8.668  -1.956   7.236  0.00  0.00    +0.000 C 
ATOM     25  C   UNL     1       9.045  -2.961   6.145  0.00  0.00    +0.002 C 
ATOM     26  C   UNL     1       8.613  -2.419   4.782  0.00  0.00    +0.023 C 
ENDBRANCH   8  21
BRANCH   1  27
ATOM     27  C   UNL     1       3.226  -1.911   2.091  0.00  0.00    +0.377 C 
ATOM     28  O   UNL     1       3.062  -3.037   1.653  0.00  0.00    -0.244 OA
ATOM     29  O   UNL     1       2.625  -1.552   3.089  0.00  0.00    -0.244 OA
ENDBRANCH   1  27
BRANCH   1  30
ATOM     30  C   UNL     1       3.711  -0.707  -0.038  0.00  0.00    +0.069 C 
BRANCH  30  34
ATOM     31  C   UNL     1      -0.017   1.378   0.010  0.00  0.00    +0.000 A 
ATOM     32  C   UNL     1       1.171   2.086   0.002  0.00  0.00    +0.000 A 
ATOM     33  C   UNL     1       2.377   1.411  -0.013  0.00  0.00    +0.004 A 
ATOM     34  C   UNL     1       2.396   0.029  -0.020  0.00  0.00    -0.045 A 
ATOM     35  C   UNL     1       1.208  -0.679  -0.012  0.00  0.00    +0.004 A 
ATOM     36  C   UNL     1       0.002  -0.004   0.002  0.00  0.00    +0.000 A 
ENDBRANCH  30  34
ENDBRANCH   1  30
TORSDOF 6
