REMARK  Name = ZINC35578378
REMARK  5 active torsions:
REMARK  status: ('A' for Active; 'I' for Inactive)
REMARK    1  A    between atoms: C_3  and  C_9
REMARK    2  A    between atoms: C_11  and  N_33
REMARK    3  A    between atoms: N_12  and  C_26
REMARK    4  A    between atoms: N_18  and  C_19
REMARK    5  A    between atoms: C_19  and  C_20
REMARK                            x       y       z     vdW  Elec       q    Type
REMARK                         _______ _______ _______ _____ _____    ______ ____
ROOT
ATOM      1  C   UNL     1       3.675   2.145  -0.274  0.00  0.00    +0.091 A 
ATOM      2  C   UNL     1       4.907   1.491  -0.049  0.00  0.00    +0.086 A 
ATOM      3  C   UNL     1       5.313   0.179   0.163  0.00  0.00    +0.131 A 
ATOM      4  N   UNL     1       6.652   0.189   0.316  0.00  0.00    -0.216 N 
ATOM      5  N   UNL     1       7.134   1.498   0.206  0.00  0.00    -0.144 NA
ATOM      6  C   UNL     1       6.128   2.316  -0.013  0.00  0.00    +0.189 A 
ATOM      7  N   UNL     1       5.996   3.644  -0.197  0.00  0.00    -0.193 NA
ATOM      8  C   UNL     1       4.806   4.172  -0.400  0.00  0.00    +0.218 A 
ATOM      9  N   UNL     1       3.684   3.461  -0.445  0.00  0.00    -0.214 NA
ATOM     10  N   UNL     1       4.721   5.541  -0.584  0.00  0.00    -0.311 N 
ATOM     11  H   UNL     1       3.858   5.957  -0.735  0.00  0.00    +0.149 HD
ENDROOT
BRANCH   1  14
ATOM     12  C   UNL     1       0.837  -0.110   0.714  0.00  0.00    +0.004 A 
ATOM     13  C   UNL     1       2.019   0.599   0.765  0.00  0.00    +0.013 A 
ATOM     14  C   UNL     1       2.408   1.382  -0.323  0.00  0.00    +0.039 A 
ATOM     15  C   UNL     1       1.595   1.443  -1.458  0.00  0.00    +0.168 A 
ATOM     16  C   UNL     1       0.411   0.727  -1.495  0.00  0.00    +0.159 A 
ATOM     17  C   UNL     1       0.035  -0.048  -0.411  0.00  0.00    +0.041 A 
ATOM     18  F   UNL     1      -0.377   0.783  -2.591  0.00  0.00    -0.202 F 
ATOM     19  F   UNL     1       1.964   2.200  -2.515  0.00  0.00    -0.202 F 
ENDBRANCH   1  14
BRANCH   4  20
ATOM     20  C   UNL     1       7.443  -0.942   0.551  0.00  0.00    +0.068 A 
ATOM     21  C   UNL     1       6.951  -1.988   1.322  0.00  0.00    +0.029 A 
ATOM     22  C   UNL     1       7.733  -3.102   1.551  0.00  0.00    +0.022 A 
ATOM     23  C   UNL     1       9.006  -3.179   1.014  0.00  0.00    +0.041 A 
ATOM     24  C   UNL     1       9.499  -2.138   0.245  0.00  0.00    +0.022 A 
ATOM     25  C   UNL     1       8.719  -1.024   0.008  0.00  0.00    +0.029 A 
ATOM     26 CL   UNL     1       9.986  -4.582   1.304  0.00  0.00    -0.084 Cl
ENDBRANCH   4  20
BRANCH   3  27
ATOM     27  N   UNL     1       4.493  -0.933   0.211  0.00  0.00    -0.342 N 
ATOM     28  H   UNL     1       3.535  -0.834   0.100  0.00  0.00    +0.144 HD
ATOM     29  H   UNL     1       4.876  -1.812   0.354  0.00  0.00    +0.144 HD
ENDBRANCH   3  27
BRANCH  10  30
ATOM     30  C   UNL     1       5.934   6.362  -0.548  0.00  0.00    +0.136 C 
BRANCH  30  31
ATOM     31  C   UNL     1       5.564   7.829  -0.776  0.00  0.00    +0.135 C 
ATOM     32  C   UNL     1       6.846   8.685  -0.861  0.00  0.00    +0.035 C 
ATOM     33  C   UNL     1       6.434   9.972  -0.095  0.00  0.00    +0.031 C 
ATOM     34  C   UNL     1       5.492   9.383   0.985  0.00  0.00    +0.160 C 
ATOM     35  O   UNL     1       4.791   8.312   0.328  0.00  0.00    -0.375 OA
ENDBRANCH  30  31
ENDBRANCH  10  30
TORSDOF 5
