REMARK  Name = ZINC67063629
REMARK  6 active torsions:
REMARK  status: ('A' for Active; 'I' for Inactive)
REMARK    1  A    between atoms: C_1  and  N_2
REMARK    2  A    between atoms: C_7  and  N_12
REMARK    3  A    between atoms: N_15  and  N_16
REMARK    4  A    between atoms: C_17  and  C_19
REMARK    5  A    between atoms: C_19  and  C_20
REMARK    6  A    between atoms: C_20  and  C_21
REMARK                            x       y       z     vdW  Elec       q    Type
REMARK                         _______ _______ _______ _____ _____    ______ ____
ROOT
ATOM      1  N   UNL     1      -0.906  -4.283  -1.109  0.00  0.00    -0.291 N 
ATOM      2  C   UNL     1      -0.513  -5.173  -0.178  0.00  0.00    +0.316 C 
ATOM      3  O   UNL     1       0.622  -5.137   0.258  0.00  0.00    -0.251 OA
ATOM      4  N   UNL     1      -1.377  -6.105   0.272  0.00  0.00    -0.218 N 
ATOM      5  H   UNL     1      -1.812  -4.312  -1.456  0.00  0.00    +0.151 HD
ATOM      6  H   UNL     1      -1.094  -6.746   0.942  0.00  0.00    +0.174 HD
ENDROOT
BRANCH   1  13
ATOM      7  C   UNL     1      -0.018   1.461   0.010  0.00  0.00    +0.172 C 
ATOM      8  N   UNL     1       0.002  -0.004   0.002  0.00  0.00    -0.271 N 
ATOM      9  C   UNL     1       0.008  -0.789  -1.088  0.00  0.00    +0.044 A 
ATOM     10  C   UNL     1       0.025  -2.081  -0.670  0.00  0.00    +0.013 A 
ATOM     11  C   UNL     1       0.032  -2.082   0.723  0.00  0.00    +0.140 A 
ATOM     12  N   UNL     1       0.025  -0.837   1.131  0.00  0.00    -0.179 NA
ATOM     13  C   UNL     1       0.033  -3.270  -1.598  0.00  0.00    +0.108 C 
ATOM     14  C   UNL     1      -0.395  -2.798  -2.993  0.00  0.00    +0.027 C 
ATOM     15  C   UNL     1       0.427  -1.569  -3.391  0.00  0.00    +0.008 C 
ATOM     16  C   UNL     1      -0.001  -0.369  -2.536  0.00  0.00    +0.055 C 
ENDBRANCH   1  13
BRANCH   4  17
ATOM     17  N   UNL     1      -2.684  -6.148  -0.230  0.00  0.00    -0.233 N 
ATOM     18  C   UNL     1      -3.549  -7.079   0.219  0.00  0.00    +0.229 C 
ATOM     19  O   UNL     1      -3.194  -7.881   1.058  0.00  0.00    -0.274 OA
ATOM     20  H   UNL     1      -2.968  -5.507  -0.900  0.00  0.00    +0.173 HD
BRANCH  18  21
ATOM     21  C   UNL     1      -4.955  -7.125  -0.320  0.00  0.00    +0.097 C 
BRANCH  21  22
ATOM     22  C   UNL     1      -5.721  -8.267   0.351  0.00  0.00    +0.013 C 
BRANCH  22  23
ATOM     23  C   UNL     1      -7.149  -8.313  -0.197  0.00  0.00    -0.011 C 
ATOM     24  C   UNL     1      -7.114  -8.669  -1.685  0.00  0.00    +0.003 C 
ATOM     25  C   UNL     1      -8.541  -8.715  -2.232  0.00  0.00    +0.000 C 
ATOM     26  C   UNL     1      -9.344  -9.774  -1.474  0.00  0.00    +0.000 C 
ATOM     27  C   UNL     1      -9.380  -9.418   0.013  0.00  0.00    +0.000 C 
ATOM     28  C   UNL     1      -7.952  -9.372   0.561  0.00  0.00    +0.003 C 
ENDBRANCH  22  23
ENDBRANCH  21  22
ENDBRANCH  18  21
ENDBRANCH   4  17
TORSDOF 5
