REMARK  Name = ZINC13049212
REMARK  11 active torsions:
REMARK  status: ('A' for Active; 'I' for Inactive)
REMARK    1  A    between atoms: C_1  and  C_2
REMARK    2  A    between atoms: C_3  and  C_12
REMARK    3  A    between atoms: C_12  and  C_14
REMARK    4  A    between atoms: C_14  and  C_16
REMARK    5  A    between atoms: C_14  and  S_17
REMARK    6  A    between atoms: S_17  and  C_18
REMARK    7  A    between atoms: C_22  and  C_33
REMARK    8  A    between atoms: N_28  and  C_29
REMARK    9  A    between atoms: C_29  and  C_30
REMARK   10  A    between atoms: C_30  and  C_31
REMARK   11  A    between atoms: C_30  and  C_32
REMARK                            x       y       z     vdW  Elec       q    Type
REMARK                         _______ _______ _______ _____ _____    ______ ____
ROOT
ATOM      1  C   UNL     1       0.896   3.425  -4.322  0.00  0.00    +0.173 A 
ATOM      2  N   UNL     1       0.678   4.106  -3.225  0.00  0.00    -0.223 NA
ATOM      3  C   UNL     1       0.844   5.449  -3.179  0.00  0.00    +0.080 A 
ATOM      4  C   UNL     1       0.612   6.174  -2.007  0.00  0.00    +0.043 A 
ATOM      5  C   UNL     1       0.796   7.552  -2.008  0.00  0.00    +0.065 A 
ATOM      6  C   UNL     1       1.210   8.212  -3.172  0.00  0.00    +0.016 A 
ATOM      7  C   UNL     1       1.439   7.514  -4.323  0.00  0.00    +0.016 A 
ATOM      8  C   UNL     1       1.262   6.131  -4.344  0.00  0.00    +0.065 A 
ATOM      9  C   UNL     1       1.498   5.341  -5.563  0.00  0.00    +0.262 A 
ATOM     10  O   UNL     1       1.859   5.870  -6.598  0.00  0.00    -0.267 OA
ATOM     11  N   UNL     1       1.306   4.003  -5.489  0.00  0.00    -0.287 N 
ENDROOT
BRANCH   5  12
ATOM     12  C   UNL     1       0.553   8.325  -0.772  0.00  0.00    +0.387 C 
ATOM     13  O   UNL     1       0.191   7.753   0.246  0.00  0.00    -0.241 OA
ATOM     14  O   UNL     1       0.713   9.537  -0.768  0.00  0.00    -0.241 OA
ENDBRANCH   5  12
BRANCH   1  15
ATOM     15  S   UNL     1       0.655   1.680  -4.289  0.00  0.00    -0.076 S 
BRANCH  15  16
ATOM     16  C   UNL     1       0.124   1.342  -2.588  0.00  0.00    +0.122 C 
ATOM     17  C   UNL     1      -1.231   2.007  -2.334  0.00  0.00    +0.028 C 
BRANCH  16  18
ATOM     18  C   UNL     1      -0.001  -0.146  -2.386  0.00  0.00    +0.178 C 
ATOM     19  O   UNL     1      -0.234  -0.869  -3.333  0.00  0.00    -0.291 OA
BRANCH  18  22
ATOM     20  C   UNL     1       2.708  -0.889  -1.077  0.00  0.00    +0.064 C 
ATOM     21  C   UNL     1       1.336  -1.045  -0.473  0.00  0.00    +0.024 A 
ATOM     22  C   UNL     1       0.153  -0.701  -1.091  0.00  0.00    +0.046 A 
ATOM     23  C   UNL     1      -0.921  -1.028  -0.133  0.00  0.00    +0.010 A 
ATOM     24  C   UNL     1      -2.309  -0.917  -0.162  0.00  0.00    +0.011 A 
ATOM     25  C   UNL     1      -3.048  -1.323   0.928  0.00  0.00    +0.001 A 
ATOM     26  C   UNL     1      -2.414  -1.839   2.050  0.00  0.00    +0.002 A 
ATOM     27  C   UNL     1      -1.042  -1.953   2.091  0.00  0.00    +0.026 A 
ATOM     28  C   UNL     1      -0.279  -1.549   1.000  0.00  0.00    +0.047 A 
ATOM     29  N   UNL     1       1.079  -1.547   0.749  0.00  0.00    -0.358 N 
ATOM     30  H   UNL     1       1.755  -1.861   1.370  0.00  0.00    +0.166 HD
ENDBRANCH  18  22
ENDBRANCH  16  18
ENDBRANCH  15  16
ENDBRANCH   1  15
BRANCH  11  31
ATOM     31  C   UNL     1       1.534   3.170  -6.673  0.00  0.00    +0.130 C 
BRANCH  31  32
ATOM     32  C   UNL     1       0.237   3.062  -7.478  0.00  0.00    +0.003 C 
ATOM     33  C   UNL     1       0.504   2.297  -8.775  0.00  0.00    +0.009 C 
ATOM     34  C   UNL     1      -0.815   2.316  -6.653  0.00  0.00    +0.009 C 
ENDBRANCH  31  32
ENDBRANCH  11  31
TORSDOF 7
