REMARK  Name = ZINC62179924
REMARK  11 active torsions:
REMARK  status: ('A' for Active; 'I' for Inactive)
REMARK    1  A    between atoms: C_1  and  C_2
REMARK    2  A    between atoms: C_2  and  N_3
REMARK    3  A    between atoms: N_3  and  C_4
REMARK    4  A    between atoms: N_3  and  C_7
REMARK    5  A    between atoms: C_4  and  C_5
REMARK    6  A    between atoms: C_5  and  O_6
REMARK    7  A    between atoms: C_9  and  O_23
REMARK    8  A    between atoms: C_12  and  C_22
REMARK    9  A    between atoms: C_14  and  C_21
REMARK   10  A    between atoms: C_18  and  C_19
REMARK   11  A    between atoms: C_18  and  C_20
REMARK                            x       y       z     vdW  Elec       q    Type
REMARK                         _______ _______ _______ _____ _____    ______ ____
ROOT
ATOM      1  C   UNL     1      -1.704  -0.824   0.227  0.00  0.00    +0.009 C 
ATOM      2  C   UNL     1      -2.968  -1.603  -0.144  0.00  0.00    +0.139 C 
ATOM      3  C   UNL     1      -3.828  -1.789   1.081  0.00  0.00    +0.024 A 
ATOM      4  C   UNL     1      -5.161  -2.125   0.914  0.00  0.00    -0.041 A 
ATOM      5  C   UNL     1      -5.976  -2.306   2.014  0.00  0.00    +0.007 A 
ATOM      6  C   UNL     1      -5.462  -2.154   3.288  0.00  0.00    -0.047 A 
ATOM      7  C   UNL     1      -4.135  -1.819   3.460  0.00  0.00    +0.049 A 
ATOM      8  C   UNL     1      -3.311  -1.633   2.354  0.00  0.00    +0.127 A 
ATOM      9  O   UNL     1      -2.012  -1.293   2.563  0.00  0.00    -0.487 OA
ATOM     10  C   UNL     1      -1.095  -1.462   1.481  0.00  0.00    +0.096 C 
ATOM     11  C   UNL     1      -0.856  -2.953   1.237  0.00  0.00    +0.054 C 
ATOM     12  C   UNL     1       0.231  -0.775   1.816  0.00  0.00    +0.054 C 
ATOM     13  C   UNL     1      -6.350  -2.354   4.489  0.00  0.00    +0.044 C 
ATOM     14  C   UNL     1      -5.725  -2.292  -0.473  0.00  0.00    +0.044 C 
ENDROOT
BRANCH   1  15
ATOM     15  N   UNL     1      -2.050   0.578   0.501  0.00  0.00    +0.387 N 
ATOM     16  H   UNL     1      -1.322   1.000   1.058  0.00  0.00    -0.081 HD
BRANCH  15  18
ATOM     17  C   UNL     1      -0.828   1.344  -1.478  0.00  0.00    -0.017 C 
ATOM     18  C   UNL     1      -2.182   1.307  -0.767  0.00  0.00    -0.081 C 
ENDBRANCH  15  18
BRANCH  15  19
ATOM     19  C   UNL     1      -3.322   0.634   1.234  0.00  0.00    -0.050 C 
BRANCH  19  20
ATOM     20  C   UNL     1      -3.777   2.090   1.354  0.00  0.00    +0.137 C 
BRANCH  20  21
ATOM     21  O   UNL     1      -4.270   2.540   0.090  0.00  0.00    -0.397 OA
ATOM     22  H   UNL     1      -4.506   3.478   0.072  0.00  0.00    +0.209 HD
ENDBRANCH  20  21
ENDBRANCH  19  20
ENDBRANCH  15  19
ENDBRANCH   1  15
BRANCH   2  23
ATOM     23  O   UNL     1      -3.702  -0.878  -1.133  0.00  0.00    -0.389 OA
ATOM     24  H   UNL     1      -3.260  -0.827  -1.992  0.00  0.00    +0.210 HD
ENDBRANCH   2  23
TORSDOF 6
