REMARK  Name = ZINC51113391
REMARK  6 active torsions:
REMARK  status: ('A' for Active; 'I' for Inactive)
REMARK    1  A    between atoms: C_1  and  C_2
REMARK    2  A    between atoms: C_2  and  C_17
REMARK    3  A    between atoms: C_4  and  N_6
REMARK    4  A    between atoms: C_7  and  C_9
REMARK    5  A    between atoms: C_13  and  N_15
REMARK    6  A    between atoms: N_15  and  N_16
REMARK                            x       y       z     vdW  Elec       q    Type
REMARK                         _______ _______ _______ _____ _____    ______ ____
ROOT
ATOM      1  C   UNL     1       2.925   0.517   4.000  0.00  0.00    +0.127 A 
ATOM      2  C   UNL     1       3.982   0.027   4.761  0.00  0.00    +0.033 A 
ATOM      3  C   UNL     1       4.542   0.834   5.742  0.00  0.00    +0.006 A 
ATOM      4  C   UNL     1       4.026   2.103   5.928  0.00  0.00    +0.045 A 
ATOM      5  C   UNL     1       2.966   2.533   5.131  0.00  0.00    +0.133 A 
ATOM      6  N   UNL     1       2.457   1.744   4.202  0.00  0.00    -0.226 NA
ENDROOT
BRANCH   1   8
ATOM      7  N   UNL     1       1.300   0.135   2.205  0.00  0.00    -0.307 N 
ATOM      8  C   UNL     1       2.320  -0.335   2.950  0.00  0.00    +0.263 C 
ATOM      9  O   UNL     1       2.743  -1.458   2.760  0.00  0.00    -0.269 OA
ATOM     10  H   UNL     1       0.962   1.032   2.357  0.00  0.00    +0.149 HD
BRANCH   7  14
ATOM     11  C   UNL     1      -0.019   1.526   0.010  0.00  0.00    +0.013 C 
ATOM     12  C   UNL     1       0.002  -0.004   0.002  0.00  0.00    -0.015 C 
ATOM     13  C   UNL     1      -0.825  -0.728   1.066  0.00  0.00    +0.031 C 
ATOM     14  C   UNL     1       0.701  -0.708   1.167  0.00  0.00    +0.080 C 
ATOM     15  C   UNL     1       0.102  -0.655  -1.379  0.00  0.00    +0.013 C 
ENDBRANCH   7  14
ENDBRANCH   1   8
BRANCH   5  16
ATOM     16  N   UNL     1       2.442   3.808   5.312  0.00  0.00    -0.268 N 
ATOM     17  H   UNL     1       2.814   4.393   5.991  0.00  0.00    +0.167 HD
BRANCH  16  18
ATOM     18  N   UNL     1       1.403   4.236   4.536  0.00  0.00    -0.255 NA
ATOM     19  H   UNL     1       0.619   3.605   4.600  0.00  0.00    +0.140 HD
ATOM     20  H   UNL     1       1.132   5.176   4.781  0.00  0.00    +0.140 HD
ENDBRANCH  16  18
ENDBRANCH   5  16
TORSDOF 4
