REMARK  Name = ZINC53363603
REMARK  6 active torsions:
REMARK  status: ('A' for Active; 'I' for Inactive)
REMARK    1  A    between atoms: C_1  and  O_2
REMARK    2  A    between atoms: O_2  and  C_3
REMARK    3  A    between atoms: C_7  and  C_10
REMARK    4  A    between atoms: C_8  and  O_9
REMARK    5  A    between atoms: C_13  and  C_25
REMARK    6  A    between atoms: C_15  and  C_18
REMARK                            x       y       z     vdW  Elec       q    Type
REMARK                         _______ _______ _______ _____ _____    ______ ____
ROOT
ATOM      1  C   UNL     1      -2.549  -4.175   0.017  0.00  0.00    +0.095 C 
ATOM      2  C   UNL     1      -2.451  -4.697   1.453  0.00  0.00    +0.079 C 
ATOM      3  C   UNL     1      -2.829  -6.152   1.485  0.00  0.00    +0.047 C 
ATOM      4  N   UNL     1      -3.444  -6.735   0.526  0.00  0.00    -0.264 NA
ATOM      5  C   UNL     1      -3.844  -6.076  -0.711  0.00  0.00    +0.204 C 
ATOM      6  N   UNL     1      -3.836  -4.617  -0.547  0.00  0.00    -0.284 NA
ATOM      7  H   UNL     1      -4.607  -4.315   0.030  0.00  0.00    +0.125 HD
ENDROOT
BRANCH   5   8
ATOM      8  C   UNL     1      -5.232  -6.526  -1.087  0.00  0.00    -0.009 A 
ATOM      9  C   UNL     1      -6.066  -5.677  -1.790  0.00  0.00    +0.008 A 
ATOM     10  C   UNL     1      -7.340  -6.089  -2.136  0.00  0.00    +0.020 A 
ATOM     11  C   UNL     1      -7.779  -7.351  -1.778  0.00  0.00    +0.041 A 
ATOM     12  C   UNL     1      -6.943  -8.200  -1.074  0.00  0.00    +0.020 A 
ATOM     13  C   UNL     1      -5.668  -7.789  -0.734  0.00  0.00    +0.008 A 
ATOM     14 CL   UNL     1      -9.378  -7.869  -2.211  0.00  0.00    -0.084 Cl
ENDBRANCH   5   8
BRANCH   3  15
ATOM     15  C   UNL     1      -2.474  -6.945   2.678  0.00  0.00    -0.004 A 
ATOM     16  C   UNL     1      -1.808  -6.342   3.748  0.00  0.00    +0.011 A 
ATOM     17  C   UNL     1      -1.479  -7.088   4.860  0.00  0.00    +0.020 A 
ATOM     18  C   UNL     1      -1.809  -8.432   4.918  0.00  0.00    +0.041 A 
ATOM     19  C   UNL     1      -2.469  -9.036   3.861  0.00  0.00    +0.020 A 
ATOM     20  C   UNL     1      -2.808  -8.299   2.745  0.00  0.00    +0.011 A 
ATOM     21 CL   UNL     1      -1.392  -9.365   6.322  0.00  0.00    -0.084 Cl
ENDBRANCH   3  15
BRANCH   1  26
ATOM     22  C   UNL     1      -1.201  -0.638   0.010  0.00  0.00    +0.162 A 
ATOM     23  C   UNL     1      -2.374   0.099   0.019  0.00  0.00    +0.049 A 
ATOM     24  C   UNL     1      -3.596  -0.546   0.027  0.00  0.00    +0.004 A 
ATOM     25  C   UNL     1      -3.652  -1.928   0.026  0.00  0.00    +0.009 A 
ATOM     26  C   UNL     1      -2.485  -2.669   0.017  0.00  0.00    +0.015 A 
ATOM     27  C   UNL     1      -1.257  -2.028   0.003  0.00  0.00    +0.163 A 
BRANCH  22  29
ATOM     28  C   UNL     1      -0.017   1.425   0.010  0.00  0.00    +0.277 C 
ATOM     29  O   UNL     1       0.002  -0.004   0.002  0.00  0.00    -0.491 OA
ENDBRANCH  22  29
BRANCH  27  30
ATOM     30  O   UNL     1      -0.108  -2.756  -0.012  0.00  0.00    -0.503 OA
ATOM     31  H   UNL     1       0.232  -2.972   0.867  0.00  0.00    +0.292 HD
ENDBRANCH  27  30
ENDBRANCH   1  26
TORSDOF 5
