REMARK  Name = ZINC54903902
REMARK  8 active torsions:
REMARK  status: ('A' for Active; 'I' for Inactive)
REMARK    1  A    between atoms: C_4  and  C_25
REMARK    2  A    between atoms: C_5  and  C_7
REMARK    3  A    between atoms: C_7  and  C_8
REMARK    4  A    between atoms: C_8  and  N_9
REMARK    5  A    between atoms: C_10  and  C_12
REMARK    6  A    between atoms: N_14  and  C_15
REMARK    7  A    between atoms: C_18  and  C_21
REMARK    8  A    between atoms: C_21  and  C_22
REMARK                            x       y       z     vdW  Elec       q    Type
REMARK                         _______ _______ _______ _____ _____    ______ ____
ROOT
ATOM      1  N   UNL     1       1.401  -4.167   1.404  0.00  0.00    -0.307 N 
ATOM      2  C   UNL     1       1.526  -4.846   2.561  0.00  0.00    +0.299 C 
ATOM      3  O   UNL     1       1.629  -4.244   3.610  0.00  0.00    -0.265 OA
ATOM      4  H   UNL     1       1.319  -4.648   0.565  0.00  0.00    +0.149 HD
ENDROOT
BRANCH   2   5
ATOM      5  C   UNL     1       1.538  -6.339   2.553  0.00  0.00    +0.303 C 
ATOM      6  O   UNL     1       1.435  -6.941   1.504  0.00  0.00    -0.265 OA
ATOM      7  N   UNL     1       1.663  -7.018   3.711  0.00  0.00    -0.278 N 
ATOM      8  H   UNL     1       1.812  -6.539   4.540  0.00  0.00    +0.155 HD
BRANCH   7   9
ATOM      9  C   UNL     1       1.577  -8.413   3.715  0.00  0.00    +0.034 A 
ATOM     10  C   UNL     1       0.987  -9.071   4.787  0.00  0.00    +0.023 A 
ATOM     11  C   UNL     1       0.903 -10.449   4.788  0.00  0.00    +0.006 A 
ATOM     12  C   UNL     1       1.407 -11.175   3.724  0.00  0.00    -0.039 A 
ATOM     13  C   UNL     1       1.996 -10.523   2.656  0.00  0.00    +0.006 A 
ATOM     14  C   UNL     1       2.077  -9.145   2.645  0.00  0.00    +0.023 A 
BRANCH  12  15
ATOM     15  C   UNL     1       1.315 -12.679   3.729  0.00  0.00    +0.130 C 
BRANCH  15  16
ATOM     16  C   UNL     1       0.022 -13.105   3.082  0.00  0.00    +0.215 C 
ATOM     17  O   UNL     1      -0.748 -12.269   2.658  0.00  0.00    -0.276 OA
ATOM     18  N   UNL     1      -0.278 -14.414   2.974  0.00  0.00    -0.329 N 
ATOM     19  H   UNL     1       0.338 -15.083   3.312  0.00  0.00    +0.145 HD
ATOM     20  H   UNL     1      -1.110 -14.688   2.557  0.00  0.00    +0.145 HD
ENDBRANCH  15  16
ENDBRANCH  12  15
ENDBRANCH   7   9
ENDBRANCH   2   5
BRANCH   1  21
ATOM     21  C   UNL     1       1.390  -2.702   1.411  0.00  0.00    +0.109 C 
BRANCH  21  22
ATOM     22  C   UNL     1       1.238  -2.185  -0.021  0.00  0.00    +0.054 C 
BRANCH  22  27
ATOM     23  C   UNL     1       0.013   1.386   0.014  0.00  0.00    +0.000 A 
ATOM     24  C   UNL     1       1.204   2.086  -0.000  0.00  0.00    +0.001 A 
ATOM     25  C   UNL     1       2.407   1.405  -0.021  0.00  0.00    +0.012 A 
ATOM     26  C   UNL     1       2.417   0.022  -0.027  0.00  0.00    +0.058 A 
ATOM     27  C   UNL     1       1.226  -0.678  -0.013  0.00  0.00    -0.034 A 
ATOM     28  C   UNL     1       0.024   0.004   0.007  0.00  0.00    +0.004 A 
BRANCH  26  29
ATOM     29  C   UNL     1       3.728  -0.721  -0.051  0.00  0.00    +0.418 C 
ATOM     30  F   UNL     1       4.784   0.197  -0.063  0.00  0.00    -0.166 F 
ATOM     31  F   UNL     1       3.826  -1.530   1.086  0.00  0.00    -0.166 F 
ATOM     32  F   UNL     1       3.791  -1.520  -1.198  0.00  0.00    -0.166 F 
ENDBRANCH  26  29
ENDBRANCH  22  27
ENDBRANCH  21  22
ENDBRANCH   1  21
TORSDOF 8
