REMARK  Name = ZINC66847054
REMARK  5 active torsions:
REMARK  status: ('A' for Active; 'I' for Inactive)
REMARK    1  A    between atoms: C_1  and  C_2
REMARK    2  A    between atoms: C_2  and  C_4
REMARK    3  A    between atoms: C_2  and  N_11
REMARK    4  A    between atoms: N_9  and  C_10
REMARK    5  A    between atoms: C_15  and  C_18
REMARK                            x       y       z     vdW  Elec       q    Type
REMARK                         _______ _______ _______ _____ _____    ______ ____
ROOT
ATOM      1  N   UNL     1       0.469  -0.564  -1.273  0.00  0.00    -0.287 NA
ATOM      2  C   UNL     1       0.266  -2.020  -1.315  0.00  0.00    +0.113 C 
ATOM      3  C   UNL     1       0.710  -2.552  -2.680  0.00  0.00    +0.176 C 
ATOM      4  O   UNL     1       2.075  -2.189  -2.907  0.00  0.00    -0.369 OA
ATOM      5  C   UNL     1       2.308  -0.779  -2.873  0.00  0.00    +0.165 C 
ATOM      6  C   UNL     1       1.881  -0.229  -1.510  0.00  0.00    +0.121 C 
ENDROOT
BRANCH   5   7
ATOM      7  C   UNL     1       3.775  -0.507  -3.089  0.00  0.00    +0.018 A 
ATOM      8  C   UNL     1       4.711  -1.475  -2.777  0.00  0.00    +0.009 A 
ATOM      9  C   UNL     1       6.056  -1.226  -2.974  0.00  0.00    +0.001 A 
ATOM     10  C   UNL     1       6.467  -0.008  -3.486  0.00  0.00    +0.003 A 
ATOM     11  C   UNL     1       5.533   0.961  -3.799  0.00  0.00    +0.039 A 
ATOM     12  C   UNL     1       4.185   0.710  -3.606  0.00  0.00    +0.129 A 
ATOM     13  F   UNL     1       3.270   1.655  -3.917  0.00  0.00    -0.205 F 
ENDBRANCH   5   7
BRANCH   1  15
ATOM     14  C   UNL     1       1.015  -0.326   1.102  0.00  0.00    +0.034 C 
ATOM     15  C   UNL     1       0.002  -0.004   0.002  0.00  0.00    +0.141 C 
BRANCH  15  16
ATOM     16  C   UNL     1      -0.140   1.491  -0.128  0.00  0.00    +0.237 C 
ATOM     17  O   UNL     1       0.368   2.069  -1.065  0.00  0.00    -0.274 OA
ATOM     18  N   UNL     1      -0.832   2.185   0.797  0.00  0.00    -0.239 N 
ATOM     19  C   UNL     1      -0.959   3.521   0.681  0.00  0.00    +0.306 C 
ATOM     20  O   UNL     1      -0.450   4.101  -0.258  0.00  0.00    -0.252 OA
ATOM     21  N   UNL     1      -1.651   4.216   1.606  0.00  0.00    -0.302 N 
ATOM     22  C   UNL     1      -1.789   5.669   1.480  0.00  0.00    +0.129 C 
ATOM     23  H   UNL     1      -1.238   1.722   1.547  0.00  0.00    +0.159 HD
ATOM     24  H   UNL     1      -2.057   3.753   2.356  0.00  0.00    +0.150 HD
ENDBRANCH  15  16
ENDBRANCH   1  15
TORSDOF 3
