REMARK  Name = ZINC27802079
REMARK  8 active torsions:
REMARK  status: ('A' for Active; 'I' for Inactive)
REMARK    1  A    between atoms: C_1  and  C_2
REMARK    2  A    between atoms: C_5  and  S_9
REMARK    3  A    between atoms: C_6  and  C_8
REMARK    4  A    between atoms: S_9  and  N_12
REMARK    5  A    between atoms: N_12  and  C_13
REMARK    6  A    between atoms: C_16  and  N_19
REMARK    7  A    between atoms: N_22  and  C_23
REMARK    8  A    between atoms: C_23  and  C_24
REMARK                            x       y       z     vdW  Elec       q    Type
REMARK                         _______ _______ _______ _____ _____    ______ ____
ROOT
ATOM      1  C   UNL     1      -0.961   3.328  -1.577  0.00  0.00    +0.048 A 
ATOM      2  C   UNL     1      -1.516   4.038  -0.521  0.00  0.00    +0.026 A 
ATOM      3  C   UNL     1      -1.817   5.378  -0.673  0.00  0.00    +0.025 A 
ATOM      4  C   UNL     1      -1.575   6.010  -1.885  0.00  0.00    +0.035 A 
ATOM      5  C   UNL     1      -1.024   5.298  -2.942  0.00  0.00    +0.025 A 
ATOM      6  C   UNL     1      -0.718   3.961  -2.789  0.00  0.00    +0.026 A 
ENDROOT
BRANCH   4   7
ATOM      7  N   UNL     1      -1.886   7.368  -2.041  0.00  0.00    -0.269 N 
ATOM      8  C   UNL     1      -2.325   7.827  -3.230  0.00  0.00    +0.304 C 
ATOM      9  O   UNL     1      -2.540   7.049  -4.140  0.00  0.00    -0.252 OA
ATOM     10  N   UNL     1      -2.525   9.147  -3.411  0.00  0.00    -0.292 N 
ATOM     11  H   UNL     1      -1.772   8.060  -1.193  0.00  0.00    +0.156 HD
ATOM     12  H   UNL     1      -2.330   9.851  -2.588  0.00  0.00    +0.151 HD
BRANCH  10  13
ATOM     13  C   UNL     1      -3.002   9.646  -4.703  0.00  0.00    +0.180 C 
BRANCH  13  14
ATOM     14  C   UNL     1      -3.143  11.145  -4.643  0.00  0.00    +0.122 A 
ATOM     15  C   UNL     1      -2.184  12.038  -4.949  0.00  0.00    +0.046 A 
ATOM     16  C   UNL     1      -2.743  13.322  -4.753  0.00  0.00    +0.041 A 
ATOM     17  C   UNL     1      -4.009  13.137  -4.338  0.00  0.00    +0.195 A 
ATOM     18  O   UNL     1      -4.247  11.816  -4.279  0.00  0.00    -0.466 OA
ENDBRANCH  13  14
ENDBRANCH  10  13
ENDBRANCH   4   7
BRANCH   1  19
ATOM     19  N   UNL     1      -0.650   1.972  -1.421  0.00  0.00    -0.216 N 
ATOM     20  H   UNL     1      -0.935   1.250  -2.200  0.00  0.00    +0.174 HD
BRANCH  19  21
ATOM     21  S   UNL     1       0.146   1.456  -0.064  0.00  0.00    +0.073 S 
ATOM     22  O   UNL     1      -0.556   1.994   1.048  0.00  0.00    -0.150 OA
ATOM     23  O   UNL     1       0.361   0.060  -0.226  0.00  0.00    -0.150 OA
BRANCH  21  28
ATOM     24  C   UNL     1       5.591   4.055  -0.090  0.00  0.00    +0.044 C 
ATOM     25  C   UNL     1       4.231   3.406  -0.084  0.00  0.00    -0.050 A 
ATOM     26  C   UNL     1       3.339   3.680   0.936  0.00  0.00    +0.005 A 
ATOM     27  C   UNL     1       2.092   3.085   0.942  0.00  0.00    +0.029 A 
ATOM     28  C   UNL     1       1.736   2.215  -0.072  0.00  0.00    +0.111 A 
ATOM     29  C   UNL     1       2.630   1.937  -1.089  0.00  0.00    -0.024 A 
ATOM     30  C   UNL     1       3.876   2.536  -1.098  0.00  0.00    +0.008 A 
ATOM     31  C   UNL     1       2.244   0.984  -2.191  0.00  0.00    +0.046 C 
ENDBRANCH  21  28
ENDBRANCH  19  21
ENDBRANCH   1  19
TORSDOF 6
