REMARK  Name = ZINC04866364
REMARK  9 active torsions:
REMARK  status: ('A' for Active; 'I' for Inactive)
REMARK    1  A    between atoms: C_1  and  C_2
REMARK    2  A    between atoms: C_2  and  O_3
REMARK    3  A    between atoms: O_3  and  C_4
REMARK    4  A    between atoms: C_7  and  C_13
REMARK    5  A    between atoms: C_8  and  O_10
REMARK    6  A    between atoms: O_10  and  C_11
REMARK    7  A    between atoms: C_11  and  C_12
REMARK    8  A    between atoms: N_14  and  N_15
REMARK    9  A    between atoms: C_16  and  C_17
REMARK                            x       y       z     vdW  Elec       q    Type
REMARK                         _______ _______ _______ _____ _____    ______ ____
ROOT
ATOM      1  C   UNL     1      -1.656  -6.331   1.312  0.00  0.00    +0.144 C 
ATOM      2  N   UNL     1      -0.635  -6.972   0.803  0.00  0.00    -0.180 NA
ENDROOT
BRANCH   1   6
ATOM      3  C   UNL     1      -1.277  -2.241   2.377  0.00  0.00    +0.124 A 
ATOM      4  C   UNL     1      -0.165  -2.952   1.939  0.00  0.00    +0.046 A 
ATOM      5  C   UNL     1      -0.282  -4.279   1.592  0.00  0.00    +0.016 A 
ATOM      6  C   UNL     1      -1.525  -4.916   1.681  0.00  0.00    +0.037 A 
ATOM      7  C   UNL     1      -2.647  -4.196   2.125  0.00  0.00    +0.133 A 
ATOM      8  C   UNL     1      -2.513  -2.864   2.475  0.00  0.00    +0.092 A 
BRANCH   3   9
ATOM      9  O   UNL     1      -1.152  -0.932   2.717  0.00  0.00    -0.492 OA
BRANCH   9  11
ATOM     10  C   UNL     1       0.092   1.118   3.017  0.00  0.00    +0.048 C 
ATOM     11  C   UNL     1       0.148  -0.351   2.593  0.00  0.00    +0.225 C 
ENDBRANCH   9  11
ENDBRANCH   3   9
BRANCH   7  12
ATOM     12  O   UNL     1      -3.856  -4.806   2.214  0.00  0.00    -0.491 OA
BRANCH  12  13
ATOM     13  C   UNL     1      -4.969  -3.988   2.581  0.00  0.00    +0.226 C 
ATOM     14  C   UNL     1      -6.225  -4.856   2.692  0.00  0.00    +0.048 C 
ENDBRANCH  12  13
ENDBRANCH   7  12
ENDBRANCH   1   6
BRANCH   2  15
ATOM     15  N   UNL     1      -0.777  -8.184   0.387  0.00  0.00    -0.263 N 
ATOM     16  C   UNL     1       0.269  -8.862  -0.032  0.00  0.00    +0.143 C 
ATOM     17  N   UNL     1       0.106 -10.130  -0.554  0.00  0.00    -0.342 N 
ATOM     18  H   UNL     1      -0.785 -10.475  -0.721  0.00  0.00    +0.144 HD
ATOM     19  H   UNL     1       0.883 -10.675  -0.755  0.00  0.00    +0.144 HD
ATOM     20  H   UNL     1      -1.655  -8.597   0.384  0.00  0.00    +0.190 HD
BRANCH  16  21
ATOM     21  C   UNL     1       1.617  -8.267   0.054  0.00  0.00    +0.187 A 
ATOM     22  C   UNL     1       2.786  -8.663  -0.742  0.00  0.00    +0.191 A 
ATOM     23  N   UNL     1       3.795  -7.915  -0.388  0.00  0.00    -0.033 NA
ATOM     24  O   UNL     1       3.349  -7.027   0.621  0.00  0.00    -0.240 OA
ATOM     25  N   UNL     1       1.976  -7.291   0.851  0.00  0.00    -0.044 NA
ATOM     26  N   UNL     1       2.813  -9.661  -1.706  0.00  0.00    -0.339 N 
ATOM     27  H   UNL     1       1.989 -10.093  -1.980  0.00  0.00    +0.144 HD
ATOM     28  H   UNL     1       3.655  -9.926  -2.107  0.00  0.00    +0.144 HD
ENDBRANCH  16  21
ENDBRANCH   2  15
TORSDOF 7
