REMARK  Name = ZINC51106178
REMARK  8 active torsions:
REMARK  status: ('A' for Active; 'I' for Inactive)
REMARK    1  A    between atoms: C_1  and  C_2
REMARK    2  A    between atoms: C_3  and  C_28
REMARK    3  A    between atoms: N_4  and  C_23
REMARK    4  A    between atoms: C_5  and  N_9
REMARK    5  A    between atoms: C_6  and  C_7
REMARK    6  A    between atoms: C_10  and  C_12
REMARK    7  A    between atoms: C_12  and  N_13
REMARK    8  A    between atoms: C_17  and  C_20
REMARK                            x       y       z     vdW  Elec       q    Type
REMARK                         _______ _______ _______ _____ _____    ______ ____
ROOT
ATOM      1  N   UNL     1       0.063  -3.334   1.433  0.00  0.00    -0.270 N 
ATOM      2  C   UNL     1      -0.513  -3.353   2.651  0.00  0.00    +0.232 C 
ATOM      3  O   UNL     1      -1.121  -2.382   3.050  0.00  0.00    -0.274 OA
ATOM      4  H   UNL     1       0.474  -4.138   1.078  0.00  0.00    +0.156 HD
ENDROOT
BRANCH   1   9
ATOM      5  C   UNL     1       0.090   1.524   0.041  0.00  0.00    +0.047 C 
ATOM      6  C   UNL     1       0.079   0.017   0.024  0.00  0.00    -0.011 A 
ATOM      7  C   UNL     1       0.068  -0.772  -1.063  0.00  0.00    +0.022 A 
ATOM      8  N   UNL     1       0.060  -2.084  -0.670  0.00  0.00    -0.329 N 
ATOM      9  C   UNL     1       0.067  -2.166   0.685  0.00  0.00    +0.124 A 
ATOM     10  C   UNL     1       0.084  -0.873   1.191  0.00  0.00    +0.095 A 
ATOM     11  C   UNL     1       0.063  -0.290  -2.491  0.00  0.00    +0.064 C 
BRANCH   8  12
ATOM     12  C   UNL     1       0.047  -3.232  -1.580  0.00  0.00    +0.089 C 
ATOM     13  C   UNL     1      -1.103  -4.190  -1.205  0.00  0.00    +0.025 C 
ATOM     14  C   UNL     1      -0.517  -5.602  -1.452  0.00  0.00    +0.002 C 
ATOM     15  C   UNL     1       0.950  -5.452  -0.978  0.00  0.00    +0.002 C 
ATOM     16  C   UNL     1       1.352  -4.034  -1.436  0.00  0.00    +0.025 C 
ENDBRANCH   8  12
BRANCH  10  17
ATOM     17  C   UNL     1       0.102  -0.487   2.570  0.00  0.00    +0.103 C 
ATOM     18  N   UNL     1       0.115  -0.180   3.663  0.00  0.00    -0.191 NA
ENDBRANCH  10  17
ENDBRANCH   1   9
BRANCH   2  19
ATOM     19  C   UNL     1      -0.401  -4.580   3.519  0.00  0.00    +0.181 C 
BRANCH  19  20
ATOM     20  N   UNL     1      -1.005  -4.310   4.830  0.00  0.00    -0.289 NA
ATOM     21  C   UNL     1      -2.470  -4.230   4.730  0.00  0.00    +0.113 C 
ATOM     22  C   UNL     1      -3.052  -3.888   6.104  0.00  0.00    +0.176 C 
ATOM     23  O   UNL     1      -2.627  -4.869   7.053  0.00  0.00    -0.365 OA
ATOM     24  C   UNL     1      -1.206  -4.973   7.177  0.00  0.00    +0.217 C 
ATOM     25  C   UNL     1      -0.605  -5.326   5.814  0.00  0.00    +0.126 C 
BRANCH  24  26
ATOM     26  C   UNL     1      -0.866  -6.052   8.173  0.00  0.00    +0.241 C 
ATOM     27  O   UNL     1      -1.746  -6.733   8.655  0.00  0.00    -0.273 OA
ATOM     28  N   UNL     1       0.418  -6.261   8.528  0.00  0.00    -0.327 N 
ATOM     29  H   UNL     1       1.122  -5.716   8.142  0.00  0.00    +0.145 HD
ATOM     30  H   UNL     1       0.637  -6.955   9.168  0.00  0.00    +0.145 HD
ENDBRANCH  24  26
ENDBRANCH  19  20
ENDBRANCH   2  19
TORSDOF 6
