REMARK  Name = ZINC04971769
REMARK  5 active torsions:
REMARK  status: ('A' for Active; 'I' for Inactive)
REMARK    1  A    between atoms: C_1  and  C_2
REMARK    2  A    between atoms: C_8  and  C_9
REMARK    3  A    between atoms: C_8  and  N_58
REMARK    4  A    between atoms: C_9  and  N_10
REMARK    5  A    between atoms: C_11  and  C_13
REMARK                            x       y       z     vdW  Elec       q    Type
REMARK                         _______ _______ _______ _____ _____    ______ ____
ROOT
ATOM      1  C   UNL     1      -8.398   0.220   0.881  0.00  0.00    +0.080 A 
ATOM      2  C   UNL     1      -9.238  -0.138  -0.168  0.00  0.00    +0.018 A 
ATOM      3  C   UNL     1      -8.701  -0.286  -1.448  0.00  0.00    +0.019 A 
ATOM      4  C   UNL     1      -7.386  -0.088  -1.683  0.00  0.00    +0.096 A 
ATOM      5  N   UNL     1      -6.520   0.264  -0.688  0.00  0.00    -0.267 N 
ATOM      6  C   UNL     1      -6.976   0.427   0.595  0.00  0.00    +0.154 A 
ATOM      7  N   UNL     1      -6.151   0.768   1.573  0.00  0.00    -0.221 NA
ATOM      8  C   UNL     1      -4.863   0.957   1.339  0.00  0.00    +0.116 A 
ATOM      9  C   UNL     1      -4.307   0.812   0.053  0.00  0.00    +0.076 A 
ATOM     10  C   UNL     1      -5.218   0.448  -0.984  0.00  0.00    +0.267 A 
ATOM     11  O   UNL     1      -4.821   0.303  -2.127  0.00  0.00    -0.267 OA
ATOM     12  C   UNL     1      -2.866   1.054  -0.049  0.00  0.00    -0.023 A 
ATOM     13  C   UNL     1      -2.219   1.387   1.086  0.00  0.00    -0.004 A 
ATOM     14  S   UNL     1      -3.469   1.403   2.343  0.00  0.00    -0.073 S 
ATOM     15  C   UNL     1      -0.755   1.681   1.247  0.00  0.00    +0.043 C 
ATOM     16  C   UNL     1      -0.025   1.183  -0.009  0.00  0.00    +0.005 C 
ATOM     17  C   UNL     1      -0.780   1.677  -1.247  0.00  0.00    +0.005 C 
ATOM     18  C   UNL     1      -2.113   0.937  -1.371  0.00  0.00    +0.037 C 
ENDROOT
BRANCH   1  20
ATOM     19  N   UNL     1      -8.080   0.616   3.271  0.00  0.00    -0.313 N 
ATOM     20  C   UNL     1      -8.924   0.386   2.246  0.00  0.00    +0.248 C 
ATOM     21  O   UNL     1     -10.121   0.315   2.449  0.00  0.00    -0.270 OA
ATOM     22  H   UNL     1      -7.134   0.747   3.100  0.00  0.00    +0.149 HD
BRANCH  19  23
ATOM     23  C   UNL     1      -8.590   0.671   4.643  0.00  0.00    +0.086 C 
BRANCH  23  24
ATOM     24  C   UNL     1      -7.434   0.944   5.607  0.00  0.00    -0.059 C 
BRANCH  24  31
ATOM     25  C   UNL     1      -8.421   3.374   6.627  0.00  0.00    -0.013 C 
ATOM     26  C   UNL     1      -8.975   2.036   7.120  0.00  0.00    -0.072 C 
ATOM     27  C   UNL     1      -9.380   2.163   8.591  0.00  0.00    -0.016 C 
ATOM     28  C   UNL     1      -9.916   0.817   9.086  0.00  0.00    -0.003 C 
ATOM     29  C   UNL     1      -8.841  -0.256   8.887  0.00  0.00    -0.019 C 
ATOM     30  C   UNL     1      -8.452  -0.313   7.408  0.00  0.00    -0.078 C 
ATOM     31  N   UNL     1      -7.922   1.006   7.000  0.00  0.00    +0.382 N 
ATOM     32  H   UNL     1      -7.140   1.255   7.617  0.00  0.00    -0.081 HD
ENDBRANCH  24  31
ENDBRANCH  23  24
ENDBRANCH  19  23
ENDBRANCH   1  20
TORSDOF 4
