REMARK  Name = ZINC39664368
REMARK  7 active torsions:
REMARK  status: ('A' for Active; 'I' for Inactive)
REMARK    1  A    between atoms: C_1  and  C_2
REMARK    2  A    between atoms: C_4  and  C_9
REMARK    3  A    between atoms: C_13  and  C_22
REMARK    4  A    between atoms: N_24  and  C_25
REMARK    5  A    between atoms: C_25  and  C_26
REMARK    6  A    between atoms: C_26  and  C_28
REMARK    7  A    between atoms: C_26  and  N_34
REMARK                            x       y       z     vdW  Elec       q    Type
REMARK                         _______ _______ _______ _____ _____    ______ ____
ROOT
ATOM      1  C   UNL     1       0.161  -2.956  -2.545  0.00  0.00    +0.247 C 
ATOM      2  O   UNL     1       0.036  -2.347  -3.590  0.00  0.00    -0.270 OA
ATOM      3  N   UNL     1       0.241  -4.301  -2.555  0.00  0.00    -0.296 N 
ATOM      4  C   UNL     1       0.263  -5.218  -1.391  0.00  0.00    +0.121 C 
ATOM      5  C   UNL     1      -0.603  -6.422  -1.826  0.00  0.00    +0.100 C 
ATOM      6  C   UNL     1      -0.555  -6.404  -3.364  0.00  0.00    -0.004 C 
ATOM      7  C   UNL     1       0.321  -5.198  -3.733  0.00  0.00    +0.115 C 
ATOM      8  C   UNL     1       0.071  -7.693  -3.887  0.00  0.00    -0.010 C 
ATOM      9  C   UNL     1       0.055  -7.678  -5.418  0.00  0.00    -0.082 C 
ATOM     10  N   UNL     1      -1.328  -7.553  -5.894  0.00  0.00    +0.379 N 
ATOM     11  C   UNL     1      -1.892  -6.268  -5.463  0.00  0.00    -0.082 C 
ATOM     12  C   UNL     1      -1.958  -6.224  -3.934  0.00  0.00    -0.010 C 
ATOM     13  H   UNL     1      -1.342  -7.604  -6.902  0.00  0.00    -0.086 HD
ATOM     14  H   UNL     1      -1.882  -8.306  -5.514  0.00  0.00    -0.086 HD
ENDROOT
BRANCH   1  18
ATOM     15  C   UNL     1      -0.897   1.100   0.159  0.00  0.00    +0.047 C 
ATOM     16  C   UNL     1      -0.282  -0.271   0.040  0.00  0.00    -0.015 A 
ATOM     17  C   UNL     1      -0.345  -0.952  -1.157  0.00  0.00    +0.019 A 
ATOM     18  C   UNL     1       0.226  -2.221  -1.265  0.00  0.00    +0.037 A 
ATOM     19  C   UNL     1       0.857  -2.795  -0.159  0.00  0.00    +0.016 A 
ATOM     20  C   UNL     1       0.914  -2.105   1.032  0.00  0.00    +0.039 A 
ATOM     21  C   UNL     1       0.351  -0.842   1.133  0.00  0.00    +0.126 A 
ATOM     22  F   UNL     1       0.414  -0.168   2.303  0.00  0.00    -0.205 F 
ENDBRANCH   1  18
BRANCH   5  23
ATOM     23  C   UNL     1      -2.020  -6.252  -1.342  0.00  0.00    +0.218 C 
ATOM     24  O   UNL     1      -2.516  -5.146  -1.294  0.00  0.00    -0.275 OA
ATOM     25  N   UNL     1      -2.736  -7.328  -0.961  0.00  0.00    -0.313 N 
ATOM     26  H   UNL     1      -2.339  -8.213  -0.999  0.00  0.00    +0.149 HD
BRANCH  25  27
ATOM     27  C   UNL     1      -4.113  -7.163  -0.490  0.00  0.00    +0.127 C 
BRANCH  27  28
ATOM     28  C   UNL     1      -4.694  -8.530  -0.123  0.00  0.00    +0.104 C 
BRANCH  28  29
ATOM     29  C   UNL     1      -6.147  -8.376   0.244  0.00  0.00    -0.029 A 
ATOM     30  C   UNL     1      -6.748  -9.291   1.089  0.00  0.00    +0.005 A 
ATOM     31  C   UNL     1      -8.081  -9.150   1.426  0.00  0.00    +0.000 A 
ATOM     32  C   UNL     1      -8.814  -8.093   0.918  0.00  0.00    +0.000 A 
ATOM     33  C   UNL     1      -8.213  -7.178   0.075  0.00  0.00    +0.000 A 
ATOM     34  C   UNL     1      -6.879  -7.317  -0.259  0.00  0.00    +0.005 A 
ENDBRANCH  28  29
BRANCH  28  35
ATOM     35  N   UNL     1      -4.573  -9.438  -1.272  0.00  0.00    -0.290 NA
ATOM     36  C   UNL     1      -5.241  -8.880  -2.457  0.00  0.00    +0.113 C 
ATOM     37  C   UNL     1      -5.039  -9.827  -3.643  0.00  0.00    +0.175 C 
ATOM     38  O   UNL     1      -5.537 -11.123  -3.301  0.00  0.00    -0.377 OA
ATOM     39  C   UNL     1      -4.908 -11.697  -2.152  0.00  0.00    +0.175 C 
ATOM     40  C   UNL     1      -5.108 -10.769  -0.951  0.00  0.00    +0.113 C 
ENDBRANCH  28  35
ENDBRANCH  27  28
ENDBRANCH  25  27
ENDBRANCH   5  23
TORSDOF 6
