REMARK  Name = ZINC39961166
REMARK  10 active torsions:
REMARK  status: ('A' for Active; 'I' for Inactive)
REMARK    1  A    between atoms: C_1  and  C_2
REMARK    2  A    between atoms: C_2  and  O_3
REMARK    3  A    between atoms: O_3  and  C_4
REMARK    4  A    between atoms: C_4  and  C_6
REMARK    5  A    between atoms: C_8  and  C_27
REMARK    6  A    between atoms: C_11  and  N_14
REMARK    7  A    between atoms: C_15  and  C_17
REMARK    8  A    between atoms: C_17  and  S_18
REMARK    9  A    between atoms: S_18  and  C_19
REMARK   10  A    between atoms: C_24  and  C_26
REMARK                            x       y       z     vdW  Elec       q    Type
REMARK                         _______ _______ _______ _____ _____    ______ ____
ROOT
ATOM      1  C   UNL     1      -2.945  -2.362   0.187  0.00  0.00    +0.179 C 
ATOM      2  C   UNL     1      -2.875  -3.830   0.662  0.00  0.00    +0.110 C 
ATOM      3  N   UNL     1      -3.091  -4.809  -0.406  0.00  0.00    -0.282 NA
ATOM      4  C   UNL     1      -4.036  -4.313  -1.450  0.00  0.00    +0.203 C 
ATOM      5  S   UNL     1      -3.462  -2.559  -1.572  0.00  0.00    -0.106 S 
ATOM      6  H   UNL     1      -2.215  -5.095  -0.818  0.00  0.00    +0.125 HD
ENDROOT
BRANCH   2   7
ATOM      7  C   UNL     1      -1.517  -4.076   1.267  0.00  0.00    -0.029 A 
ATOM      8  C   UNL     1      -0.438  -4.360   0.451  0.00  0.00    +0.005 A 
ATOM      9  C   UNL     1       0.808  -4.586   1.006  0.00  0.00    +0.000 A 
ATOM     10  C   UNL     1       0.975  -4.526   2.377  0.00  0.00    +0.000 A 
ATOM     11  C   UNL     1      -0.104  -4.241   3.193  0.00  0.00    +0.000 A 
ATOM     12  C   UNL     1      -1.349  -4.011   2.637  0.00  0.00    +0.005 A 
ENDBRANCH   2   7
BRANCH   4  13
ATOM     13  N   UNL     1      -3.855  -5.026  -2.717  0.00  0.00    -0.290 N 
ATOM     14  C   UNL     1      -4.797  -4.941  -3.678  0.00  0.00    +0.225 C 
ATOM     15  O   UNL     1      -5.793  -4.275  -3.493  0.00  0.00    -0.275 OA
ATOM     16  H   UNL     1      -3.058  -5.558  -2.864  0.00  0.00    +0.151 HD
BRANCH  14  17
ATOM     17  C   UNL     1      -4.611  -5.675  -4.981  0.00  0.00    +0.173 C 
BRANCH  17  18
ATOM     18  S   UNL     1      -6.037  -5.365  -6.058  0.00  0.00    -0.077 S 
BRANCH  18  19
ATOM     19  C   UNL     1      -5.674  -6.277  -7.521  0.00  0.00    +0.192 A 
ATOM     20  N   UNL     1      -4.545  -6.970  -7.587  0.00  0.00    -0.183 NA
ATOM     21  C   UNL     1      -4.242  -7.667  -8.675  0.00  0.00    +0.274 A 
ATOM     22  O   UNL     1      -3.088  -8.374  -8.738  0.00  0.00    -0.266 OA
ATOM     23  C   UNL     1      -5.129  -7.663  -9.751  0.00  0.00    +0.095 A 
ATOM     24  C   UNL     1      -6.295  -6.929  -9.642  0.00  0.00    +0.046 A 
ATOM     25  N   UNL     1      -6.537  -6.259  -8.525  0.00  0.00    -0.227 NA
ATOM     26  C   UNL     1      -7.282  -6.894 -10.780  0.00  0.00    +0.066 C 
ENDBRANCH  18  19
ENDBRANCH  17  18
ENDBRANCH  14  17
ENDBRANCH   4  13
BRANCH   1  27
ATOM     27  C   UNL     1      -1.595  -1.700   0.281  0.00  0.00    +0.322 C 
ATOM     28  O   UNL     1      -1.283  -1.104   1.285  0.00  0.00    -0.250 OA
BRANCH  27  29
ATOM     29  O   UNL     1      -0.738  -1.771  -0.750  0.00  0.00    -0.464 OA
BRANCH  29  31
ATOM     30  C   UNL     1       1.358  -1.310  -1.861  0.00  0.00    +0.048 C 
ATOM     31  C   UNL     1       0.524  -1.121  -0.592  0.00  0.00    +0.229 C 
ENDBRANCH  29  31
ENDBRANCH  27  29
ENDBRANCH   1  27
TORSDOF 8
