REMARK  Name = ZINC66614034
REMARK  6 active torsions:
REMARK  status: ('A' for Active; 'I' for Inactive)
REMARK    1  A    between atoms: C_1  and  C_2
REMARK    2  A    between atoms: C_2  and  C_4
REMARK    3  A    between atoms: C_2  and  N_14
REMARK    4  A    between atoms: C_7  and  N_10
REMARK    5  A    between atoms: C_15  and  C_17
REMARK    6  A    between atoms: C_19  and  N_27
REMARK                            x       y       z     vdW  Elec       q    Type
REMARK                         _______ _______ _______ _____ _____    ______ ____
ROOT
ATOM      1  N   UNL     1       0.770  -0.671   1.090  0.00  0.00    -0.305 N 
ATOM      2  C   UNL     1       2.110  -0.780   0.995  0.00  0.00    +0.248 C 
ATOM      3  O   UNL     1       2.688  -0.343   0.019  0.00  0.00    -0.270 OA
ATOM      4  H   UNL     1       0.309  -1.020   1.869  0.00  0.00    +0.150 HD
ENDROOT
BRANCH   2   5
ATOM      5  C   UNL     1       2.876  -1.431   2.075  0.00  0.00    +0.084 A 
ATOM      6  C   UNL     1       2.214  -1.940   3.196  0.00  0.00    +0.049 A 
ATOM      7  C   UNL     1       2.933  -2.547   4.202  0.00  0.00    +0.131 A 
ATOM      8  C   UNL     1       4.311  -2.655   4.110  0.00  0.00    +0.082 A 
ATOM      9  C   UNL     1       4.981  -2.155   3.006  0.00  0.00    +0.165 A 
ATOM     10  C   UNL     1       4.269  -1.546   1.979  0.00  0.00    +0.174 A 
ATOM     11  O   UNL     1       4.905  -1.060   0.882  0.00  0.00    -0.484 OA
ATOM     12  C   UNL     1       6.318  -0.859   0.994  0.00  0.00    +0.270 C 
ATOM     13  C   UNL     1       6.931  -2.106   1.644  0.00  0.00    +0.270 C 
ATOM     14  O   UNL     1       6.336  -2.269   2.939  0.00  0.00    -0.485 OA
BRANCH   7  15
ATOM     15  N   UNL     1       2.229  -3.087   5.387  0.00  0.00    +0.057 N 
ATOM     16  O   UNL     1       1.027  -2.994   5.471  0.00  0.00    -0.126 OA
ATOM     17  O   UNL     1       2.857  -3.620   6.272  0.00  0.00    -0.126 OA
ENDBRANCH   7  15
ENDBRANCH   2   5
BRANCH   1  19
ATOM     18  C   UNL     1       0.002   1.489   0.238  0.00  0.00    +0.033 C 
ATOM     19  C   UNL     1       0.010  -0.025   0.017  0.00  0.00    +0.100 C 
BRANCH  19  20
ATOM     20  C   UNL     1      -1.406  -0.541   0.024  0.00  0.00    -0.027 A 
ATOM     21  C   UNL     1      -2.059  -0.749   1.225  0.00  0.00    +0.007 A 
ATOM     22  C   UNL     1      -3.357  -1.222   1.234  0.00  0.00    +0.023 A 
ATOM     23  C   UNL     1      -4.006  -1.488   0.036  0.00  0.00    +0.035 A 
ATOM     24  C   UNL     1      -3.347  -1.279  -1.168  0.00  0.00    +0.023 A 
ATOM     25  C   UNL     1      -2.051  -0.801  -1.171  0.00  0.00    +0.007 A 
BRANCH  23  26
ATOM     26  N   UNL     1      -5.320  -1.968   0.042  0.00  0.00    -0.270 N 
ATOM     27  C   UNL     1      -6.177  -1.575   1.006  0.00  0.00    +0.301 C 
ATOM     28  O   UNL     1      -5.838  -0.730   1.812  0.00  0.00    -0.253 OA
ATOM     29  N   UNL     1      -7.408  -2.117   1.075  0.00  0.00    -0.313 N 
ATOM     30  H   UNL     1      -5.615  -2.584  -0.647  0.00  0.00    +0.156 HD
ATOM     31  H   UNL     1      -7.678  -2.791   0.432  0.00  0.00    +0.146 HD
ATOM     32  H   UNL     1      -8.025  -1.834   1.769  0.00  0.00    +0.146 HD
ENDBRANCH  23  26
ENDBRANCH  19  20
ENDBRANCH   1  19
TORSDOF 5
