REMARK  Name = ZINC66234932
REMARK  6 active torsions:
REMARK  status: ('A' for Active; 'I' for Inactive)
REMARK    1  A    between atoms: C_1  and  C_2
REMARK    2  A    between atoms: N_5  and  C_9
REMARK    3  A    between atoms: N_17  and  C_18
REMARK    4  A    between atoms: C_18  and  C_19
REMARK    5  A    between atoms: C_19  and  C_20
REMARK    6  A    between atoms: C_24  and  O_26
REMARK                            x       y       z     vdW  Elec       q    Type
REMARK                         _______ _______ _______ _____ _____    ______ ____
ROOT
ATOM      1  C   UNL     1      -2.768  -2.554   0.045  0.00  0.00    +0.060 C 
ATOM      2  C   UNL     1      -3.539  -2.119   1.294  0.00  0.00    +0.038 C 
ATOM      3  C   UNL     1      -4.966  -2.673   1.226  0.00  0.00    +0.111 C 
ATOM      4  N   UNL     1      -4.900  -4.128   1.034  0.00  0.00    -0.286 N 
ATOM      5  C   UNL     1      -4.109  -4.657  -0.085  0.00  0.00    +0.111 C 
ATOM      6  C   UNL     1      -2.692  -4.081  -0.003  0.00  0.00    +0.038 C 
ATOM      7  C   UNL     1      -5.552  -4.961   1.869  0.00  0.00    +0.302 C 
ATOM      8  O   UNL     1      -6.125  -4.518   2.846  0.00  0.00    -0.253 OA
ATOM      9  N   UNL     1      -5.570  -6.285   1.621  0.00  0.00    -0.299 N 
ATOM     10  H   UNL     1      -5.055  -6.648   0.883  0.00  0.00    +0.150 HD
ENDROOT
BRANCH   1  14
ATOM     11  C   UNL     1      -0.029   1.536   0.013  0.00  0.00    +0.039 C 
ATOM     12  C   UNL     1      -0.005   0.006   0.008  0.00  0.00    +0.129 C 
ATOM     13  C   UNL     1      -1.439  -0.528   0.018  0.00  0.00    +0.116 C 
ATOM     14  N   UNL     1      -1.410  -1.997   0.091  0.00  0.00    -0.295 NA
ATOM     15  C   UNL     1      -0.697  -2.444   1.296  0.00  0.00    +0.113 C 
ATOM     16  C   UNL     1       0.731  -1.891   1.273  0.00  0.00    +0.175 C 
ATOM     17  O   UNL     1       0.683  -0.465   1.170  0.00  0.00    -0.374 OA
ENDBRANCH   1  14
BRANCH   9  18
ATOM     18  C   UNL     1      -6.369  -7.178   2.465  0.00  0.00    +0.110 C 
BRANCH  18  19
ATOM     19  C   UNL     1      -6.215  -8.618   1.972  0.00  0.00    +0.054 C 
BRANCH  19  20
ATOM     20  C   UNL     1      -7.037  -9.537   2.840  0.00  0.00    -0.042 A 
ATOM     21  C   UNL     1      -6.476 -10.102   3.970  0.00  0.00    +0.004 A 
ATOM     22  C   UNL     1      -7.227 -10.945   4.769  0.00  0.00    +0.004 A 
ATOM     23  C   UNL     1      -8.540 -11.224   4.438  0.00  0.00    +0.045 A 
ATOM     24  C   UNL     1      -9.104 -10.658   3.305  0.00  0.00    +0.117 A 
ATOM     25  C   UNL     1      -8.350  -9.808   2.509  0.00  0.00    +0.049 A 
BRANCH  24  26
ATOM     26  O   UNL     1     -10.394 -10.931   2.978  0.00  0.00    -0.507 OA
ATOM     27  H   UNL     1     -11.035 -10.318   3.362  0.00  0.00    +0.292 HD
ENDBRANCH  24  26
ENDBRANCH  19  20
ENDBRANCH  18  19
ENDBRANCH   9  18
TORSDOF 5
