REMARK  Name = ZINC48623316
REMARK  4 active torsions:
REMARK  status: ('A' for Active; 'I' for Inactive)
REMARK    1  A    between atoms: C_5  and  C_6
REMARK    2  A    between atoms: C_8  and  C_11
REMARK    3  A    between atoms: C_11  and  C_12
REMARK    4  A    between atoms: N_14  and  C_15
REMARK                            x       y       z     vdW  Elec       q    Type
REMARK                         _______ _______ _______ _____ _____    ______ ____
ROOT
ATOM      1  C   UNL     1      -1.128  -0.947   0.008  0.00  0.00    +0.115 A 
ATOM      2  N   UNL     1      -1.118  -2.275   0.006  0.00  0.00    -0.243 NA
ATOM      3  C   UNL     1      -2.236  -2.963   0.013  0.00  0.00    +0.058 A 
ATOM      4  C   UNL     1      -3.430  -2.316   0.022  0.00  0.00    +0.071 A 
ATOM      5  S   UNL     1      -2.884  -0.613   0.027  0.00  0.00    -0.075 S 
ENDROOT
BRANCH   1  10
ATOM      6  C   UNL     1      -0.017   1.368   0.010  0.00  0.00    +0.033 A 
ATOM      7  C   UNL     1       1.182   2.045   0.002  0.00  0.00    +0.026 A 
ATOM      8  C   UNL     1       2.342   1.337  -0.013  0.00  0.00    +0.061 A 
ATOM      9  S   UNL     1       1.754  -0.348  -0.017  0.00  0.00    -0.093 S 
ATOM     10  C   UNL     1       0.002  -0.004   0.002  0.00  0.00    +0.045 A 
ATOM     11 BR   UNL     1       1.214   3.936   0.011  0.00  0.00    -0.050 Br
ENDBRANCH   1  10
BRANCH   3  12
ATOM     12  C   UNL     1      -2.194  -4.470   0.010  0.00  0.00    +0.156 C 
BRANCH  12  13
ATOM     13  C   UNL     1      -1.373  -4.947  -1.160  0.00  0.00    +0.255 C 
ATOM     14  O   UNL     1      -1.197  -6.267  -1.365  0.00  0.00    -0.270 OA
ATOM     15  N   UNL     1      -0.834  -4.084  -1.973  0.00  0.00    -0.176 NA
BRANCH  15  16
ATOM     16  C   UNL     1      -0.092  -4.517  -3.032  0.00  0.00    +0.249 A 
ATOM     17  N   UNL     1       0.158  -5.774  -3.346  0.00  0.00    -0.198 NA
ATOM     18  H   UNL     1       0.511  -2.764  -3.988  0.00  0.00    +0.192 HD
ATOM     19  C   UNL     1       0.915  -5.822  -4.440  0.00  0.00    +0.247 A 
ATOM     20  N   UNL     1       1.164  -4.604  -4.845  0.00  0.00    -0.159 NA
ATOM     21  N   UNL     1       0.518  -3.733  -3.953  0.00  0.00    -0.243 N 
ENDBRANCH  15  16
ENDBRANCH  12  13
ENDBRANCH   3  12
TORSDOF 4
