REMARK  Name = ZINC02642270
REMARK  5 active torsions:
REMARK  status: ('A' for Active; 'I' for Inactive)
REMARK    1  A    between atoms: C_1  and  C_2
REMARK    2  A    between atoms: C_7  and  C_8
REMARK    3  A    between atoms: C_12  and  C_15
REMARK    4  A    between atoms: C_15  and  C_16
REMARK    5  A    between atoms: N_18  and  C_19
REMARK                            x       y       z     vdW  Elec       q    Type
REMARK                         _______ _______ _______ _____ _____    ______ ____
ROOT
ATOM      1  C   UNL     1      -1.521   7.847   0.413  0.00  0.00    +0.044 C 
ATOM      2  C   UNL     1      -1.469   6.344   0.327  0.00  0.00    -0.046 A 
ATOM      3  C   UNL     1      -0.298   5.714  -0.057  0.00  0.00    +0.028 A 
ATOM      4  C   UNL     1      -0.254   4.334  -0.135  0.00  0.00    +0.049 A 
ATOM      5  C   UNL     1      -1.384   3.577   0.179  0.00  0.00    +0.055 A 
ATOM      6  C   UNL     1      -2.553   4.216   0.559  0.00  0.00    +0.028 A 
ATOM      7  C   UNL     1      -2.591   5.597   0.631  0.00  0.00    -0.046 A 
ATOM      8  C   UNL     1      -3.864   6.290   1.044  0.00  0.00    +0.044 C 
ATOM      9  N   UNL     1      -1.322   2.180   0.116  0.00  0.00    -0.282 N 
ATOM     10  C   UNL     1      -0.145   1.547  -0.042  0.00  0.00    +0.238 C 
ATOM     11  O   UNL     1      -0.129   0.346  -0.213  0.00  0.00    -0.273 OA
ATOM     12  C   UNL     1       1.152   2.315  -0.016  0.00  0.00    +0.166 C 
ATOM     13  N   UNL     1       0.917   3.671  -0.530  0.00  0.00    -0.331 N 
ATOM     14  H   UNL     1      -2.138   1.662   0.192  0.00  0.00    +0.155 HD
ATOM     15  H   UNL     1       1.554   4.097  -1.126  0.00  0.00    +0.147 HD
ENDROOT
BRANCH  12  16
ATOM     16  C   UNL     1       1.671   2.393   1.421  0.00  0.00    +0.127 C 
BRANCH  16  17
ATOM     17  C   UNL     1       3.027   3.052   1.430  0.00  0.00    +0.219 C 
ATOM     18  O   UNL     1       3.528   3.422   0.390  0.00  0.00    -0.275 OA
ATOM     19  N   UNL     1       3.682   3.229   2.595  0.00  0.00    -0.285 N 
ATOM     20  H   UNL     1       3.250   3.003   3.433  0.00  0.00    +0.155 HD
BRANCH  19  21
ATOM     21  C   UNL     1       4.985   3.739   2.594  0.00  0.00    +0.033 A 
ATOM     22  C   UNL     1       5.850   3.436   1.551  0.00  0.00    +0.024 A 
ATOM     23  C   UNL     1       7.134   3.945   1.550  0.00  0.00    +0.016 A 
ATOM     24  C   UNL     1       7.562   4.747   2.592  0.00  0.00    +0.013 A 
ATOM     25  C   UNL     1       6.704   5.047   3.635  0.00  0.00    +0.016 A 
ATOM     26  C   UNL     1       5.417   4.545   3.639  0.00  0.00    +0.024 A 
ATOM     27  I   UNL     1       9.513   5.511   2.591  0.00  0.00    -0.044 I 
ENDBRANCH  19  21
ENDBRANCH  16  17
ENDBRANCH  12  16
TORSDOF 3
