REMARK  Name = ZINC35708549
REMARK  8 active torsions:
REMARK  status: ('A' for Active; 'I' for Inactive)
REMARK    1  A    between atoms: C_1  and  C_2
REMARK    2  A    between atoms: C_2  and  O_3
REMARK    3  A    between atoms: O_3  and  N_4
REMARK    4  A    between atoms: C_5  and  C_7
REMARK    5  A    between atoms: C_9  and  C_20
REMARK    6  A    between atoms: N_11  and  C_12
REMARK    7  A    between atoms: C_14  and  C_19
REMARK    8  A    between atoms: C_17  and  C_18
REMARK                            x       y       z     vdW  Elec       q    Type
REMARK                         _______ _______ _______ _____ _____    ______ ____
ROOT
ATOM      1  C   UNL     1      -2.724  -4.019   0.220  0.00  0.00    +0.132 A 
ATOM      2  C   UNL     1      -3.903  -4.722   0.056  0.00  0.00    +0.063 A 
ATOM      3  C   UNL     1      -3.521  -5.967  -0.478  0.00  0.00    +0.097 A 
ATOM      4  N   UNL     1      -2.210  -5.961  -0.604  0.00  0.00    -0.166 NA
ATOM      5  N   UNL     1      -1.719  -4.841  -0.213  0.00  0.00    -0.227 N 
ENDROOT
BRANCH   5   6
ATOM      6  C   UNL     1      -0.359  -4.511  -0.224  0.00  0.00    +0.069 A 
ATOM      7  C   UNL     1       0.092  -3.439  -0.983  0.00  0.00    +0.031 A 
ATOM      8  C   UNL     1       1.434  -3.117  -0.992  0.00  0.00    -0.048 A 
ATOM      9  C   UNL     1       2.330  -3.860  -0.245  0.00  0.00    +0.004 A 
ATOM     10  C   UNL     1       1.885  -4.928   0.512  0.00  0.00    +0.006 A 
ATOM     11  C   UNL     1       0.543  -5.252   0.529  0.00  0.00    -0.025 A 
ATOM     12  C   UNL     1       0.058  -6.413   1.360  0.00  0.00    +0.046 C 
ATOM     13  C   UNL     1       1.924  -1.953  -1.815  0.00  0.00    +0.044 C 
ENDBRANCH   5   6
BRANCH   3  14
ATOM     14  C   UNL     1      -4.431  -7.085  -0.833  0.00  0.00    +0.037 A 
ATOM     15  C   UNL     1      -5.806  -6.952  -0.651  0.00  0.00    +0.013 A 
ATOM     16  C   UNL     1      -6.647  -7.994  -0.983  0.00  0.00    +0.001 A 
ATOM     17  C   UNL     1      -6.129  -9.169  -1.497  0.00  0.00    +0.003 A 
ATOM     18  C   UNL     1      -4.766  -9.309  -1.680  0.00  0.00    +0.039 A 
ATOM     19  C   UNL     1      -3.913  -8.270  -1.356  0.00  0.00    +0.133 A 
ATOM     20  F   UNL     1      -2.581  -8.404  -1.540  0.00  0.00    -0.205 F 
ENDBRANCH   3  14
BRANCH   1  22
ATOM     21  N   UNL     1      -1.352  -2.142   0.967  0.00  0.00    -0.189 N 
ATOM     22  C   UNL     1      -2.580  -2.654   0.750  0.00  0.00    +0.285 C 
ATOM     23  O   UNL     1      -3.568  -1.987   0.991  0.00  0.00    -0.266 OA
ATOM     24  H   UNL     1      -0.564  -2.645   0.709  0.00  0.00    +0.183 HD
BRANCH  21  25
ATOM     25  O   UNL     1      -1.213  -0.869   1.572  0.00  0.00    -0.280 OA
BRANCH  25  27
ATOM     26  C   UNL     1       0.179   0.925   2.399  0.00  0.00    +0.036 C 
ATOM     27  C   UNL     1       0.140  -0.502   1.847  0.00  0.00    +0.187 C 
ENDBRANCH  25  27
ENDBRANCH  21  25
ENDBRANCH   1  22
TORSDOF 5
