REMARK  Name = ZINC12656159
REMARK  12 active torsions:
REMARK  status: ('A' for Active; 'I' for Inactive)
REMARK    1  A    between atoms: C_1  and  C_2
REMARK    2  A    between atoms: C_5  and  C_8
REMARK    3  A    between atoms: C_8  and  C_9
REMARK    4  A    between atoms: C_8  and  C_16
REMARK    5  A    between atoms: C_8  and  O_23
REMARK    6  A    between atoms: C_12  and  C_15
REMARK    7  A    between atoms: C_19  and  C_22
REMARK    8  A    between atoms: O_23  and  C_24
REMARK    9  A    between atoms: C_24  and  C_25
REMARK   10  A    between atoms: C_27  and  O_43
REMARK   11  A    between atoms: C_29  and  O_42
REMARK   12  A    between atoms: C_31  and  N_34
REMARK                            x       y       z     vdW  Elec       q    Type
REMARK                         _______ _______ _______ _____ _____    ______ ____
ROOT
ATOM      1  C   UNL     1       2.639  -2.399  -3.447  0.00  0.00    +0.144 C 
ENDROOT
BRANCH   1   6
ATOM      2  C   UNL     1       8.274  -1.541  -4.393  0.00  0.00    +0.044 C 
ATOM      3  C   UNL     1       6.805  -1.766  -4.146  0.00  0.00    -0.050 A 
ATOM      4  C   UNL     1       6.163  -1.085  -3.127  0.00  0.00    +0.004 A 
ATOM      5  C   UNL     1       4.815  -1.290  -2.901  0.00  0.00    +0.007 A 
ATOM      6  C   UNL     1       4.108  -2.176  -3.693  0.00  0.00    -0.007 A 
ATOM      7  C   UNL     1       4.751  -2.860  -4.708  0.00  0.00    +0.007 A 
ATOM      8  C   UNL     1       6.098  -2.651  -4.938  0.00  0.00    +0.004 A 
ENDBRANCH   1   6
BRANCH   1   9
ATOM      9  C   UNL     1       2.317  -3.861  -3.622  0.00  0.00    -0.007 A 
ATOM     10  C   UNL     1       1.105  -4.241  -4.169  0.00  0.00    +0.007 A 
ATOM     11  C   UNL     1       0.812  -5.582  -4.333  0.00  0.00    +0.004 A 
ATOM     12  C   UNL     1       1.726  -6.543  -3.943  0.00  0.00    -0.050 A 
ATOM     13  C   UNL     1       2.935  -6.163  -3.391  0.00  0.00    +0.004 A 
ATOM     14  C   UNL     1       3.230  -4.822  -3.231  0.00  0.00    +0.007 A 
ATOM     15  C   UNL     1       1.404  -8.004  -4.119  0.00  0.00    +0.044 C 
ENDBRANCH   1   9
BRANCH   1  16
ATOM     16  C   UNL     1       1.835  -1.587  -4.429  0.00  0.00    -0.007 A 
ATOM     17  C   UNL     1       2.022  -1.762  -5.787  0.00  0.00    +0.007 A 
ATOM     18  C   UNL     1       1.282  -1.020  -6.689  0.00  0.00    +0.004 A 
ATOM     19  C   UNL     1       0.361  -0.096  -6.231  0.00  0.00    -0.050 A 
ATOM     20  C   UNL     1       0.177   0.083  -4.873  0.00  0.00    +0.004 A 
ATOM     21  C   UNL     1       0.915  -0.662  -3.972  0.00  0.00    +0.007 A 
ATOM     22  C   UNL     1      -0.443   0.716  -7.213  0.00  0.00    +0.044 C 
ENDBRANCH   1  16
BRANCH   1  23
ATOM     23  O   UNL     1       2.312  -1.996  -2.115  0.00  0.00    -0.357 OA
BRANCH  23  24
ATOM     24  C   UNL     1       2.950  -2.773  -1.100  0.00  0.00    +0.196 C 
BRANCH  24  25
ATOM     25  C   UNL     1       2.656  -2.161   0.271  0.00  0.00    +0.178 C 
ATOM     26  C   UNL     1       3.440  -2.916   1.362  0.00  0.00    +0.178 C 
ATOM     27  C   UNL     1       2.346  -3.433   2.327  0.00  0.00    +0.197 C 
ATOM     28  C   UNL     1       1.158  -2.490   2.007  0.00  0.00    +0.273 C 
ATOM     29  O   UNL     1       1.258  -2.295   0.580  0.00  0.00    -0.344 OA
BRANCH  28  30
ATOM     30  N   UNL     1      -0.115  -3.128   2.352  0.00  0.00    -0.181 N 
ATOM     31  C   UNL     1      -1.045  -2.422   3.020  0.00  0.00    +0.369 A 
ATOM     32  O   UNL     1      -0.819  -1.263   3.328  0.00  0.00    -0.243 OA
ATOM     33  N   UNL     1      -2.216  -2.978   3.342  0.00  0.00    -0.176 NA
ATOM     34  C   UNL     1      -2.445  -4.241   3.004  0.00  0.00    +0.142 A 
ATOM     35  C   UNL     1      -1.439  -4.952   2.308  0.00  0.00    +0.176 A 
ATOM     36  N   UNL     1      -0.317  -4.353   2.015  0.00  0.00    -0.170 NA
ATOM     37  N   UNL     1      -3.637  -4.848   3.325  0.00  0.00    -0.342 N 
ATOM     38  H   UNL     1      -3.795  -5.771   3.074  0.00  0.00    +0.144 HD
ATOM     39  H   UNL     1      -4.321  -4.352   3.803  0.00  0.00    +0.144 HD
ENDBRANCH  28  30
BRANCH  27  40
ATOM     40  O   UNL     1       2.011  -4.792   2.037  0.00  0.00    -0.385 OA
ATOM     41  H   UNL     1       1.329  -5.161   2.615  0.00  0.00    +0.210 HD
ENDBRANCH  27  40
BRANCH  26  42
ATOM     42  O   UNL     1       4.329  -2.029   2.043  0.00  0.00    -0.386 OA
ATOM     43  H   UNL     1       4.806  -2.438   2.778  0.00  0.00    +0.210 HD
ENDBRANCH  26  42
ENDBRANCH  24  25
ENDBRANCH  23  24
ENDBRANCH   1  23
TORSDOF 9
