REMARK  Name = ZINC13268554
REMARK  8 active torsions:
REMARK  status: ('A' for Active; 'I' for Inactive)
REMARK    1  A    between atoms: C_1  and  C_2
REMARK    2  A    between atoms: C_2  and  O_3
REMARK    3  A    between atoms: O_3  and  C_4
REMARK    4  A    between atoms: C_4  and  C_6
REMARK    5  A    between atoms: C_7  and  C_30
REMARK    6  A    between atoms: N_8  and  C_22
REMARK    7  A    between atoms: C_12  and  C_14
REMARK    8  A    between atoms: C_25  and  C_28
REMARK                            x       y       z     vdW  Elec       q    Type
REMARK                         _______ _______ _______ _____ _____    ______ ____
ROOT
ATOM      1  C   UNL     1       2.749   1.491  -1.526  0.00  0.00    +0.078 C 
ATOM      2  C   UNL     1       4.010   1.880  -1.815  0.00  0.00    +0.029 C 
ATOM      3  N   UNL     1       4.968   1.944  -0.842  0.00  0.00    -0.228 N 
ATOM      4  C   UNL     1       4.744   1.636   0.442  0.00  0.00    +0.311 C 
ATOM      5  O   UNL     1       5.660   1.724   1.236  0.00  0.00    -0.252 OA
ATOM      6  N   UNL     1       3.536   1.232   0.882  0.00  0.00    -0.288 N 
ATOM      7  C   UNL     1       2.434   1.129  -0.089  0.00  0.00    +0.144 C 
ATOM      8  C   UNL     1       4.366   2.248  -3.232  0.00  0.00    +0.062 C 
ATOM      9  H   UNL     1       3.396   1.013   1.817  0.00  0.00    +0.151 HD
ENDROOT
BRANCH   7  10
ATOM     10  C   UNL     1       1.316   2.024   0.380  0.00  0.00    -0.021 A 
ATOM     11  C   UNL     1       1.604   3.263   0.923  0.00  0.00    +0.008 A 
ATOM     12  C   UNL     1       0.580   4.084   1.354  0.00  0.00    +0.040 A 
ATOM     13  C   UNL     1      -0.735   3.667   1.243  0.00  0.00    +0.137 A 
ATOM     14  C   UNL     1      -1.024   2.428   0.694  0.00  0.00    +0.053 A 
ATOM     15  C   UNL     1       0.003   1.606   0.268  0.00  0.00    +0.024 A 
ATOM     16 BR   UNL     1      -2.820   1.859   0.533  0.00  0.00    -0.047 Br
ATOM     17  F   UNL     1      -1.737   4.470   1.664  0.00  0.00    -0.204 F 
ENDBRANCH   7  10
BRANCH   3  18
ATOM     18  C   UNL     1       6.252   2.353  -1.207  0.00  0.00    +0.043 A 
ATOM     19  C   UNL     1       6.592   3.701  -1.153  0.00  0.00    +0.025 A 
ATOM     20  C   UNL     1       7.859   4.107  -1.507  0.00  0.00    +0.017 A 
ATOM     21  C   UNL     1       8.800   3.165  -1.932  0.00  0.00    +0.063 A 
ATOM     22  C   UNL     1       8.453   1.812  -1.990  0.00  0.00    +0.017 A 
ATOM     23  C   UNL     1       7.186   1.413  -1.629  0.00  0.00    +0.025 A 
BRANCH  21  24
ATOM     24  C   UNL     1      10.157   3.598  -2.317  0.00  0.00    +0.387 C 
ATOM     25  O   UNL     1      10.974   2.777  -2.686  0.00  0.00    -0.241 OA
ATOM     26  O   UNL     1      10.490   4.902  -2.260  0.00  0.00    -0.241 OA
ENDBRANCH  21  24
ENDBRANCH   3  18
BRANCH   1  27
ATOM     27  C   UNL     1       1.756   1.423  -2.533  0.00  0.00    +0.339 C 
ATOM     28  O   UNL     1       2.032   1.719  -3.680  0.00  0.00    -0.245 OA
BRANCH  27  29
ATOM     29  O   UNL     1       0.503   1.032  -2.219  0.00  0.00    -0.462 OA
BRANCH  29  31
ATOM     30  C   UNL     1      -1.801   0.523  -2.740  0.00  0.00    +0.048 C 
ATOM     31  C   UNL     1      -0.448   0.986  -3.284  0.00  0.00    +0.229 C 
ENDBRANCH  29  31
ENDBRANCH  27  29
ENDBRANCH   1  27
TORSDOF 6
