REMARK  Name = ZINC12473646
REMARK  10 active torsions:
REMARK  status: ('A' for Active; 'I' for Inactive)
REMARK    1  A    between atoms: C_1  and  C_2
REMARK    2  A    between atoms: C_5  and  N_9
REMARK    3  A    between atoms: C_6  and  C_8
REMARK    4  A    between atoms: N_9  and  C_10
REMARK    5  A    between atoms: C_10  and  C_12
REMARK    6  A    between atoms: C_10  and  C_19
REMARK    7  A    between atoms: N_21  and  C_22
REMARK    8  A    between atoms: C_27  and  C_29
REMARK    9  A    between atoms: C_30  and  N_37
REMARK   10  A    between atoms: C_31  and  C_34
REMARK                            x       y       z     vdW  Elec       q    Type
REMARK                         _______ _______ _______ _____ _____    ______ ____
ROOT
ATOM      1  N   UNL     1       0.775   3.581   0.042  0.00  0.00    -0.251 N 
ATOM      2  C   UNL     1       0.894   4.298   1.177  0.00  0.00    +0.262 C 
ATOM      3  O   UNL     1       1.220   5.470   1.125  0.00  0.00    -0.269 OA
ENDROOT
BRANCH   1   8
ATOM      4  C   UNL     1      -0.745  -1.878   0.280  0.00  0.00    +0.044 C 
ATOM      5  C   UNL     1      -0.341  -0.428   0.217  0.00  0.00    -0.050 A 
ATOM      6  C   UNL     1       0.989  -0.075   0.356  0.00  0.00    +0.005 A 
ATOM      7  C   UNL     1       1.362   1.253   0.298  0.00  0.00    +0.024 A 
ATOM      8  C   UNL     1       0.400   2.236   0.101  0.00  0.00    +0.041 A 
ATOM      9  C   UNL     1      -0.934   1.878  -0.037  0.00  0.00    -0.029 A 
ATOM     10  C   UNL     1      -1.301   0.548   0.021  0.00  0.00    +0.008 A 
ATOM     11  C   UNL     1      -1.981   2.940  -0.258  0.00  0.00    +0.045 C 
ENDBRANCH   1   8
BRANCH   2  12
ATOM     12  C   UNL     1       0.631   3.668   2.472  0.00  0.00    +0.116 A 
ATOM     13  C   UNL     1       0.700   4.218   3.753  0.00  0.00    +0.076 A 
ATOM     14  C   UNL     1       0.373   3.296   4.748  0.00  0.00    +0.155 A 
ATOM     15  N   UNL     1       0.058   2.066   4.406  0.00  0.00    -0.203 NA
ATOM     16  S   UNL     1       0.146   1.994   2.834  0.00  0.00    +0.019 S 
BRANCH  14  17
ATOM     17  C   UNL     1       0.385   3.695   6.167  0.00  0.00    +0.262 C 
ATOM     18  O   UNL     1       0.678   4.834   6.476  0.00  0.00    -0.269 OA
ATOM     19  N   UNL     1       0.072   2.797   7.122  0.00  0.00    -0.324 N 
ATOM     20  H   UNL     1      -0.162   1.889   6.876  0.00  0.00    +0.145 HD
ATOM     21  H   UNL     1       0.080   3.060   8.056  0.00  0.00    +0.145 HD
ENDBRANCH  14  17
BRANCH  13  22
ATOM     22  N   UNL     1       1.052   5.536   4.010  0.00  0.00    -0.355 N 
ATOM     23  H   UNL     1       1.268   6.132   3.275  0.00  0.00    +0.142 HD
ATOM     24  H   UNL     1       1.082   5.861   4.923  0.00  0.00    +0.142 HD
ENDBRANCH  13  22
ENDBRANCH   2  12
BRANCH   1  25
ATOM     25  C   UNL     1       1.038   4.212  -1.254  0.00  0.00    +0.197 C 
BRANCH  25  26
ATOM     26  C   UNL     1       0.694   3.249  -2.361  0.00  0.00    -0.018 A 
ATOM     27  C   UNL     1       1.373   2.050  -2.469  0.00  0.00    +0.009 A 
ATOM     28  C   UNL     1       1.054   1.163  -3.480  0.00  0.00    +0.038 A 
ATOM     29  C   UNL     1       0.062   1.481  -4.391  0.00  0.00    +0.123 A 
ATOM     30  C   UNL     1      -0.615   2.685  -4.285  0.00  0.00    +0.038 A 
ATOM     31  C   UNL     1      -0.298   3.567  -3.270  0.00  0.00    +0.009 A 
ATOM     32  F   UNL     1      -0.247   0.618  -5.384  0.00  0.00    -0.205 F 
ENDBRANCH  25  26
BRANCH  25  33
ATOM     33  C   UNL     1       2.496   4.582  -1.346  0.00  0.00    +0.239 C 
ATOM     34  O   UNL     1       3.242   4.342  -0.420  0.00  0.00    -0.273 OA
ATOM     35  N   UNL     1       2.971   5.179  -2.457  0.00  0.00    -0.311 N 
ATOM     36  H   UNL     1       2.375   5.370  -3.197  0.00  0.00    +0.149 HD
BRANCH  35  37
ATOM     37  C   UNL     1       4.389   5.538  -2.546  0.00  0.00    +0.073 C 
ATOM     38  C   UNL     1       4.615   6.946  -1.956  0.00  0.00    +0.022 C 
ATOM     39  C   UNL     1       5.696   7.572  -2.872  0.00  0.00    +0.002 C 
ATOM     40  C   UNL     1       5.299   7.050  -4.275  0.00  0.00    +0.002 C 
ATOM     41  C   UNL     1       4.824   5.605  -4.021  0.00  0.00    +0.022 C 
ENDBRANCH  35  37
ENDBRANCH  25  33
ENDBRANCH   1  25
TORSDOF 8
