REMARK  Name = ZINC63541377
REMARK  5 active torsions:
REMARK  status: ('A' for Active; 'I' for Inactive)
REMARK    1  A    between atoms: C_1  and  C_2
REMARK    2  A    between atoms: C_3  and  C_19
REMARK    3  A    between atoms: N_21  and  C_22
REMARK    4  A    between atoms: C_22  and  C_23
REMARK    5  A    between atoms: C_23  and  C_24
REMARK                            x       y       z     vdW  Elec       q    Type
REMARK                         _______ _______ _______ _____ _____    ______ ____
ROOT
ATOM      1  C   UNL     1      -0.018   1.503   0.010  0.00  0.00    +0.041 C 
ATOM      2  C   UNL     1       0.002  -0.004   0.002  0.00  0.00    -0.040 C 
ATOM      3  C   UNL     1       0.006  -0.709  -1.156  0.00  0.00    +0.071 C 
ATOM      4  S   UNL     1      -0.023  -2.433  -0.659  0.00  0.00    -0.100 S 
ATOM      5  C   UNL     1      -0.658  -2.171   1.047  0.00  0.00    +0.134 C 
ATOM      6  C   UNL     1       0.024  -0.779   1.245  0.00  0.00    +0.129 C 
ATOM      7  C   UNL     1      -0.378  -0.247   2.561  0.00  0.00    +0.226 C 
ATOM      8  O   UNL     1      -0.594   0.933   2.734  0.00  0.00    -0.275 OA
ATOM      9  N   UNL     1      -0.495  -1.153   3.568  0.00  0.00    -0.285 N 
ATOM     10  C   UNL     1      -0.809  -0.651   4.918  0.00  0.00    +0.109 C 
ATOM     11  C   UNL     1       0.275  -1.149   5.880  0.00  0.00    +0.019 C 
ATOM     12  C   UNL     1       0.381  -2.673   5.788  0.00  0.00    +0.005 C 
ATOM     13  C   UNL     1       0.771  -3.078   4.363  0.00  0.00    +0.038 C 
ATOM     14  C   UNL     1      -0.305  -2.586   3.392  0.00  0.00    +0.145 C 
ATOM     15  N   UNL     1      -0.036  -3.053   2.029  0.00  0.00    -0.286 NA
ATOM     16  H   UNL     1      -0.325  -4.010   1.889  0.00  0.00    +0.125 HD
ENDROOT
BRANCH   3  17
ATOM     17  C   UNL     1       0.030  -0.173  -2.531  0.00  0.00    +0.250 C 
ATOM     18  O   UNL     1       0.049   1.028  -2.715  0.00  0.00    -0.270 OA
ATOM     19  N   UNL     1       0.032  -1.016  -3.583  0.00  0.00    -0.311 N 
ATOM     20  H   UNL     1       0.017  -1.975  -3.436  0.00  0.00    +0.149 HD
BRANCH  19  21
ATOM     21  C   UNL     1       0.055  -0.484  -4.948  0.00  0.00    +0.109 C 
BRANCH  21  22
ATOM     22  C   UNL     1       0.051  -1.643  -5.947  0.00  0.00    +0.052 C 
BRANCH  22  23
ATOM     23  C   UNL     1       0.076  -1.096  -7.351  0.00  0.00    -0.040 C 
ATOM     24  C   UNL     1       1.164  -0.908  -8.132  0.00  0.00    -0.001 A 
ATOM     25  C   UNL     1       2.596  -1.147  -7.915  0.00  0.00    +0.010 A 
ATOM     26  C   UNL     1       3.467  -0.852  -8.907  0.00  0.00    +0.001 A 
ATOM     27  C   UNL     1       3.038  -0.326 -10.133  0.00  0.00    +0.002 A 
ATOM     28  C   UNL     1       1.739  -0.079 -10.406  0.00  0.00    +0.026 A 
ATOM     29  C   UNL     1       0.736  -0.352  -9.435  0.00  0.00    +0.043 A 
ATOM     30  N   UNL     1      -0.566  -0.202  -9.459  0.00  0.00    -0.380 N 
ATOM     31  C   UNL     1      -1.112  -0.652  -8.174  0.00  0.00    +0.144 C 
ATOM     32  H   UNL     1      -1.082   0.145 -10.204  0.00  0.00    +0.160 HD
ENDBRANCH  22  23
ENDBRANCH  21  22
ENDBRANCH  19  21
ENDBRANCH   3  17
TORSDOF 4
