REMARK  Name = ZINC25880367
REMARK  6 active torsions:
REMARK  status: ('A' for Active; 'I' for Inactive)
REMARK    1  A    between atoms: C_1  and  O_2
REMARK    2  A    between atoms: O_2  and  C_3
REMARK    3  A    between atoms: C_8  and  N_9
REMARK    4  A    between atoms: C_11  and  C_16
REMARK    5  A    between atoms: N_18  and  C_19
REMARK    6  A    between atoms: C_22  and  N_25
REMARK                            x       y       z     vdW  Elec       q    Type
REMARK                         _______ _______ _______ _____ _____    ______ ____
ROOT
ATOM      1  C   UNL     1      -2.648  -4.349   1.682  0.00  0.00    +0.222 C 
ATOM      2  O   UNL     1      -3.490  -3.511   1.439  0.00  0.00    -0.275 OA
ATOM      3  N   UNL     1      -2.877  -5.279   2.631  0.00  0.00    -0.285 N 
ATOM      4  H   UNL     1      -2.233  -5.990   2.779  0.00  0.00    +0.155 HD
ENDROOT
BRANCH   1   7
ATOM      5  N   UNL     1       0.085  -2.730  -0.112  0.00  0.00    -0.267 N 
ATOM      6  C   UNL     1      -1.305  -3.202  -0.107  0.00  0.00    +0.127 C 
ATOM      7  C   UNL     1      -1.346  -4.351   0.924  0.00  0.00    +0.102 C 
ATOM      8  C   UNL     1      -0.164  -3.986   1.851  0.00  0.00    +0.110 C 
ATOM      9  C   UNL     1       0.749  -3.156   0.976  0.00  0.00    +0.221 C 
ATOM     10  O   UNL     1       1.911  -2.909   1.222  0.00  0.00    -0.275 OA
BRANCH   5  16
ATOM     11  C   UNL     1       0.599  -0.553  -1.038  0.00  0.00    +0.141 A 
ATOM     12  C   UNL     1       1.163   0.221  -2.039  0.00  0.00    +0.047 A 
ATOM     13  C   UNL     1       1.768  -0.386  -3.124  0.00  0.00    +0.004 A 
ATOM     14  C   UNL     1       1.813  -1.765  -3.213  0.00  0.00    +0.002 A 
ATOM     15  C   UNL     1       1.254  -2.544  -2.219  0.00  0.00    +0.027 A 
ATOM     16  C   UNL     1       0.649  -1.942  -1.125  0.00  0.00    +0.078 A 
BRANCH  11  18
ATOM     17  C   UNL     1      -0.011   1.471   0.052  0.00  0.00    +0.277 C 
ATOM     18  O   UNL     1       0.003   0.042   0.030  0.00  0.00    -0.493 OA
ENDBRANCH  11  18
ENDBRANCH   5  16
ENDBRANCH   1   7
BRANCH   3  19
ATOM     19  C   UNL     1      -4.045  -5.220   3.402  0.00  0.00    +0.034 A 
ATOM     20  C   UNL     1      -4.015  -5.599   4.738  0.00  0.00    +0.025 A 
ATOM     21  C   UNL     1      -5.165  -5.541   5.498  0.00  0.00    +0.025 A 
ATOM     22  C   UNL     1      -6.353  -5.103   4.928  0.00  0.00    +0.035 A 
ATOM     23  C   UNL     1      -6.383  -4.723   3.592  0.00  0.00    +0.025 A 
ATOM     24  C   UNL     1      -5.231  -4.776   2.833  0.00  0.00    +0.025 A 
BRANCH  22  25
ATOM     25  N   UNL     1      -7.521  -5.044   5.699  0.00  0.00    -0.270 N 
ATOM     26  C   UNL     1      -8.714  -5.321   5.138  0.00  0.00    +0.301 C 
ATOM     27  O   UNL     1      -8.788  -5.540   3.944  0.00  0.00    -0.253 OA
ATOM     28  N   UNL     1      -9.826  -5.356   5.900  0.00  0.00    -0.313 N 
ATOM     29  H   UNL     1      -7.471  -4.803   6.638  0.00  0.00    +0.156 HD
ATOM     30  H   UNL     1      -9.767  -5.181   6.852  0.00  0.00    +0.146 HD
ATOM     31  H   UNL     1     -10.685  -5.555   5.495  0.00  0.00    +0.146 HD
ENDBRANCH  22  25
ENDBRANCH   3  19
TORSDOF 5
