REMARK  Name = ZINC06477040
REMARK  2 active torsions:
REMARK  status: ('A' for Active; 'I' for Inactive)
REMARK    1  A    between atoms: N_13  and  C_14
REMARK    2  A    between atoms: C_14  and  C_15
REMARK                            x       y       z     vdW  Elec       q    Type
REMARK                         _______ _______ _______ _____ _____    ______ ____
ROOT
ATOM      1  C   UNL     1      -1.992   9.166  -0.656  0.00  0.00    +0.224 A 
ATOM      2  N   UNL     1      -1.875   7.861  -0.485  0.00  0.00    -0.220 NA
ATOM      3  C   UNL     1      -2.366   6.990  -1.353  0.00  0.00    +0.131 A 
ATOM      4  C   UNL     1      -3.051   7.473  -2.501  0.00  0.00    +0.051 A 
ATOM      5  C   UNL     1      -3.677   6.700  -3.587  0.00  0.00    -0.025 A 
ATOM      6  C   UNL     1      -4.270   7.400  -4.567  0.00  0.00    -0.004 A 
ATOM      7  S   UNL     1      -4.037   9.106  -4.123  0.00  0.00    -0.073 S 
ATOM      8  C   UNL     1      -3.142   8.872  -2.612  0.00  0.00    +0.114 A 
ATOM      9  N   UNL     1      -2.618   9.671  -1.702  0.00  0.00    -0.228 NA
ATOM     10  C   UNL     1      -4.877   6.507  -5.616  0.00  0.00    +0.043 C 
ATOM     11  C   UNL     1      -4.961   5.120  -4.943  0.00  0.00    +0.010 C 
ATOM     12  C   UNL     1      -3.829   5.209  -3.901  0.00  0.00    +0.037 C 
ATOM     13  N   UNL     1      -2.219   5.631  -1.143  0.00  0.00    -0.328 N 
ATOM     14  H   UNL     1      -2.585   4.999  -1.781  0.00  0.00    +0.147 HD
ENDROOT
BRANCH  13  15
ATOM     15  C   UNL     1      -1.510   5.146   0.044  0.00  0.00    +0.110 C 
BRANCH  15  16
ATOM     16  C   UNL     1      -1.490   3.616   0.036  0.00  0.00    -0.013 C 
ATOM     17  C   UNL     1      -0.773   3.123  -1.223  0.00  0.00    +0.012 C 
ATOM     18  C   UNL     1      -0.753   1.593  -1.232  0.00  0.00    -0.010 C 
ATOM     19  C   UNL     1      -0.013   1.086   0.008  0.00  0.00    +0.007 C 
ATOM     20  C   UNL     1      -0.729   1.579   1.267  0.00  0.00    -0.010 C 
ATOM     21  C   UNL     1      -0.750   3.109   1.275  0.00  0.00    +0.012 C 
ATOM     22  C   UNL     1      -2.164   1.050   1.278  0.00  0.00    +0.007 C 
ATOM     23  C   UNL     1      -2.904   1.556   0.038  0.00  0.00    -0.010 C 
ATOM     24  C   UNL     1      -2.188   1.063  -1.221  0.00  0.00    +0.007 C 
ATOM     25  C   UNL     1      -2.925   3.086   0.047  0.00  0.00    +0.012 C 
ENDBRANCH  15  16
ENDBRANCH  13  15
TORSDOF 2
