REMARK  Name = ZINC44587689
REMARK  4 active torsions:
REMARK  status: ('A' for Active; 'I' for Inactive)
REMARK    1  A    between atoms: C_5  and  C_6
REMARK    2  A    between atoms: N_8  and  C_9
REMARK    3  A    between atoms: C_9  and  C_17
REMARK    4  A    between atoms: N_18  and  O_19
REMARK                            x       y       z     vdW  Elec       q    Type
REMARK                         _______ _______ _______ _____ _____    ______ ____
ROOT
ATOM      1  C   UNL     1      -2.454  -2.518   0.008  0.00  0.00    +0.093 C 
ATOM      2  C   UNL     1      -3.772  -2.403  -0.713  0.00  0.00    +0.033 C 
ATOM      3  C   UNL     1      -3.787  -2.358  -2.229  0.00  0.00    +0.002 C 
ATOM      4  C   UNL     1      -2.848  -1.295  -2.806  0.00  0.00    +0.000 C 
ATOM      5  C   UNL     1      -1.688  -2.004  -3.529  0.00  0.00    +0.000 C 
ATOM      6  C   UNL     1      -0.707  -2.586  -2.510  0.00  0.00    +0.000 C 
ATOM      7  C   UNL     1      -1.318  -3.838  -1.886  0.00  0.00    +0.002 C 
ATOM      8  C   UNL     1      -1.576  -3.682  -0.404  0.00  0.00    +0.033 C 
ENDROOT
BRANCH   1   9
ATOM      9  C   UNL     1      -2.802  -2.766   1.487  0.00  0.00    +0.155 C 
ATOM     10  N   UNL     1      -3.563  -3.757   1.814  0.00  0.00    -0.075 NA
ATOM     11  N   UNL     1      -2.302  -1.931   2.461  0.00  0.00    -0.342 N 
ATOM     12  H   UNL     1      -1.621  -1.278   2.237  0.00  0.00    +0.144 HD
ATOM     13  H   UNL     1      -2.631  -1.996   3.371  0.00  0.00    +0.144 HD
BRANCH  10  14
ATOM     14  O   UNL     1      -3.977  -4.687   0.830  0.00  0.00    -0.408 OA
ATOM     15  H   UNL     1      -4.544  -5.393   1.169  0.00  0.00    +0.328 HD
ENDBRANCH  10  14
ENDBRANCH   1   9
BRANCH   1  18
ATOM     16  C   UNL     1      -2.305  -0.126   0.448  0.00  0.00    +0.266 C 
ATOM     17  O   UNL     1      -3.484  -0.134   0.743  0.00  0.00    -0.268 OA
ATOM     18  N   UNL     1      -1.713  -1.254   0.008  0.00  0.00    -0.298 N 
ATOM     19  H   UNL     1      -0.797  -1.229  -0.309  0.00  0.00    +0.150 HD
BRANCH  16  24
ATOM     20  C   UNL     1      -2.006   2.377   1.017  0.00  0.00    +0.077 A 
ATOM     21  C   UNL     1      -0.988   3.255   0.987  0.00  0.00    +0.231 A 
ATOM     22  O   UNL     1       0.106   2.616   0.547  0.00  0.00    -0.362 OA
ATOM     23  N   UNL     1      -0.246   1.269   0.288  0.00  0.00    -0.074 NA
ATOM     24  C   UNL     1      -1.518   1.125   0.571  0.00  0.00    +0.168 A 
ENDBRANCH  16  24
ENDBRANCH   1  18
TORSDOF 4
