REMARK  Name = ZINC64151017
REMARK  5 active torsions:
REMARK  status: ('A' for Active; 'I' for Inactive)
REMARK    1  A    between atoms: C_1  and  C_2
REMARK    2  A    between atoms: C_7  and  C_16
REMARK    3  A    between atoms: N_9  and  C_10
REMARK    4  A    between atoms: N_18  and  N_19
REMARK    5  A    between atoms: C_20  and  C_22
REMARK                            x       y       z     vdW  Elec       q    Type
REMARK                         _______ _______ _______ _____ _____    ______ ____
ROOT
ATOM      1  C   UNL     1      -1.695  -0.913   3.855  0.00  0.00    +0.283 C 
ATOM      2  O   UNL     1      -2.895  -0.826   4.037  0.00  0.00    -0.267 OA
ATOM      3  N   UNL     1      -0.882  -1.252   4.875  0.00  0.00    -0.229 N 
ATOM      4  H   UNL     1       0.075  -1.322   4.730  0.00  0.00    +0.173 HD
ENDROOT
BRANCH   1  10
ATOM      5  C   UNL     1      -0.019   1.526   0.010  0.00  0.00    +0.030 C 
ATOM      6  C   UNL     1       0.002  -0.004   0.002  0.00  0.00    +0.103 C 
ATOM      7  C   UNL     1      -1.438  -0.533   0.007  0.00  0.00    +0.105 C 
ATOM      8  C   UNL     1      -2.002  -0.275   1.394  0.00  0.00    +0.190 C 
ATOM      9  O   UNL     1      -3.103   0.207   1.562  0.00  0.00    -0.290 OA
ATOM     10  C   UNL     1      -1.131  -0.647   2.521  0.00  0.00    +0.187 C 
ATOM     11  N   UNL     1       0.167  -0.736   2.305  0.00  0.00    -0.171 NA
ATOM     12  N   UNL     1       0.713  -0.485   1.182  0.00  0.00    -0.220 N 
BRANCH  12  13
ATOM     13  C   UNL     1       2.090  -0.683   1.075  0.00  0.00    +0.052 A 
ATOM     14  C   UNL     1       2.741  -0.419  -0.125  0.00  0.00    +0.025 A 
ATOM     15  C   UNL     1       4.104  -0.616  -0.227  0.00  0.00    +0.002 A 
ATOM     16  C   UNL     1       4.821  -1.076   0.863  0.00  0.00    +0.000 A 
ATOM     17  C   UNL     1       4.177  -1.341   2.058  0.00  0.00    +0.002 A 
ATOM     18  C   UNL     1       2.815  -1.140   2.169  0.00  0.00    +0.025 A 
ENDBRANCH  12  13
ENDBRANCH   1  10
BRANCH   3  19
ATOM     19  N   UNL     1      -1.418  -1.505   6.144  0.00  0.00    -0.230 N 
ATOM     20  C   UNL     1      -0.605  -1.844   7.164  0.00  0.00    +0.258 C 
ATOM     21  O   UNL     1       0.595  -1.931   6.982  0.00  0.00    -0.269 OA
ATOM     22  H   UNL     1      -2.375  -1.435   6.289  0.00  0.00    +0.173 HD
BRANCH  20  23
ATOM     23  C   UNL     1      -1.167  -2.109   8.493  0.00  0.00    +0.044 C 
ATOM     24  C   UNL     1      -0.477  -2.458   9.633  0.00  0.00    +0.008 A 
ATOM     25  C   UNL     1       0.899  -2.668   9.901  0.00  0.00    +0.010 A 
ATOM     26  C   UNL     1       1.306  -3.014  11.141  0.00  0.00    +0.001 A 
ATOM     27  C   UNL     1       0.410  -3.180  12.210  0.00  0.00    +0.002 A 
ATOM     28  C   UNL     1      -0.921  -3.004  12.061  0.00  0.00    +0.026 A 
ATOM     29  C   UNL     1      -1.449  -2.626  10.741  0.00  0.00    +0.043 A 
ATOM     30  N   UNL     1      -2.662  -2.397  10.322  0.00  0.00    -0.380 N 
ATOM     31  C   UNL     1      -2.623  -2.048   8.899  0.00  0.00    +0.154 C 
ATOM     32  H   UNL     1      -3.463  -2.446  10.867  0.00  0.00    +0.160 HD
ENDBRANCH  20  23
ENDBRANCH   3  19
TORSDOF 4
