REMARK  Name = ZINC09059207
REMARK  9 active torsions:
REMARK  status: ('A' for Active; 'I' for Inactive)
REMARK    1  A    between atoms: C_1  and  C_2
REMARK    2  A    between atoms: C_2  and  C_24
REMARK    3  A    between atoms: N_3  and  N_4
REMARK    4  A    between atoms: C_10  and  C_13
REMARK    5  A    between atoms: N_15  and  C_16
REMARK    6  A    between atoms: C_21  and  O_22
REMARK    7  A    between atoms: O_22  and  C_23
REMARK    8  A    between atoms: C_27  and  O_31
REMARK    9  A    between atoms: O_31  and  C_32
REMARK                            x       y       z     vdW  Elec       q    Type
REMARK                         _______ _______ _______ _____ _____    ______ ____
ROOT
ATOM      1  N   UNL     1      -0.026  -1.912   1.134  0.00  0.00    -0.126 NA
ATOM      2  C   UNL     1      -0.013  -2.583   2.267  0.00  0.00    +0.183 C 
ATOM      3  N   UNL     1      -0.091  -3.964   2.286  0.00  0.00    -0.264 N 
ATOM      4  C   UNL     1      -0.389  -4.679   3.360  0.00  0.00    +0.220 C 
ATOM      5  O   UNL     1      -0.547  -5.867   3.174  0.00  0.00    -0.275 OA
ATOM      6  C   UNL     1      -0.557  -4.218   4.767  0.00  0.00    +0.120 C 
ATOM      7  C   UNL     1      -1.018  -2.761   4.853  0.00  0.00    +0.149 C 
ATOM      8  S   UNL     1       0.113  -1.756   3.829  0.00  0.00    -0.075 S 
ATOM      9  H   UNL     1       0.085  -4.440   1.459  0.00  0.00    +0.157 HD
ENDROOT
BRANCH   7  10
ATOM     10  C   UNL     1      -0.961  -2.293   6.285  0.00  0.00    +0.231 C 
ATOM     11  O   UNL     1      -0.084  -2.694   7.020  0.00  0.00    -0.274 OA
ATOM     12  N   UNL     1      -1.885  -1.428   6.748  0.00  0.00    -0.282 N 
ATOM     13  H   UNL     1      -2.632  -1.170   6.186  0.00  0.00    +0.155 HD
BRANCH  12  14
ATOM     14  C   UNL     1      -1.766  -0.902   8.041  0.00  0.00    +0.076 A 
ATOM     15  C   UNL     1      -0.522  -0.828   8.650  0.00  0.00    +0.027 A 
ATOM     16  C   UNL     1      -0.408  -0.308   9.926  0.00  0.00    +0.002 A 
ATOM     17  C   UNL     1      -1.531   0.138  10.598  0.00  0.00    +0.004 A 
ATOM     18  C   UNL     1      -2.774   0.067   9.997  0.00  0.00    +0.047 A 
ATOM     19  C   UNL     1      -2.897  -0.447   8.716  0.00  0.00    +0.141 A 
BRANCH  19  20
ATOM     20  O   UNL     1      -4.118  -0.512   8.122  0.00  0.00    -0.493 OA
ATOM     21  C   UNL     1      -5.232  -0.028   8.874  0.00  0.00    +0.277 C 
ENDBRANCH  19  20
ENDBRANCH  12  14
ENDBRANCH   7  10
BRANCH   1  24
ATOM     22  C   UNL     1       0.025   1.548   0.042  0.00  0.00    +0.068 C 
ATOM     23  C   UNL     1       0.040   0.042   0.024  0.00  0.00    +0.068 C 
ATOM     24  N   UNL     1       0.053  -0.625   1.147  0.00  0.00    -0.152 NA
BRANCH  23  25
ATOM     25  C   UNL     1       0.041  -0.679  -1.258  0.00  0.00    +0.001 A 
ATOM     26  C   UNL     1      -0.646  -1.891  -1.382  0.00  0.00    +0.013 A 
ATOM     27  C   UNL     1      -0.644  -2.563  -2.586  0.00  0.00    +0.049 A 
ATOM     28  C   UNL     1       0.039  -2.039  -3.675  0.00  0.00    +0.155 A 
ATOM     29  C   UNL     1       0.724  -0.834  -3.558  0.00  0.00    +0.165 A 
ATOM     30  C   UNL     1       0.723  -0.151  -2.359  0.00  0.00    +0.051 A 
ATOM     31  F   UNL     1       1.387  -0.329  -4.622  0.00  0.00    -0.202 F 
BRANCH  28  32
ATOM     32  O   UNL     1       0.038  -2.705  -4.860  0.00  0.00    -0.492 OA
ATOM     33  C   UNL     1      -0.685  -3.937  -4.911  0.00  0.00    +0.277 C 
ENDBRANCH  28  32
ENDBRANCH  23  25
ENDBRANCH   1  24
TORSDOF 6
