REMARK  Name = ZINC10888446
REMARK  7 active torsions:
REMARK  status: ('A' for Active; 'I' for Inactive)
REMARK    1  A    between atoms: C_1  and  C_2
REMARK    2  A    between atoms: C_2  and  C_3
REMARK    3  A    between atoms: C_2  and  C_4
REMARK    4  A    between atoms: C_2  and  C_5
REMARK    5  A    between atoms: C_12  and  C_14
REMARK    6  A    between atoms: N_16  and  N_17
REMARK    7  A    between atoms: C_18  and  C_20
REMARK                            x       y       z     vdW  Elec       q    Type
REMARK                         _______ _______ _______ _____ _____    ______ ____
ROOT
ATOM      1  C   UNL     1      -1.123  -0.940  -0.028  0.00  0.00    +0.267 C 
ATOM      2  O   UNL     1      -0.913  -2.138  -0.050  0.00  0.00    -0.268 OA
ATOM      3  N   UNL     1      -2.389  -0.478   0.003  0.00  0.00    -0.230 N 
ATOM      4  H   UNL     1      -2.556   0.478   0.021  0.00  0.00    +0.173 HD
ENDROOT
BRANCH   1  11
ATOM      5  C   UNL     1       4.400   1.945   0.375  0.00  0.00    -0.001 C 
ATOM      6  C   UNL     1       3.856   3.123  -0.438  0.00  0.00    +0.009 C 
ATOM      7  C   UNL     1       2.397   3.372  -0.030  0.00  0.00    +0.043 C 
ATOM      8  C   UNL     1       1.675   2.060  -0.034  0.00  0.00    -0.006 A 
ATOM      9  C   UNL     1       2.232   0.813  -0.063  0.00  0.00    -0.036 A 
ATOM     10  C   UNL     1       1.358  -0.261  -0.063  0.00  0.00    +0.024 A 
ATOM     11  C   UNL     1       0.001   0.002  -0.034  0.00  0.00    +0.076 A 
ATOM     12  S   UNL     1      -0.025   1.786  -0.006  0.00  0.00    -0.088 S 
ATOM     13  C   UNL     1       3.749   0.643  -0.093  0.00  0.00    +0.040 C 
BRANCH   5  15
ATOM     14  C   UNL     1       6.570   3.149   0.664  0.00  0.00    +0.011 C 
ATOM     15  C   UNL     1       5.915   1.852   0.184  0.00  0.00    -0.035 C 
ATOM     16  C   UNL     1       6.461   0.676   0.996  0.00  0.00    +0.011 C 
ATOM     17  C   UNL     1       6.231   1.639  -1.298  0.00  0.00    +0.011 C 
ENDBRANCH   5  15
ENDBRANCH   1  11
BRANCH   3  18
ATOM     18  N   UNL     1      -3.463  -1.377   0.009  0.00  0.00    -0.230 N 
ATOM     19  C   UNL     1      -4.729  -0.915   0.040  0.00  0.00    +0.265 C 
ATOM     20  O   UNL     1      -4.938   0.278   0.156  0.00  0.00    -0.268 OA
ATOM     21  H   UNL     1      -3.296  -2.332  -0.009  0.00  0.00    +0.173 HD
BRANCH  19  22
ATOM     22  C   UNL     1      -5.858  -1.854  -0.066  0.00  0.00    +0.103 A 
ATOM     23  C   UNL     1      -7.155  -1.381  -0.156  0.00  0.00    +0.028 A 
ATOM     24  C   UNL     1      -8.219  -2.309  -0.261  0.00  0.00    -0.001 A 
ATOM     25  C   UNL     1      -9.545  -1.857  -0.359  0.00  0.00    +0.010 A 
ATOM     26  C   UNL     1     -10.564  -2.759  -0.456  0.00  0.00    +0.001 A 
ATOM     27  C   UNL     1     -10.303  -4.123  -0.457  0.00  0.00    +0.002 A 
ATOM     28  C   UNL     1      -9.011  -4.590  -0.362  0.00  0.00    +0.026 A 
ATOM     29  C   UNL     1      -7.952  -3.691  -0.263  0.00  0.00    +0.049 A 
ATOM     30  N   UNL     1      -6.658  -4.156  -0.168  0.00  0.00    -0.321 N 
ATOM     31  H   UNL     1      -6.491  -5.111  -0.170  0.00  0.00    +0.169 HD
ATOM     32  C   UNL     1      -5.622  -3.302  -0.071  0.00  0.00    +0.261 A 
ATOM     33  O   UNL     1      -4.485  -3.732   0.012  0.00  0.00    -0.267 OA
ENDBRANCH  19  22
ENDBRANCH   3  18
TORSDOF 4
