REMARK  Name = ZINC36013871
REMARK  10 active torsions:
REMARK  status: ('A' for Active; 'I' for Inactive)
REMARK    1  A    between atoms: C_1  and  C_2
REMARK    2  A    between atoms: C_2  and  N_3
REMARK    3  A    between atoms: C_4  and  C_23
REMARK    4  A    between atoms: C_5  and  C_18
REMARK    5  A    between atoms: C_6  and  C_11
REMARK    6  A    between atoms: C_18  and  O_20
REMARK    7  A    between atoms: O_20  and  C_21
REMARK    8  A    between atoms: C_21  and  C_22
REMARK    9  A    between atoms: C_23  and  N_24
REMARK   10  A    between atoms: C_31  and  C_33
REMARK                            x       y       z     vdW  Elec       q    Type
REMARK                         _______ _______ _______ _____ _____    ______ ____
ROOT
ATOM      1  N   UNL     1       0.883  -0.497  -1.426  0.00  0.00    -0.261 N 
ATOM      2  C   UNL     1       0.031  -1.013  -2.361  0.00  0.00    +0.010 C 
ATOM      3  C   UNL     1       0.495  -1.736  -3.403  0.00  0.00    +0.076 C 
ATOM      4  C   UNL     1       1.992  -1.953  -3.499  0.00  0.00    +0.143 C 
ATOM      5  N   UNL     1       2.823  -1.355  -2.441  0.00  0.00    -0.288 N 
ATOM      6  C   UNL     1       2.212  -0.654  -1.465  0.00  0.00    +0.307 C 
ATOM      7  O   UNL     1       2.889  -0.153  -0.589  0.00  0.00    -0.252 OA
ATOM      8  H   UNL     1       3.787  -1.459  -2.448  0.00  0.00    +0.151 HD
ENDROOT
BRANCH   4   9
ATOM      9  C   UNL     1       2.457  -1.402  -4.822  0.00  0.00    -0.022 A 
ATOM     10  C   UNL     1       2.666  -0.043  -4.969  0.00  0.00    +0.007 A 
ATOM     11  C   UNL     1       3.092   0.464  -6.183  0.00  0.00    +0.020 A 
ATOM     12  C   UNL     1       3.311  -0.389  -7.250  0.00  0.00    +0.041 A 
ATOM     13  C   UNL     1       3.102  -1.749  -7.102  0.00  0.00    +0.020 A 
ATOM     14  C   UNL     1       2.680  -2.255  -5.887  0.00  0.00    +0.007 A 
ATOM     15 CL   UNL     1       3.846   0.246  -8.774  0.00  0.00    -0.084 Cl
ENDBRANCH   4   9
BRANCH   1  17
ATOM     16  C   UNL     1       0.349   1.766  -0.669  0.00  0.00    +0.025 C 
ATOM     17  C   UNL     1       0.310   0.277  -0.322  0.00  0.00    +0.111 C 
ENDBRANCH   1  17
BRANCH   3  18
ATOM     18  C   UNL     1      -0.386  -2.272  -4.371  0.00  0.00    +0.339 C 
ATOM     19  O   UNL     1      -1.573  -2.013  -4.323  0.00  0.00    -0.245 OA
BRANCH  18  20
ATOM     20  O   UNL     1       0.092  -3.071  -5.349  0.00  0.00    -0.462 OA
BRANCH  20  21
ATOM     21  C   UNL     1      -0.855  -3.577  -6.293  0.00  0.00    +0.229 C 
ATOM     22  C   UNL     1      -0.133  -4.455  -7.316  0.00  0.00    +0.048 C 
ENDBRANCH  20  21
ENDBRANCH  18  20
ENDBRANCH   3  18
BRANCH   2  23
ATOM     23  C   UNL     1      -1.450  -0.773  -2.227  0.00  0.00    -0.026 C 
BRANCH  23  24
ATOM     24  N   UNL     1      -2.087  -1.957  -1.633  0.00  0.00    +0.384 N 
ATOM     25  C   UNL     1      -3.536  -1.794  -1.722  0.00  0.00    -0.077 C 
ATOM     26  C   UNL     1      -4.186  -3.157  -1.820  0.00  0.00    +0.000 C 
ATOM     27  C   UNL     1      -4.580  -3.639  -0.413  0.00  0.00    +0.106 C 
ATOM     28  N   UNL     1      -3.540  -3.295   0.578  0.00  0.00    -0.299 N 
ATOM     29  C   UNL     1      -2.126  -3.432   0.296  0.00  0.00    +0.089 C 
ATOM     30  C   UNL     1      -1.585  -2.122  -0.323  0.00  0.00    -0.059 C 
ATOM     31  C   UNL     1      -3.920  -2.838   1.787  0.00  0.00    +0.253 C 
ATOM     32  O   UNL     1      -5.100  -2.816   2.086  0.00  0.00    -0.269 OA
ATOM     33  H   UNL     1      -1.825  -2.764  -2.178  0.00  0.00    -0.081 HD
BRANCH  31  34
ATOM     34  C   UNL     1      -2.913  -2.366   2.742  0.00  0.00    +0.074 A 
ATOM     35  C   UNL     1      -3.075  -1.983   4.065  0.00  0.00    +0.021 A 
ATOM     36  C   UNL     1      -1.932  -1.582   4.714  0.00  0.00    +0.008 A 
ATOM     37  C   UNL     1      -0.755  -1.587   4.040  0.00  0.00    +0.046 A 
ATOM     38  S   UNL     1      -1.160  -2.142   2.507  0.00  0.00    -0.092 S 
ENDBRANCH  31  34
ENDBRANCH  23  24
ENDBRANCH   2  23
TORSDOF 8
