REMARK  Name = ZINC42130620
REMARK  8 active torsions:
REMARK  status: ('A' for Active; 'I' for Inactive)
REMARK    1  A    between atoms: C_1  and  C_2
REMARK    2  A    between atoms: C_3  and  N_14
REMARK    3  A    between atoms: C_4  and  C_13
REMARK    4  A    between atoms: N_5  and  C_7
REMARK    5  A    between atoms: C_15  and  C_17
REMARK    6  A    between atoms: C_17  and  C_19
REMARK    7  A    between atoms: C_17  and  S_20
REMARK    8  A    between atoms: S_20  and  C_21
REMARK                            x       y       z     vdW  Elec       q    Type
REMARK                         _______ _______ _______ _____ _____    ______ ____
ROOT
ATOM      1  N   UNL     1      -0.015  -0.280  -2.450  0.00  0.00    -0.282 N 
ATOM      2  C   UNL     1       0.603   0.882  -2.741  0.00  0.00    +0.230 C 
ATOM      3  O   UNL     1       1.248   1.456  -1.889  0.00  0.00    -0.274 OA
ATOM      4  H   UNL     1      -0.494  -0.761  -3.142  0.00  0.00    +0.155 HD
ENDROOT
BRANCH   1   7
ATOM      5  C   UNL     1      -1.060   1.214   0.076  0.00  0.00    +0.069 C 
ATOM      6  C   UNL     1      -0.425  -0.151   0.018  0.00  0.00    +0.082 A 
ATOM      7  C   UNL     1       0.035  -0.795  -1.141  0.00  0.00    +0.078 A 
ATOM      8  C   UNL     1       0.536  -2.002  -0.775  0.00  0.00    +0.063 A 
ATOM      9  N   UNL     1       0.395  -2.113   0.573  0.00  0.00    -0.235 N 
ATOM     10  N   UNL     1      -0.205  -0.937   1.041  0.00  0.00    -0.170 NA
ATOM     11  C   UNL     1       1.138  -3.032  -1.696  0.00  0.00    +0.068 C 
BRANCH   9  12
ATOM     12  C   UNL     1       0.784  -3.209   1.356  0.00  0.00    +0.066 A 
ATOM     13  C   UNL     1       2.023  -3.803   1.154  0.00  0.00    +0.028 A 
ATOM     14  C   UNL     1       2.404  -4.882   1.927  0.00  0.00    +0.002 A 
ATOM     15  C   UNL     1       1.554  -5.371   2.902  0.00  0.00    +0.000 A 
ATOM     16  C   UNL     1       0.319  -4.781   3.105  0.00  0.00    +0.002 A 
ATOM     17  C   UNL     1      -0.065  -3.698   2.339  0.00  0.00    +0.028 A 
ENDBRANCH   9  12
ENDBRANCH   1   7
BRANCH   2  18
ATOM     18  C   UNL     1       0.492   1.469  -4.125  0.00  0.00    +0.136 C 
ATOM     19  C   UNL     1       1.472   0.758  -5.060  0.00  0.00    +0.029 C 
BRANCH  18  20
ATOM     20  S   UNL     1       0.889   3.238  -4.065  0.00  0.00    -0.084 S 
BRANCH  20  21
ATOM     21  C   UNL     1       0.574   3.801  -5.705  0.00  0.00    +0.161 A 
ATOM     22  N   UNL     1       0.144   3.124  -6.753  0.00  0.00    -0.133 NA
ATOM     23  N   UNL     1      -0.037   3.768  -7.955  0.00  0.00    -0.125 NA
ATOM     24  C   UNL     1       0.221   5.057  -8.055  0.00  0.00    +0.180 A 
ATOM     25  S   UNL     1       0.744   5.441  -6.391  0.00  0.00    -0.025 S 
ATOM     26  N   UNL     1       0.110   5.894  -9.159  0.00  0.00    -0.336 N 
ATOM     27  H   UNL     1      -0.196   5.540 -10.008  0.00  0.00    +0.144 HD
ATOM     28  H   UNL     1       0.339   6.834  -9.080  0.00  0.00    +0.144 HD
ENDBRANCH  20  21
ENDBRANCH  18  20
ENDBRANCH   2  18
TORSDOF 5
