REMARK  Name = ZINC01352996
REMARK  7 active torsions:
REMARK  status: ('A' for Active; 'I' for Inactive)
REMARK    1  A    between atoms: C_1  and  C_2
REMARK    2  A    between atoms: C_9  and  C_14
REMARK    3  A    between atoms: C_14  and  N_15
REMARK    4  A    between atoms: N_15  and  C_16
REMARK    5  A    between atoms: C_16  and  C_17
REMARK    6  A    between atoms: C_17  and  O_18
REMARK    7  A    between atoms: N_21  and  C_22
REMARK                            x       y       z     vdW  Elec       q    Type
REMARK                         _______ _______ _______ _____ _____    ______ ____
ROOT
ATOM      1  N   UNL     1      -2.345   0.934   0.018  0.00  0.00    -0.279 N 
ATOM      2  C   UNL     1      -1.187   1.624   0.017  0.00  0.00    +0.303 C 
ATOM      3  O   UNL     1      -1.204   2.840   0.023  0.00  0.00    -0.253 OA
ATOM      4  N   UNL     1      -0.011   0.966   0.007  0.00  0.00    -0.296 N 
ATOM      5  H   UNL     1       0.004  -0.134   0.006  0.00  0.00    +0.151 HD
ENDROOT
BRANCH   4   6
ATOM      6  C   UNL     1       1.248   1.716  -0.001  0.00  0.00    +0.074 C 
ATOM      7  C   UNL     1       1.608   2.092  -1.439  0.00  0.00    +0.022 C 
ATOM      8  C   UNL     1       2.922   2.875  -1.448  0.00  0.00    +0.002 C 
ATOM      9  C   UNL     1       4.035   2.010  -0.853  0.00  0.00    +0.000 C 
ATOM     10  C   UNL     1       3.675   1.633   0.585  0.00  0.00    +0.002 C 
ATOM     11  C   UNL     1       2.361   0.850   0.594  0.00  0.00    +0.022 C 
ENDBRANCH   4   6
BRANCH   1  12
ATOM     12  C   UNL     1      -3.624   1.649   0.028  0.00  0.00    +0.150 C 
BRANCH  12  21
ATOM     13  C   UNL     1      -7.528  -0.175  -6.058  0.00  0.00    +0.044 C 
ATOM     14  C   UNL     1      -6.581   0.744  -5.331  0.00  0.00    -0.050 A 
ATOM     15  C   UNL     1      -6.087   1.871  -5.974  0.00  0.00    +0.005 A 
ATOM     16  C   UNL     1      -5.220   2.726  -5.328  0.00  0.00    +0.026 A 
ATOM     17  C   UNL     1      -4.834   2.458  -4.019  0.00  0.00    +0.049 A 
ATOM     18  C   UNL     1      -5.337   1.314  -3.370  0.00  0.00    -0.001 A 
ATOM     19  C   UNL     1      -6.216   0.461  -4.046  0.00  0.00    +0.013 A 
ATOM     20  C   UNL     1      -4.920   1.037  -1.994  0.00  0.00    +0.020 A 
ATOM     21  C   UNL     1      -4.069   1.902  -1.389  0.00  0.00    +0.035 A 
ATOM     22  C   UNL     1      -3.594   3.035  -2.084  0.00  0.00    +0.254 A 
ATOM     23  O   UNL     1      -2.826   3.798  -1.522  0.00  0.00    -0.268 OA
ATOM     24  N   UNL     1      -3.967   3.295  -3.349  0.00  0.00    -0.322 N 
ATOM     25  H   UNL     1      -3.571   4.191  -3.850  0.00  0.00    +0.169 HD
ENDBRANCH  12  21
ENDBRANCH   1  12
BRANCH   1  26
ATOM     26  C   UNL     1      -2.325  -0.531   0.010  0.00  0.00    +0.137 C 
BRANCH  26  27
ATOM     27  C   UNL     1      -2.312  -1.048   1.450  0.00  0.00    +0.175 C 
BRANCH  27  28
ATOM     28  O   UNL     1      -3.535  -0.691   2.096  0.00  0.00    -0.393 OA
ATOM     29  H   UNL     1      -3.708  -0.979   3.144  0.00  0.00    +0.209 HD
ENDBRANCH  27  28
ENDBRANCH  26  27
ENDBRANCH   1  26
TORSDOF 6
