REMARK  Name = ZINC39626833
REMARK  10 active torsions:
REMARK  status: ('A' for Active; 'I' for Inactive)
REMARK    1  A    between atoms: C_1  and  C_2
REMARK    2  A    between atoms: C_2  and  N_3
REMARK    3  A    between atoms: N_3  and  C_4
REMARK    4  A    between atoms: N_3  and  C_6
REMARK    5  A    between atoms: C_4  and  C_5
REMARK    6  A    between atoms: C_6  and  C_7
REMARK    7  A    between atoms: C_7  and  N_8
REMARK    8  A    between atoms: C_9  and  C_11
REMARK    9  A    between atoms: C_22  and  C_24
REMARK   10  A    between atoms: C_24  and  C_30
REMARK                            x       y       z     vdW  Elec       q    Type
REMARK                         _______ _______ _______ _____ _____    ______ ____
ROOT
ATOM      1  C   UNL     1      -1.729  -5.540  -2.103  0.00  0.00    +0.100 C 
ATOM      2  C   UNL     1      -0.871  -5.887  -3.340  0.00  0.00    +0.121 C 
ATOM      3  N   UNL     1      -1.550  -7.053  -3.952  0.00  0.00    -0.300 N 
ATOM      4  C   UNL     1      -2.995  -6.753  -3.812  0.00  0.00    +0.115 C 
ATOM      5  C   UNL     1      -3.123  -6.109  -2.417  0.00  0.00    -0.004 C 
ATOM      6  C   UNL     1      -4.157  -4.989  -2.446  0.00  0.00    -0.010 C 
ATOM      7  C   UNL     1      -5.543  -5.586  -2.702  0.00  0.00    -0.082 C 
ATOM      8  N   UNL     1      -5.866  -6.550  -1.642  0.00  0.00    +0.379 N 
ATOM      9  C   UNL     1      -4.921  -7.672  -1.681  0.00  0.00    -0.082 C 
ATOM     10  C   UNL     1      -3.508  -7.162  -1.382  0.00  0.00    -0.010 C 
ATOM     11  C   UNL     1      -0.982  -8.141  -4.510  0.00  0.00    +0.222 C 
ATOM     12  O   UNL     1      -1.675  -8.978  -5.048  0.00  0.00    -0.275 OA
ATOM     13  H   UNL     1      -5.807  -6.092  -0.745  0.00  0.00    -0.086 HD
ATOM     14  H   UNL     1      -6.804  -6.896  -1.779  0.00  0.00    -0.086 HD
ENDROOT
BRANCH  11  15
ATOM     15  C   UNL     1       0.514  -8.317  -4.464  0.00  0.00    +0.044 C 
ATOM     16  C   UNL     1       1.190  -7.090  -5.078  0.00  0.00    +0.016 C 
ATOM     17  C   UNL     1       0.739  -6.932  -6.531  0.00  0.00    +0.001 C 
ATOM     18  C   UNL     1       1.130  -8.181  -7.325  0.00  0.00    +0.000 C 
ATOM     19  C   UNL     1       0.453  -9.408  -6.711  0.00  0.00    +0.001 C 
ATOM     20  C   UNL     1       0.904  -9.565  -5.258  0.00  0.00    +0.016 C 
ATOM     21  C   UNL     1       0.965  -8.475  -3.011  0.00  0.00    +0.021 C 
ENDBRANCH  11  15
BRANCH   1  23
ATOM     22  N   UNL     1      -1.932  -3.526  -0.681  0.00  0.00    -0.317 N 
ATOM     23  C   UNL     1      -1.802  -4.046  -1.917  0.00  0.00    +0.218 C 
ATOM     24  O   UNL     1      -1.744  -3.312  -2.881  0.00  0.00    -0.275 OA
ATOM     25  H   UNL     1      -1.979  -4.114   0.090  0.00  0.00    +0.149 HD
BRANCH  22  26
ATOM     26  C   UNL     1      -2.003  -2.074  -0.500  0.00  0.00    +0.085 C 
BRANCH  26  27
ATOM     27  C   UNL     1      -2.149  -1.752   0.988  0.00  0.00    -0.060 C 
BRANCH  27  28
ATOM     28  N   UNL     1      -2.220  -0.295   1.169  0.00  0.00    +0.380 N 
ATOM     29  H   UNL     1      -1.415   0.137   0.740  0.00  0.00    -0.082 HD
BRANCH  28  31
ATOM     30  C   UNL     1      -3.448   1.746   0.601  0.00  0.00    -0.017 C 
ATOM     31  C   UNL     1      -3.444   0.217   0.539  0.00  0.00    -0.082 C 
ENDBRANCH  28  31
BRANCH  28  32
ATOM     32  C   UNL     1      -2.239   0.019   2.604  0.00  0.00    -0.082 C 
ATOM     33  C   UNL     1      -0.903  -0.383   3.232  0.00  0.00    -0.017 C 
ENDBRANCH  28  32
ENDBRANCH  27  28
ENDBRANCH  26  27
ENDBRANCH  22  26
ENDBRANCH   1  23
TORSDOF 7
