REMARK  Name = ZINC18267937
REMARK  4 active torsions:
REMARK  status: ('A' for Active; 'I' for Inactive)
REMARK    1  A    between atoms: C_1  and  C_2
REMARK    2  A    between atoms: C_9  and  C_11
REMARK    3  A    between atoms: C_11  and  N_12
REMARK    4  A    between atoms: C_13  and  C_15
REMARK                            x       y       z     vdW  Elec       q    Type
REMARK                         _______ _______ _______ _____ _____    ______ ____
ROOT
ATOM      1  N   UNL     1       3.046   0.971   3.673  0.00  0.00    -0.306 N 
ATOM      2  C   UNL     1       3.907   0.742   4.685  0.00  0.00    +0.220 C 
ATOM      3  O   UNL     1       4.156  -0.396   5.023  0.00  0.00    -0.275 OA
ATOM      4  H   UNL     1       2.846   1.881   3.403  0.00  0.00    +0.149 HD
ENDROOT
BRANCH   2   5
ATOM      5  C   UNL     1       4.559   1.900   5.396  0.00  0.00    +0.049 C 
ATOM      6  C   UNL     1       3.481   2.787   6.021  0.00  0.00    +0.019 C 
ATOM      7  C   UNL     1       4.143   3.962   6.743  0.00  0.00    -0.008 C 
ATOM      8  C   UNL     1       5.067   3.432   7.841  0.00  0.00    +0.007 C 
ATOM      9  C   UNL     1       6.145   2.544   7.215  0.00  0.00    -0.008 C 
ATOM     10  C   UNL     1       5.483   1.369   6.493  0.00  0.00    +0.019 C 
ATOM     11  C   UNL     1       6.962   3.363   6.213  0.00  0.00    +0.026 C 
ATOM     12  C   UNL     1       6.038   3.894   5.115  0.00  0.00    +0.047 C 
ATOM     13  C   UNL     1       4.960   4.781   5.741  0.00  0.00    +0.026 C 
ATOM     14  C   UNL     1       5.375   2.719   4.394  0.00  0.00    +0.039 C 
ATOM     15 CL   UNL     1       7.000   4.859   3.935  0.00  0.00    -0.118 Cl
ENDBRANCH   2   5
BRANCH   1  16
ATOM     16  C   UNL     1       2.412  -0.154   2.982  0.00  0.00    +0.200 C 
BRANCH  16  24
ATOM     17  C   UNL     1      -0.017   1.526   0.009  0.00  0.00    +0.028 C 
ATOM     18  C   UNL     1       0.003  -0.004   0.001  0.00  0.00    +0.073 C 
ATOM     19  C   UNL     1      -1.426  -0.537   0.144  0.00  0.00    +0.022 C 
ATOM     20  C   UNL     1      -1.387  -2.061   0.276  0.00  0.00    +0.003 C 
ATOM     21  C   UNL     1      -0.600  -2.447   1.530  0.00  0.00    +0.019 C 
ATOM     22  C   UNL     1       0.838  -1.935   1.403  0.00  0.00    +0.108 C 
ATOM     23  N   UNL     1       0.808  -0.492   1.130  0.00  0.00    -0.297 N 
ATOM     24  C   UNL     1       1.502   0.368   1.901  0.00  0.00    +0.233 C 
ATOM     25  O   UNL     1       1.393   1.563   1.725  0.00  0.00    -0.274 OA
ENDBRANCH  16  24
ENDBRANCH   1  16
TORSDOF 3
