REMARK  Name = ZINC53811392
REMARK  10 active torsions:
REMARK  status: ('A' for Active; 'I' for Inactive)
REMARK    1  A    between atoms: C_1  and  C_2
REMARK    2  A    between atoms: C_11  and  C_14
REMARK    3  A    between atoms: C_14  and  N_15
REMARK    4  A    between atoms: C_16  and  C_18
REMARK    5  A    between atoms: C_18  and  N_19
REMARK    6  A    between atoms: C_20  and  C_22
REMARK    7  A    between atoms: C_22  and  C_23
REMARK    8  A    between atoms: C_23  and  C_24
REMARK    9  A    between atoms: C_23  and  C_25
REMARK   10  A    between atoms: C_23  and  C_26
REMARK                            x       y       z     vdW  Elec       q    Type
REMARK                         _______ _______ _______ _____ _____    ______ ____
ROOT
ATOM      1  C   UNL     1      -4.190  -5.503  -3.179  0.00  0.00    +0.141 C 
ENDROOT
BRANCH   1  12
ATOM      2  C   UNL     1       0.024   1.508  -0.007  0.00  0.00    +0.039 C 
ATOM      3  C   UNL     1       0.027  -0.022  -0.001  0.00  0.00    +0.132 C 
ATOM      4  C   UNL     1      -1.417  -0.537   0.005  0.00  0.00    +0.137 C 
ATOM      5  N   UNL     1      -1.389  -1.995   0.200  0.00  0.00    -0.312 N 
ATOM      6  C   UNL     1      -0.594  -2.529   1.318  0.00  0.00    +0.134 C 
ATOM      7  C   UNL     1       0.810  -1.917   1.248  0.00  0.00    +0.179 C 
ATOM      8  O   UNL     1       0.700  -0.493   1.170  0.00  0.00    -0.374 OA
ATOM      9  C   UNL     1      -2.091  -2.844  -0.647  0.00  0.00    +0.099 A 
ATOM     10  C   UNL     1      -2.930  -2.308  -1.620  0.00  0.00    +0.042 A 
ATOM     11  C   UNL     1      -3.623  -3.164  -2.456  0.00  0.00    +0.010 A 
ATOM     12  C   UNL     1      -3.455  -4.533  -2.291  0.00  0.00    -0.014 A 
ATOM     13  C   UNL     1      -2.607  -4.996  -1.305  0.00  0.00    +0.089 A 
ATOM     14  N   UNL     1      -1.953  -4.155  -0.525  0.00  0.00    -0.349 N 
ATOM     15  H   UNL     1      -1.360  -4.507   0.158  0.00  0.00    +0.167 HD
ENDBRANCH   1  12
BRANCH   1  16
ATOM     16  N   UNL     1      -3.377  -5.796  -4.362  0.00  0.00    -0.310 N 
ATOM     17  C   UNL     1      -3.837  -6.645  -5.302  0.00  0.00    +0.230 C 
ATOM     18  O   UNL     1      -4.923  -7.167  -5.169  0.00  0.00    -0.274 OA
ATOM     19  H   UNL     1      -2.508  -5.379  -4.468  0.00  0.00    +0.149 HD
BRANCH  17  20
ATOM     20  C   UNL     1      -3.000  -6.946  -6.519  0.00  0.00    +0.200 C 
BRANCH  20  21
ATOM     21  N   UNL     1      -3.716  -7.889  -7.382  0.00  0.00    -0.307 N 
ATOM     22  C   UNL     1      -3.156  -8.305  -8.535  0.00  0.00    +0.214 C 
ATOM     23  O   UNL     1      -2.060  -7.898  -8.859  0.00  0.00    -0.276 OA
ATOM     24  H   UNL     1      -4.592  -8.215  -7.123  0.00  0.00    +0.149 HD
BRANCH  22  25
ATOM     25  C   UNL     1      -3.892  -9.275  -9.423  0.00  0.00    +0.102 C 
BRANCH  25  26
ATOM     26  C   UNL     1      -3.042  -9.581 -10.659  0.00  0.00    -0.029 C 
ATOM     27  C   UNL     1      -1.712 -10.197 -10.223  0.00  0.00    +0.011 C 
ATOM     28  C   UNL     1      -3.790 -10.566 -11.560  0.00  0.00    +0.011 C 
ATOM     29  C   UNL     1      -2.777  -8.286 -11.428  0.00  0.00    +0.011 C 
ENDBRANCH  25  26
ENDBRANCH  22  25
ENDBRANCH  20  21
ENDBRANCH  17  20
ENDBRANCH   1  16
TORSDOF 6
