REMARK  Name = ZINC66931141
REMARK  6 active torsions:
REMARK  status: ('A' for Active; 'I' for Inactive)
REMARK    1  A    between atoms: C_1  and  C_2
REMARK    2  A    between atoms: C_3  and  C_24
REMARK    3  A    between atoms: C_8  and  C_9
REMARK    4  A    between atoms: N_11  and  C_12
REMARK    5  A    between atoms: C_12  and  C_13
REMARK    6  A    between atoms: C_13  and  O_23
REMARK                            x       y       z     vdW  Elec       q    Type
REMARK                         _______ _______ _______ _____ _____    ______ ____
ROOT
ATOM      1  C   UNL     1      -0.912   2.166   4.431  0.00  0.00    +0.250 C 
ATOM      2  O   UNL     1      -1.484   1.120   4.192  0.00  0.00    -0.270 OA
ATOM      3  N   UNL     1       0.430   2.187   4.553  0.00  0.00    -0.308 N 
ATOM      4  H   UNL     1       0.887   3.021   4.744  0.00  0.00    +0.149 HD
ENDROOT
BRANCH   1  12
ATOM      5  C   UNL     1      -1.918   2.984   7.074  0.00  0.00    +0.046 C 
ATOM      6  C   UNL     1      -2.172   3.813   5.841  0.00  0.00    -0.010 A 
ATOM      7  C   UNL     1      -2.886   4.998   5.912  0.00  0.00    +0.064 A 
ATOM      8  N   UNL     1      -3.098   5.710   4.822  0.00  0.00    -0.151 NA
ATOM      9  N   UNL     1      -2.665   5.353   3.668  0.00  0.00    -0.106 NA
ATOM     10  C   UNL     1      -1.971   4.239   3.487  0.00  0.00    +0.301 A 
ATOM     11  O   UNL     1      -1.534   3.900   2.251  0.00  0.00    -0.263 OA
ATOM     12  C   UNL     1      -1.688   3.414   4.589  0.00  0.00    +0.109 A 
ATOM     13  C   UNL     1      -3.422   5.476   7.237  0.00  0.00    +0.068 C 
ENDBRANCH   1  12
BRANCH   3  14
ATOM     14  C   UNL     1       1.199   0.950   4.396  0.00  0.00    +0.144 C 
BRANCH  14  15
ATOM     15  C   UNL     1       2.671   1.221   4.713  0.00  0.00    +0.107 C 
ATOM     16  C   UNL     1       2.786   1.783   6.129  0.00  0.00    +0.041 C 
ATOM     17  C   UNL     1       4.271   1.843   6.507  0.00  0.00    +0.008 C 
ATOM     18  C   UNL     1       4.779   0.414   6.687  0.00  0.00    +0.035 C 
ATOM     19  C   UNL     1       4.422  -0.430   5.492  0.00  0.00    -0.041 A 
ATOM     20  C   UNL     1       3.451  -0.061   4.588  0.00  0.00    -0.011 A 
ATOM     21  C   UNL     1       3.165  -0.889   3.510  0.00  0.00    +0.007 A 
ATOM     22  C   UNL     1       3.848  -2.075   3.336  0.00  0.00    +0.000 A 
ATOM     23  C   UNL     1       4.825  -2.444   4.241  0.00  0.00    +0.000 A 
ATOM     24  C   UNL     1       5.109  -1.624   5.314  0.00  0.00    +0.004 A 
BRANCH  15  25
ATOM     25  O   UNL     1       3.185   2.178   3.784  0.00  0.00    -0.382 OA
ATOM     26  H   UNL     1       3.137   1.894   2.861  0.00  0.00    +0.211 HD
ENDBRANCH  15  25
ENDBRANCH  14  15
ENDBRANCH   3  14
TORSDOF 4
