REMARK  Name = ZINC40731961
REMARK  6 active torsions:
REMARK  status: ('A' for Active; 'I' for Inactive)
REMARK    1  A    between atoms: C_1  and  C_2
REMARK    2  A    between atoms: C_10  and  N_29
REMARK    3  A    between atoms: C_11  and  N_15
REMARK    4  A    between atoms: N_15  and  N_16
REMARK    5  A    between atoms: N_16  and  C_17
REMARK    6  A    between atoms: N_16  and  C_23
REMARK                            x       y       z     vdW  Elec       q    Type
REMARK                         _______ _______ _______ _____ _____    ______ ____
ROOT
ATOM      1  C   UNL     1      -1.005  -1.706   3.130  0.00  0.00    +0.028 C 
ATOM      2  C   UNL     1      -0.256  -2.215   1.896  0.00  0.00    +0.072 C 
ATOM      3  C   UNL     1      -1.230  -2.344   0.721  0.00  0.00    +0.022 C 
ATOM      4  C   UNL     1      -0.452  -2.718  -0.542  0.00  0.00    +0.003 C 
ATOM      5  C   UNL     1       0.556  -1.614  -0.869  0.00  0.00    +0.019 C 
ATOM      6  C   UNL     1       1.550  -1.478   0.288  0.00  0.00    +0.107 C 
ATOM      7  N   UNL     1       0.803  -1.263   1.535  0.00  0.00    -0.311 N 
ATOM      8  C   UNL     1       1.089  -0.177   2.354  0.00  0.00    +0.147 A 
ATOM      9  C   UNL     1       2.055  -0.282   3.357  0.00  0.00    +0.105 A 
ATOM     10  C   UNL     1       2.303   0.839   4.152  0.00  0.00    +0.139 A 
ATOM     11  N   UNL     1       1.615   1.955   3.926  0.00  0.00    -0.332 N 
ATOM     12  C   UNL     1       0.711   2.011   2.968  0.00  0.00    +0.200 A 
ATOM     13  N   UNL     1       0.451   0.979   2.192  0.00  0.00    -0.221 NA
ATOM     14  H   UNL     1       1.781   2.738   4.473  0.00  0.00    +0.168 HD
ENDROOT
BRANCH   9  15
ATOM     15  N   UNL     1       2.757  -1.481   3.561  0.00  0.00    -0.353 N 
ATOM     16  H   UNL     1       2.640  -2.222   2.946  0.00  0.00    +0.143 HD
ATOM     17  H   UNL     1       3.359  -1.568   4.317  0.00  0.00    +0.143 HD
ENDBRANCH   9  15
BRANCH  10  18
ATOM     18  N   UNL     1       3.254   0.789   5.165  0.00  0.00    -0.243 N 
ATOM     19  H   UNL     1       3.751  -0.029   5.323  0.00  0.00    +0.172 HD
BRANCH  18  20
ATOM     20  N   UNL     1       3.494   1.919   5.956  0.00  0.00    -0.221 N 
BRANCH  20  21
ATOM     21  C   UNL     1       3.010   1.972   7.265  0.00  0.00    +0.053 A 
ATOM     22  C   UNL     1       1.692   1.624   7.534  0.00  0.00    +0.025 A 
ATOM     23  C   UNL     1       1.216   1.677   8.830  0.00  0.00    +0.002 A 
ATOM     24  C   UNL     1       2.050   2.075   9.858  0.00  0.00    +0.000 A 
ATOM     25  C   UNL     1       3.362   2.423   9.594  0.00  0.00    +0.002 A 
ATOM     26  C   UNL     1       3.846   2.366   8.302  0.00  0.00    +0.025 A 
ENDBRANCH  20  21
BRANCH  20  27
ATOM     27  C   UNL     1       4.219   2.995   5.436  0.00  0.00    +0.053 A 
ATOM     28  C   UNL     1       5.172   2.780   4.448  0.00  0.00    +0.025 A 
ATOM     29  C   UNL     1       5.886   3.845   3.936  0.00  0.00    +0.002 A 
ATOM     30  C   UNL     1       5.654   5.125   4.405  0.00  0.00    +0.000 A 
ATOM     31  C   UNL     1       4.707   5.343   5.389  0.00  0.00    +0.002 A 
ATOM     32  C   UNL     1       3.984   4.283   5.901  0.00  0.00    +0.025 A 
ENDBRANCH  20  27
ENDBRANCH  18  20
ENDBRANCH  10  18
TORSDOF 5
