REMARK  Name = ZINC37334673
REMARK  4 active torsions:
REMARK  status: ('A' for Active; 'I' for Inactive)
REMARK    1  A    between atoms: C_3  and  O_8
REMARK    2  A    between atoms: O_8  and  C_9
REMARK    3  A    between atoms: C_12  and  C_18
REMARK    4  A    between atoms: C_14  and  C_15
REMARK                            x       y       z     vdW  Elec       q    Type
REMARK                         _______ _______ _______ _____ _____    ______ ____
ROOT
ATOM      1  C   UNL     1       4.716   1.396   0.178  0.00  0.00    +0.139 A 
ATOM      2  C   UNL     1       4.702   0.009   0.156  0.00  0.00    +0.047 A 
ATOM      3  C   UNL     1       5.890  -0.695   0.127  0.00  0.00    +0.016 A 
ATOM      4  C   UNL     1       7.102  -0.024   0.119  0.00  0.00    +0.056 A 
ATOM      5  C   UNL     1       7.133   1.354   0.140  0.00  0.00    +0.027 A 
ATOM      6  C   UNL     1       5.940   2.078   0.164  0.00  0.00    +0.055 A 
ENDROOT
BRANCH   6   7
ATOM      7  C   UNL     1       5.967   3.554   0.180  0.00  0.00    +0.098 C 
ATOM      8  N   UNL     1       6.647   4.198   1.128  0.00  0.00    -0.387 N 
ATOM      9  N   UNL     1       5.311   4.243  -0.753  0.00  0.00    -0.344 N 
ATOM     10  H   UNL     1       6.731   5.164   1.094  0.00  0.00    +0.157 HD
ATOM     11  H   UNL     1       4.816   3.775  -1.444  0.00  0.00    +0.144 HD
ATOM     12  H   UNL     1       5.329   5.213  -0.743  0.00  0.00    +0.144 HD
ATOM     13  H   UNL     1       7.058   3.701   1.853  0.00  0.00    +0.157 HD
ENDBRANCH   6   7
BRANCH   4  14
ATOM     14  C   UNL     1       8.391  -0.803   0.088  0.00  0.00    +0.417 C 
ATOM     15  F   UNL     1       8.107  -2.173   0.072  0.00  0.00    -0.166 F 
ATOM     16  F   UNL     1       9.114  -0.463  -1.060  0.00  0.00    -0.166 F 
ATOM     17  F   UNL     1       9.148  -0.498   1.224  0.00  0.00    -0.166 F 
ENDBRANCH   4  14
BRANCH   1  18
ATOM     18  O   UNL     1       3.550   2.088   0.206  0.00  0.00    -0.455 OA
BRANCH  18  21
ATOM     19  C   UNL     1       0.738   0.116  -0.993  0.00  0.00    +0.005 A 
ATOM     20  C   UNL     1       1.918   0.833  -0.987  0.00  0.00    +0.046 A 
ATOM     21  C   UNL     1       2.389   1.383   0.197  0.00  0.00    +0.130 A 
ATOM     22  C   UNL     1       1.671   1.211   1.373  0.00  0.00    +0.061 A 
ATOM     23  C   UNL     1       0.491   0.492   1.361  0.00  0.00    +0.021 A 
ATOM     24  C   UNL     1       0.024  -0.054   0.178  0.00  0.00    +0.015 A 
ATOM     25 BR   UNL     1      -0.488   0.257   2.962  0.00  0.00    -0.050 Br
ENDBRANCH  18  21
ENDBRANCH   1  18
TORSDOF 4
