REMARK  Name = ZINC49424680
REMARK  6 active torsions:
REMARK  status: ('A' for Active; 'I' for Inactive)
REMARK    1  A    between atoms: C_1  and  C_2
REMARK    2  A    between atoms: C_2  and  C_4
REMARK    3  A    between atoms: C_2  and  C_20
REMARK    4  A    between atoms: C_4  and  N_5
REMARK    5  A    between atoms: N_5  and  C_6
REMARK    6  A    between atoms: C_7  and  C_9
REMARK                            x       y       z     vdW  Elec       q    Type
REMARK                         _______ _______ _______ _____ _____    ______ ____
ROOT
ATOM      1  C   UNL     1      -0.446   1.276   4.300  0.00  0.00    +0.122 A 
ATOM      2  C   UNL     1      -0.076   0.801   5.521  0.00  0.00    +0.078 A 
ATOM      3  C   UNL     1      -1.026   1.339   6.491  0.00  0.00    +0.019 A 
ATOM      4  C   UNL     1      -1.169   1.214   7.878  0.00  0.00    +0.011 A 
ATOM      5  C   UNL     1      -2.189   1.859   8.515  0.00  0.00    +0.001 A 
ATOM      6  C   UNL     1      -3.088   2.639   7.800  0.00  0.00    +0.002 A 
ATOM      7  C   UNL     1      -2.968   2.778   6.436  0.00  0.00    +0.026 A 
ATOM      8  C   UNL     1      -1.935   2.130   5.761  0.00  0.00    +0.048 A 
ATOM      9  N   UNL     1      -1.561   2.081   4.440  0.00  0.00    -0.349 N 
ATOM     10  H   UNL     1      -2.013   2.540   3.715  0.00  0.00    +0.166 HD
ATOM     11 CL   UNL     1       1.267  -0.244   5.860  0.00  0.00    -0.081 Cl
ENDROOT
BRANCH   1  14
ATOM     12  N   UNL     1       0.068  -0.213   2.437  0.00  0.00    -0.298 N 
ATOM     13  C   UNL     1      -0.877  -1.183   2.995  0.00  0.00    +0.132 C 
ATOM     14  C   UNL     1       0.236   0.984   3.033  0.00  0.00    +0.264 C 
ATOM     15  O   UNL     1       0.954   1.823   2.521  0.00  0.00    -0.268 OA
BRANCH  12  16
ATOM     16  C   UNL     1       0.830  -0.544   1.230  0.00  0.00    +0.125 C 
BRANCH  16  18
ATOM     17  C   UNL     1      -0.084   1.420  -0.014  0.00  0.00    +0.025 C 
ATOM     18  C   UNL     1       0.044  -0.104  -0.006  0.00  0.00    +0.106 C 
BRANCH  18  19
ATOM     19  C   UNL     1       0.752  -0.544  -1.220  0.00  0.00    +0.067 C 
ATOM     20  N   UNL     1       1.298  -0.883  -2.156  0.00  0.00    -0.196 NA
ENDBRANCH  18  19
ENDBRANCH  16  18
ENDBRANCH  12  16
ENDBRANCH   1  14
TORSDOF 4
