REMARK  Name = ZINC58312280
REMARK  6 active torsions:
REMARK  status: ('A' for Active; 'I' for Inactive)
REMARK    1  A    between atoms: C_1  and  C_2
REMARK    2  A    between atoms: C_5  and  C_7
REMARK    3  A    between atoms: N_9  and  C_10
REMARK    4  A    between atoms: C_10  and  C_11
REMARK    5  A    between atoms: C_11  and  C_12
REMARK    6  A    between atoms: N_22  and  C_23
REMARK                            x       y       z     vdW  Elec       q    Type
REMARK                         _______ _______ _______ _____ _____    ______ ____
ROOT
ATOM      1  C   UNL     1       3.795   0.416   6.463  0.00  0.00    +0.114 A 
ATOM      2  N   UNL     1       3.696   1.705   6.343  0.00  0.00    -0.233 NA
ATOM      3  C   UNL     1       4.224   2.548   7.266  0.00  0.00    +0.080 A 
ATOM      4  C   UNL     1       4.118   3.934   7.138  0.00  0.00    +0.048 A 
ATOM      5  C   UNL     1       4.671   4.748   8.103  0.00  0.00    +0.043 A 
ATOM      6  C   UNL     1       5.331   4.206   9.200  0.00  0.00    +0.021 A 
ATOM      7  C   UNL     1       5.447   2.851   9.345  0.00  0.00    +0.017 A 
ATOM      8  C   UNL     1       4.896   2.006   8.384  0.00  0.00    +0.065 A 
ATOM      9  C   UNL     1       4.990   0.542   8.489  0.00  0.00    +0.262 A 
ATOM     10  O   UNL     1       5.555   0.011   9.427  0.00  0.00    -0.267 OA
ATOM     11  N   UNL     1       4.418  -0.191   7.506  0.00  0.00    -0.299 N 
ATOM     12  C   UNL     1       4.478  -1.654   7.564  0.00  0.00    +0.153 C 
ATOM     13 CL   UNL     1       4.541   6.473   7.947  0.00  0.00    -0.083 Cl
ENDROOT
BRANCH   1  14
ATOM     14  C   UNL     1       3.181  -0.451   5.394  0.00  0.00    +0.093 C 
BRANCH  14  15
ATOM     15  C   UNL     1       2.537   0.435   4.326  0.00  0.00    +0.112 C 
BRANCH  15  18
ATOM     16  C   UNL     1       1.314   0.159   2.237  0.00  0.00    +0.216 C 
ATOM     17  O   UNL     1       1.244   1.367   2.152  0.00  0.00    -0.276 OA
ATOM     18  N   UNL     1       1.940  -0.407   3.287  0.00  0.00    -0.315 N 
ATOM     19  H   UNL     1       1.996  -1.373   3.354  0.00  0.00    +0.149 HD
BRANCH  16  23
ATOM     20  C   UNL     1      -0.019   1.526   0.010  0.00  0.00    +0.008 C 
ATOM     21  C   UNL     1       0.002  -0.004   0.002  0.00  0.00    -0.002 C 
ATOM     22  C   UNL     1      -0.828  -0.728   1.065  0.00  0.00    +0.017 C 
ATOM     23  C   UNL     1       0.700  -0.708   1.168  0.00  0.00    +0.078 C 
ENDBRANCH  16  23
ENDBRANCH  15  18
ENDBRANCH  14  15
ENDBRANCH   1  14
TORSDOF 4
