REMARK  Name = ZINC33261852
REMARK  8 active torsions:
REMARK  status: ('A' for Active; 'I' for Inactive)
REMARK    1  A    between atoms: C_1  and  C_2
REMARK    2  A    between atoms: C_2  and  C_3
REMARK    3  A    between atoms: C_3  and  C_4
REMARK    4  A    between atoms: C_4  and  C_5
REMARK    5  A    between atoms: C_5  and  C_6
REMARK    6  A    between atoms: C_6  and  C_7
REMARK    7  A    between atoms: N_14  and  C_22
REMARK    8  A    between atoms: C_20  and  O_21
REMARK                            x       y       z     vdW  Elec       q    Type
REMARK                         _______ _______ _______ _____ _____    ______ ____
ROOT
ATOM      1  C   UNL     1       0.739  -2.004  -1.265  0.00  0.00    -0.005 A 
ATOM      2  C   UNL     1      -0.165  -2.690  -2.020  0.00  0.00    +0.018 A 
ATOM      3  C   UNL     1      -0.148  -4.094  -2.030  0.00  0.00    +0.019 A 
ATOM      4  C   UNL     1      -1.088  -4.809  -2.815  0.00  0.00    +0.030 A 
ATOM      5  C   UNL     1      -1.043  -6.187  -2.802  0.00  0.00    +0.105 A 
ATOM      6  C   UNL     1      -1.808  -7.252  -3.451  0.00  0.00    +0.284 A 
ATOM      7  O   UNL     1      -2.746  -7.120  -4.220  0.00  0.00    -0.265 OA
ATOM      8  N   UNL     1      -1.263  -8.412  -3.023  0.00  0.00    -0.193 N 
ATOM      9  N   UNL     1      -0.206  -8.154  -2.149  0.00  0.00    -0.124 NA
ATOM     10  C   UNL     1      -0.030  -6.874  -1.982  0.00  0.00    +0.251 A 
ATOM     11  O   UNL     1       0.842  -6.143  -1.251  0.00  0.00    -0.435 OA
ATOM     12  C   UNL     1       0.803  -4.791  -1.260  0.00  0.00    +0.141 A 
ATOM     13  C   UNL     1       1.714  -4.075  -0.498  0.00  0.00    +0.092 A 
ATOM     14  C   UNL     1       1.686  -2.689  -0.505  0.00  0.00    +0.124 A 
ENDROOT
BRANCH   8  15
ATOM     15  C   UNL     1      -1.697  -9.688  -3.403  0.00  0.00    +0.070 A 
ATOM     16  C   UNL     1      -3.047  -9.928  -3.619  0.00  0.00    +0.031 A 
ATOM     17  C   UNL     1      -3.472 -11.187  -3.998  0.00  0.00    +0.040 A 
ATOM     18  C   UNL     1      -2.554 -12.211  -4.152  0.00  0.00    +0.124 A 
ATOM     19  C   UNL     1      -1.207 -11.975  -3.932  0.00  0.00    +0.040 A 
ATOM     20  C   UNL     1      -0.777 -10.717  -3.558  0.00  0.00    +0.031 A 
ATOM     21  F   UNL     1      -2.972 -13.443  -4.518  0.00  0.00    -0.205 F 
ENDBRANCH   8  15
BRANCH  14  22
ATOM     22  O   UNL     1       2.583  -1.994   0.238  0.00  0.00    -0.506 OA
ATOM     23  H   UNL     1       3.332  -2.530   0.840  0.00  0.00    +0.292 HD
ENDBRANCH  14  22
BRANCH   1  24
ATOM     24  C   UNL     1       0.718  -0.497  -1.257  0.00  0.00    +0.039 C 
BRANCH  24  25
ATOM     25  C   UNL     1       0.002  -0.004   0.002  0.00  0.00    +0.005 C 
BRANCH  25  26
ATOM     26  C   UNL     1      -0.019   1.526   0.010  0.00  0.00    +0.000 C 
BRANCH  26  27
ATOM     27  C   UNL     1      -0.735   2.019   1.269  0.00  0.00    -0.000 C 
BRANCH  27  29
ATOM     28  C   UNL     1      -1.472   4.042   2.536  0.00  0.00    +0.004 C 
ATOM     29  C   UNL     1      -0.756   3.549   1.278  0.00  0.00    -0.003 C 
ENDBRANCH  27  29
ENDBRANCH  26  27
ENDBRANCH  25  26
ENDBRANCH  24  25
ENDBRANCH   1  24
TORSDOF 7
