REMARK  Name = ZINC39685899
REMARK  12 active torsions:
REMARK  status: ('A' for Active; 'I' for Inactive)
REMARK    1  A    between atoms: C_1  and  C_2
REMARK    2  A    between atoms: C_6  and  C_7
REMARK    3  A    between atoms: C_11  and  C_20
REMARK    4  A    between atoms: N_22  and  C_23
REMARK    5  A    between atoms: C_23  and  C_25
REMARK    6  A    between atoms: C_23  and  C_28
REMARK    7  A    between atoms: C_25  and  C_26
REMARK    8  A    between atoms: C_25  and  C_27
REMARK    9  A    between atoms: N_30  and  C_31
REMARK   10  A    between atoms: C_31  and  C_32
REMARK   11  A    between atoms: C_31  and  C_33
REMARK   12  A    between atoms: C_31  and  C_34
REMARK                            x       y       z     vdW  Elec       q    Type
REMARK                         _______ _______ _______ _____ _____    ______ ____
ROOT
ATOM      1  C   UNL     1       0.420   0.242   4.122  0.00  0.00    +0.254 C 
ATOM      2  O   UNL     1       0.742   1.411   4.226  0.00  0.00    -0.269 OA
ATOM      3  N   UNL     1       0.643  -0.611   5.141  0.00  0.00    -0.296 N 
ATOM      4  C   UNL     1       0.438  -2.079   5.158  0.00  0.00    +0.121 C 
ATOM      5  C   UNL     1       1.639  -2.631   5.959  0.00  0.00    +0.100 C 
ATOM      6  C   UNL     1       2.098  -1.456   6.838  0.00  0.00    -0.004 C 
ATOM      7  C   UNL     1       1.153  -0.294   6.497  0.00  0.00    +0.115 C 
ATOM      8  C   UNL     1       1.977  -1.820   8.314  0.00  0.00    -0.010 C 
ATOM      9  C   UNL     1       2.494  -0.658   9.167  0.00  0.00    -0.082 C 
ATOM     10  N   UNL     1       3.894  -0.382   8.824  0.00  0.00    +0.379 N 
ATOM     11  C   UNL     1       3.990   0.058   7.427  0.00  0.00    -0.082 C 
ATOM     12  C   UNL     1       3.536  -1.074   6.501  0.00  0.00    -0.010 C 
ATOM     13  H   UNL     1       4.250   0.343   9.429  0.00  0.00    -0.086 HD
ATOM     14  H   UNL     1       4.441  -1.221   8.949  0.00  0.00    -0.086 HD
ENDROOT
BRANCH   1  20
ATOM     15  C   UNL     1       0.026   1.861   1.490  0.00  0.00    +0.045 C 
ATOM     16  C   UNL     1      -0.411   0.433   1.692  0.00  0.00    -0.031 A 
ATOM     17  C   UNL     1      -1.031  -0.289   0.700  0.00  0.00    +0.011 A 
ATOM     18  C   UNL     1      -1.398  -1.570   0.948  0.00  0.00    +0.046 A 
ATOM     19  S   UNL     1      -0.915  -1.837   2.535  0.00  0.00    -0.092 S 
ATOM     20  C   UNL     1      -0.209  -0.238   2.888  0.00  0.00    +0.077 A 
ENDBRANCH   1  20
BRANCH   5  21
ATOM     21  C   UNL     1       2.743  -3.053   5.024  0.00  0.00    +0.219 C 
ATOM     22  O   UNL     1       3.263  -4.141   5.153  0.00  0.00    -0.275 OA
ATOM     23  N   UNL     1       3.152  -2.222   4.046  0.00  0.00    -0.303 N 
ATOM     24  H   UNL     1       2.736  -1.352   3.943  0.00  0.00    +0.149 HD
BRANCH  23  25
ATOM     25  C   UNL     1       4.226  -2.633   3.137  0.00  0.00    +0.161 C 
BRANCH  25  26
ATOM     26  C   UNL     1       4.907  -1.410   2.580  0.00  0.00    +0.234 C 
ATOM     27  O   UNL     1       4.349  -0.334   2.619  0.00  0.00    -0.274 OA
ATOM     28  N   UNL     1       6.137  -1.512   2.037  0.00  0.00    -0.309 N 
ATOM     29  H   UNL     1       6.551  -2.383   1.935  0.00  0.00    +0.149 HD
BRANCH  28  30
ATOM     30  C   UNL     1       6.847  -0.307   1.601  0.00  0.00    +0.026 C 
ATOM     31  C   UNL     1       7.047   0.628   2.796  0.00  0.00    +0.031 C 
ATOM     32  C   UNL     1       8.210  -0.699   1.026  0.00  0.00    +0.031 C 
ATOM     33  C   UNL     1       6.027   0.408   0.526  0.00  0.00    +0.031 C 
ENDBRANCH  28  30
ENDBRANCH  25  26
BRANCH  25  34
ATOM     34  C   UNL     1       3.636  -3.456   1.990  0.00  0.00    +0.012 C 
ATOM     35  C   UNL     1       3.080  -4.771   2.540  0.00  0.00    +0.009 C 
ATOM     36  C   UNL     1       2.510  -2.665   1.322  0.00  0.00    +0.009 C 
ENDBRANCH  25  34
ENDBRANCH  23  25
ENDBRANCH   5  21
TORSDOF 6
