REMARK  Name = ZINC17058256
REMARK  6 active torsions:
REMARK  status: ('A' for Active; 'I' for Inactive)
REMARK    1  A    between atoms: C_1  and  C_2
REMARK    2  A    between atoms: C_5  and  N_8
REMARK    3  A    between atoms: C_12  and  C_13
REMARK    4  A    between atoms: C_15  and  O_21
REMARK    5  A    between atoms: C_16  and  O_20
REMARK    6  A    between atoms: O_21  and  C_22
REMARK                            x       y       z     vdW  Elec       q    Type
REMARK                         _______ _______ _______ _____ _____    ______ ____
ROOT
ATOM      1  N   UNL     1      -0.276  -4.214  -0.014  0.00  0.00    -0.188 N 
ATOM      2  C   UNL     1       0.062  -4.862   1.121  0.00  0.00    +0.264 C 
ATOM      3  O   UNL     1       0.429  -4.251   2.107  0.00  0.00    -0.269 OA
ATOM      4  C   UNL     1      -0.029  -6.333   1.126  0.00  0.00    +0.102 C 
ATOM      5  C   UNL     1       0.297  -7.074   2.247  0.00  0.00    +0.026 C 
ATOM      6  C   UNL     1      -0.487  -6.980  -0.123  0.00  0.00    +0.276 C 
ATOM      7  N   UNL     1      -0.788  -6.199  -1.172  0.00  0.00    -0.123 NA
ATOM      8  C   UNL     1      -0.692  -4.894  -1.117  0.00  0.00    +0.340 C 
ATOM      9  O   UNL     1      -1.019  -4.185  -2.215  0.00  0.00    -0.250 OA
ATOM     10  O   UNL     1      -0.589  -8.193  -0.197  0.00  0.00    -0.268 OA
ENDROOT
BRANCH   1  15
ATOM     11  C   UNL     1       0.024   1.451  -0.183  0.00  0.00    +0.044 C 
ATOM     12  C   UNL     1      -0.055  -0.053  -0.138  0.00  0.00    -0.050 A 
ATOM     13  C   UNL     1      -1.286  -0.681  -0.190  0.00  0.00    +0.005 A 
ATOM     14  C   UNL     1      -1.363  -2.059  -0.150  0.00  0.00    +0.024 A 
ATOM     15  C   UNL     1      -0.202  -2.815  -0.056  0.00  0.00    +0.046 A 
ATOM     16  C   UNL     1       1.033  -2.182  -0.004  0.00  0.00    +0.024 A 
ATOM     17  C   UNL     1       1.103  -0.803  -0.051  0.00  0.00    +0.005 A 
ENDBRANCH   1  15
BRANCH   5  18
ATOM     18  C   UNL     1       0.419  -8.528   2.152  0.00  0.00    -0.019 A 
ATOM     19  C   UNL     1       1.131  -9.108   1.090  0.00  0.00    +0.057 A 
ATOM     20  C   UNL     1       1.242 -10.480   1.007  0.00  0.00    +0.163 A 
ATOM     21  C   UNL     1       0.647 -11.290   1.975  0.00  0.00    +0.177 A 
ATOM     22  C   UNL     1      -0.059 -10.719   3.028  0.00  0.00    +0.087 A 
ATOM     23  C   UNL     1      -0.171  -9.349   3.125  0.00  0.00    +0.031 A 
ATOM     24 CL   UNL     1      -0.796 -11.734   4.228  0.00  0.00    -0.080 Cl
BRANCH  21  25
ATOM     25  O   UNL     1       0.758 -12.640   1.889  0.00  0.00    -0.502 OA
ATOM     26  H   UNL     1       1.531 -13.001   2.344  0.00  0.00    +0.292 HD
ENDBRANCH  21  25
BRANCH  20  27
ATOM     27  O   UNL     1       1.932 -11.044  -0.021  0.00  0.00    -0.491 OA
ATOM     28  C   UNL     1       2.515 -10.156  -0.976  0.00  0.00    +0.277 C 
ENDBRANCH  20  27
ENDBRANCH   5  18
TORSDOF 4
