REMARK  Name = ZINC36594526
REMARK  18 active torsions:
REMARK  status: ('A' for Active; 'I' for Inactive)
REMARK    1  A    between atoms: C_1  and  C_2
REMARK    2  A    between atoms: C_2  and  C_3
REMARK    3  A    between atoms: C_3  and  C_4
REMARK    4  A    between atoms: C_4  and  C_5
REMARK    5  A    between atoms: N_7  and  C_8
REMARK    6  A    between atoms: N_7  and  C_33
REMARK    7  A    between atoms: C_8  and  C_10
REMARK    8  A    between atoms: C_8  and  C_19
REMARK    9  A    between atoms: C_11  and  O_18
REMARK   10  A    between atoms: C_13  and  O_17
REMARK   11  A    between atoms: C_15  and  O_16
REMARK   12  A    between atoms: N_21  and  C_22
REMARK   13  A    between atoms: C_22  and  S_23
REMARK   14  A    between atoms: S_23  and  C_26
REMARK   15  A    between atoms: C_29  and  C_32
REMARK   16  A    between atoms: C_33  and  C_34
REMARK   17  A    between atoms: C_33  and  C_35
REMARK   18  A    between atoms: C_33  and  C_36
REMARK                            x       y       z     vdW  Elec       q    Type
REMARK                         _______ _______ _______ _____ _____    ______ ____
ROOT
ATOM      1  C   UNL     1      -5.096  -4.531   0.641  0.00  0.00    +0.200 C 
ENDROOT
BRANCH   1   2
ATOM      2  C   UNL     1      -4.972  -5.762  -0.219  0.00  0.00    +0.065 A 
ATOM      3  C   UNL     1      -4.131  -6.795   0.166  0.00  0.00    +0.129 A 
ATOM      4  C   UNL     1      -4.017  -7.928  -0.626  0.00  0.00    +0.091 A 
ATOM      5  C   UNL     1      -4.745  -8.027  -1.803  0.00  0.00    +0.124 A 
ATOM      6  C   UNL     1      -5.586  -6.995  -2.187  0.00  0.00    +0.091 A 
ATOM      7  C   UNL     1      -5.704  -5.864  -1.393  0.00  0.00    +0.129 A 
BRANCH   7   8
ATOM      8  O   UNL     1      -6.532  -4.853  -1.767  0.00  0.00    -0.506 OA
ATOM      9  H   UNL     1      -6.109  -4.183  -2.321  0.00  0.00    +0.292 HD
ENDBRANCH   7   8
BRANCH   5  10
ATOM     10  O   UNL     1      -4.632  -9.137  -2.579  0.00  0.00    -0.507 OA
ATOM     11  H   UNL     1      -5.265  -9.835  -2.361  0.00  0.00    +0.292 HD
ENDBRANCH   5  10
BRANCH   3  12
ATOM     12  O   UNL     1      -3.418  -6.697   1.319  0.00  0.00    -0.506 OA
ATOM     13  H   UNL     1      -3.843  -7.116   2.080  0.00  0.00    +0.292 HD
ENDBRANCH   3  12
ENDBRANCH   1   2
BRANCH   1  14
ATOM     14  C   UNL     1      -5.413  -4.938   2.057  0.00  0.00    +0.240 C 
ATOM     15  O   UNL     1      -4.540  -4.934   2.899  0.00  0.00    -0.273 OA
ATOM     16  N   UNL     1      -6.667  -5.305   2.388  0.00  0.00    -0.294 N 
ATOM     17  H   UNL     1      -7.365  -5.307   1.715  0.00  0.00    +0.150 HD
BRANCH  16  18
ATOM     18  C   UNL     1      -6.975  -5.700   3.765  0.00  0.00    +0.278 C 
BRANCH  18  19
ATOM     19  S   UNL     1      -7.618  -4.269   4.675  0.00  0.00    +0.013 S 
ATOM     20  O   UNL     1      -7.981  -4.651   5.995  0.00  0.00    -0.168 OA
ATOM     21  O   UNL     1      -6.791  -3.135   4.452  0.00  0.00    -0.168 OA
BRANCH  19  22
ATOM     22  C   UNL     1      -9.143  -3.877   3.885  0.00  0.00    +0.090 A 
ATOM     23  C   UNL     1      -9.164  -2.992   2.823  0.00  0.00    +0.027 A 
ATOM     24  C   UNL     1     -10.360  -2.684   2.203  0.00  0.00    +0.005 A 
ATOM     25  C   UNL     1     -11.536  -3.261   2.644  0.00  0.00    -0.050 A 
ATOM     26  C   UNL     1     -11.515  -4.147   3.706  0.00  0.00    +0.005 A 
ATOM     27  C   UNL     1     -10.318  -4.458   4.323  0.00  0.00    +0.027 A 
ATOM     28  C   UNL     1     -12.841  -2.925   1.969  0.00  0.00    +0.044 C 
ENDBRANCH  19  22
ENDBRANCH  18  19
ENDBRANCH  16  18
ENDBRANCH   1  14
BRANCH   1  31
ATOM     29  C   UNL     1      -2.776  -4.280  -0.060  0.00  0.00    +0.217 C 
ATOM     30  O   UNL     1      -2.907  -5.262  -0.759  0.00  0.00    -0.276 OA
ATOM     31  N   UNL     1      -3.833  -3.789   0.618  0.00  0.00    -0.281 N 
BRANCH  31  32
ATOM     32  C   UNL     1      -3.718  -2.515   1.331  0.00  0.00    +0.030 C 
ATOM     33  C   UNL     1      -3.583  -1.375   0.319  0.00  0.00    +0.031 C 
ATOM     34  C   UNL     1      -4.968  -2.294   2.185  0.00  0.00    +0.031 C 
ATOM     35  C   UNL     1      -2.483  -2.545   2.233  0.00  0.00    +0.031 C 
ENDBRANCH  31  32
BRANCH  29  36
ATOM     36  C   UNL     1      -1.432  -3.607   0.050  0.00  0.00    +0.096 C 
BRANCH  36  37
ATOM     37  C   UNL     1      -0.478  -4.199  -0.990  0.00  0.00    +0.009 C 
BRANCH  37  39
ATOM     38  C   UNL     1       1.840  -4.109  -1.917  0.00  0.00    +0.004 C 
ATOM     39  C   UNL     1       0.886  -3.517  -0.878  0.00  0.00    -0.003 C 
ENDBRANCH  37  39
ENDBRANCH  36  37
ENDBRANCH  29  36
ENDBRANCH   1  31
TORSDOF 13
