REMARK  Name = ZINC61145520
REMARK  4 active torsions:
REMARK  status: ('A' for Active; 'I' for Inactive)
REMARK    1  A    between atoms: C_1  and  C_2
REMARK    2  A    between atoms: C_8  and  N_10
REMARK    3  A    between atoms: N_17  and  C_20
REMARK    4  A    between atoms: C_20  and  C_21
REMARK                            x       y       z     vdW  Elec       q    Type
REMARK                         _______ _______ _______ _____ _____    ______ ____
ROOT
ATOM      1  N   UNL     1       2.314  -0.068   3.875  0.00  0.00    -0.296 N 
ATOM      2  C   UNL     1       0.995   0.142   3.696  0.00  0.00    +0.302 C 
ATOM      3  O   UNL     1       0.513   0.067   2.582  0.00  0.00    -0.253 OA
ATOM      4  N   UNL     1       0.210   0.436   4.751  0.00  0.00    -0.287 N 
ATOM      5  C   UNL     1      -1.249   0.541   4.546  0.00  0.00    +0.107 C 
ATOM      6  C   UNL     1      -2.020  -0.122   5.702  0.00  0.00    +0.000 C 
ATOM      7  C   UNL     1      -1.318  -1.398   6.109  0.00  0.00    -0.076 C 
ATOM      8  N   UNL     1      -0.396  -1.113   7.206  0.00  0.00    +0.388 N 
ATOM      9  C   UNL     1       0.897  -0.708   6.807  0.00  0.00    -0.059 C 
ATOM     10  C   UNL     1       0.826   0.631   6.047  0.00  0.00    +0.091 C 
ATOM     11  H   UNL     1       2.711   0.062   4.750  0.00  0.00    +0.151 HD
ATOM     12  H   UNL     1      -0.796  -0.382   7.776  0.00  0.00    -0.081 HD
ENDROOT
BRANCH   1  19
ATOM     13  C   UNL     1       3.922  -2.469   4.066  0.00  0.00    +0.009 C 
ATOM     14  C   UNL     1       4.375  -1.240   3.275  0.00  0.00    +0.006 C 
ATOM     15  C   UNL     1       5.183  -0.315   4.187  0.00  0.00    +0.005 C 
ATOM     16  C   UNL     1       5.635   0.914   3.396  0.00  0.00    +0.000 C 
ATOM     17  C   UNL     1       4.409   1.661   2.869  0.00  0.00    +0.002 C 
ATOM     18  C   UNL     1       3.600   0.736   1.957  0.00  0.00    +0.022 C 
ATOM     19  C   UNL     1       3.148  -0.492   2.748  0.00  0.00    +0.077 C 
ENDBRANCH   1  19
BRANCH   8  20
ATOM     20  C   UNL     1      -0.269  -2.321   8.032  0.00  0.00    +0.048 C 
BRANCH  20  21
ATOM     21  C   UNL     1      -1.585  -2.606   8.710  0.00  0.00    +0.340 C 
ATOM     22  O   UNL     1      -2.505  -1.813   8.612  0.00  0.00    -0.249 OA
ATOM     23  O   UNL     1      -1.729  -3.631   9.355  0.00  0.00    -0.249 OA
ENDBRANCH  20  21
ENDBRANCH   8  20
TORSDOF 3
