REMARK  Name = ZINC27836231
REMARK  8 active torsions:
REMARK  status: ('A' for Active; 'I' for Inactive)
REMARK    1  A    between atoms: C_1  and  C_2
REMARK    2  A    between atoms: C_5  and  N_9
REMARK    3  A    between atoms: C_6  and  O_8
REMARK    4  A    between atoms: N_9  and  N_10
REMARK    5  A    between atoms: C_12  and  C_20
REMARK    6  A    between atoms: N_14  and  C_17
REMARK    7  A    between atoms: C_17  and  N_19
REMARK    8  A    between atoms: C_23  and  N_26
REMARK                            x       y       z     vdW  Elec       q    Type
REMARK                         _______ _______ _______ _____ _____    ______ ____
ROOT
ATOM      1  N   UNL     1      -0.048  -4.801  -1.139  0.00  0.00    -0.175 NA
ATOM      2  C   UNL     1      -0.125  -6.119  -1.141  0.00  0.00    +0.173 C 
ATOM      3  C   UNL     1      -0.024  -7.030   0.019  0.00  0.00    +0.122 C 
ATOM      4  N   UNL     1      -0.155  -8.249  -0.431  0.00  0.00    -0.168 NA
ATOM      5  N   UNL     1      -0.341  -8.261  -1.813  0.00  0.00    -0.134 N 
ATOM      6  C   UNL     1      -0.338  -7.003  -2.298  0.00  0.00    +0.294 C 
ATOM      7  O   UNL     1      -0.479  -6.666  -3.460  0.00  0.00    -0.266 OA
ENDROOT
BRANCH   3   8
ATOM      8  C   UNL     1       0.189  -6.634   1.430  0.00  0.00    +0.004 A 
ATOM      9  C   UNL     1      -0.901  -6.479   2.286  0.00  0.00    +0.012 A 
ATOM     10  C   UNL     1      -0.696  -6.110   3.600  0.00  0.00    +0.033 A 
ATOM     11  C   UNL     1       0.587  -5.894   4.069  0.00  0.00    +0.126 A 
ATOM     12  C   UNL     1       1.673  -6.046   3.225  0.00  0.00    +0.033 A 
ATOM     13  C   UNL     1       1.481  -6.420   1.910  0.00  0.00    +0.012 A 
BRANCH  11  14
ATOM     14  N   UNL     1       0.800  -5.498   5.479  0.00  0.00    +0.056 N 
ATOM     15  O   UNL     1      -0.147  -5.364   6.219  0.00  0.00    -0.126 OA
ATOM     16  O   UNL     1       1.921  -5.309   5.891  0.00  0.00    -0.126 OA
ENDBRANCH  11  14
ENDBRANCH   3   8
BRANCH   1  17
ATOM     17  N   UNL     1       0.030  -4.162  -0.021  0.00  0.00    -0.233 N 
ATOM     18  H   UNL     1       0.105  -4.651   0.814  0.00  0.00    +0.175 HD
BRANCH  17  23
ATOM     19  C   UNL     1      -0.068   1.510   0.009  0.00  0.00    +0.044 C 
ATOM     20  C   UNL     1      -0.042   0.004   0.004  0.00  0.00    -0.047 A 
ATOM     21  C   UNL     1      -0.017  -0.681  -1.198  0.00  0.00    +0.005 A 
ATOM     22  C   UNL     1       0.006  -2.062  -1.210  0.00  0.00    +0.028 A 
ATOM     23  C   UNL     1       0.006  -2.767  -0.012  0.00  0.00    +0.090 A 
ATOM     24  C   UNL     1      -0.017  -2.075   1.198  0.00  0.00    +0.140 A 
ATOM     25  C   UNL     1      -0.036  -0.689   1.200  0.00  0.00    +0.050 A 
BRANCH  24  26
ATOM     26  O   UNL     1      -0.018  -2.758   2.374  0.00  0.00    -0.505 OA
ATOM     27  H   UNL     1       0.861  -2.874   2.761  0.00  0.00    +0.292 HD
ENDBRANCH  24  26
ENDBRANCH  17  23
ENDBRANCH   1  17
BRANCH   5  28
ATOM     28  C   UNL     1      -0.506  -9.372  -2.558  0.00  0.00    +0.158 C 
ATOM     29  S   UNL     1      -0.724  -9.243  -4.251  0.00  0.00    -0.017 S 
BRANCH  28  30
ATOM     30  N   UNL     1      -0.499 -10.585  -1.970  0.00  0.00    -0.339 N 
ATOM     31  H   UNL     1      -0.375 -10.658  -1.011  0.00  0.00    +0.144 HD
ATOM     32  H   UNL     1      -0.618 -11.384  -2.506  0.00  0.00    +0.144 HD
ENDBRANCH  28  30
ENDBRANCH   5  28
TORSDOF 7
