REMARK  Name = ZINC12705975
REMARK  9 active torsions:
REMARK  status: ('A' for Active; 'I' for Inactive)
REMARK    1  A    between atoms: C_1  and  C_2
REMARK    2  A    between atoms: C_3  and  C_20
REMARK    3  A    between atoms: N_6  and  C_7
REMARK    4  A    between atoms: C_14  and  C_18
REMARK    5  A    between atoms: C_14  and  C_19
REMARK    6  A    between atoms: C_20  and  C_21
REMARK    7  A    between atoms: N_23  and  C_24
REMARK    8  A    between atoms: C_24  and  C_26
REMARK    9  A    between atoms: C_24  and  C_27
REMARK                            x       y       z     vdW  Elec       q    Type
REMARK                         _______ _______ _______ _____ _____    ______ ____
ROOT
ATOM      1  C   UNL     1      -1.969  -0.572   1.841  0.00  0.00    +0.064 C 
ATOM      2  C   UNL     1      -1.557   0.863   2.049  0.00  0.00    +0.020 A 
ATOM      3  C   UNL     1      -0.763   1.576   1.224  0.00  0.00    -0.007 A 
ATOM      4  C   UNL     1      -0.641   2.892   1.825  0.00  0.00    +0.042 A 
ATOM      5  C   UNL     1      -1.396   2.869   2.992  0.00  0.00    +0.030 A 
ATOM      6  N   UNL     1      -1.931   1.650   3.106  0.00  0.00    -0.344 N 
ATOM      7  C   UNL     1      -1.518   4.061   3.907  0.00  0.00    +0.061 C 
ATOM      8  C   UNL     1      -0.346   5.016   3.649  0.00  0.00    -0.023 C 
ATOM      9  C   UNL     1      -0.250   5.360   2.159  0.00  0.00    +0.086 C 
ATOM     10  C   UNL     1       0.088   4.089   1.394  0.00  0.00    +0.166 C 
ATOM     11  O   UNL     1       0.901   4.067   0.493  0.00  0.00    -0.292 OA
ATOM     12  C   UNL     1       0.959   4.356   4.098  0.00  0.00    +0.011 C 
ATOM     13  C   UNL     1      -0.562   6.302   4.450  0.00  0.00    +0.011 C 
ENDROOT
BRANCH   6  14
ATOM     14  C   UNL     1      -2.795   1.216   4.206  0.00  0.00    +0.087 C 
ATOM     15  C   UNL     1      -3.968   2.188   4.348  0.00  0.00    +0.025 C 
ATOM     16  C   UNL     1      -4.870   1.735   5.497  0.00  0.00    +0.002 C 
ATOM     17  C   UNL     1      -4.066   1.713   6.799  0.00  0.00    +0.000 C 
ATOM     18  C   UNL     1      -2.894   0.740   6.657  0.00  0.00    +0.002 C 
ATOM     19  C   UNL     1      -1.991   1.194   5.508  0.00  0.00    +0.025 C 
ENDBRANCH   6  14
BRANCH   3  20
ATOM     20  C   UNL     1      -0.128   1.101  -0.058  0.00  0.00    +0.133 C 
BRANCH  20  21
ATOM     21  C   UNL     1      -1.058   1.374  -1.211  0.00  0.00    +0.218 C 
ATOM     22  O   UNL     1      -2.131   1.903  -1.013  0.00  0.00    -0.275 OA
ATOM     23  N   UNL     1      -0.697   1.031  -2.464  0.00  0.00    -0.304 N 
ATOM     24  H   UNL     1       0.162   0.609  -2.623  0.00  0.00    +0.149 HD
BRANCH  23  25
ATOM     25  C   UNL     1      -1.601   1.297  -3.585  0.00  0.00    +0.156 C 
ATOM     26  C   UNL     1      -1.397   2.732  -4.076  0.00  0.00    +0.038 C 
BRANCH  25  27
ATOM     27  C   UNL     1      -1.306   0.335  -4.707  0.00  0.00    +0.231 C 
ATOM     28  O   UNL     1      -0.427  -0.491  -4.583  0.00  0.00    -0.274 OA
ATOM     29  N   UNL     1      -2.019   0.393  -5.850  0.00  0.00    -0.328 N 
ATOM     30  H   UNL     1      -2.722   1.054  -5.950  0.00  0.00    +0.145 HD
ATOM     31  H   UNL     1      -1.829  -0.226  -6.572  0.00  0.00    +0.145 HD
ENDBRANCH  25  27
ENDBRANCH  23  25
ENDBRANCH  20  21
ENDBRANCH   3  20
TORSDOF 5
