REMARK  Name = ZINC59042120
REMARK  5 active torsions:
REMARK  status: ('A' for Active; 'I' for Inactive)
REMARK    1  A    between atoms: C_4  and  C_7
REMARK    2  A    between atoms: C_10  and  S_13
REMARK    3  A    between atoms: N_11  and  N_12
REMARK    4  A    between atoms: S_13  and  C_14
REMARK    5  A    between atoms: C_14  and  C_15
REMARK                            x       y       z     vdW  Elec       q    Type
REMARK                         _______ _______ _______ _____ _____    ______ ____
ROOT
ATOM      1  C   UNL     1       3.695  -0.685  -0.038  0.00  0.00    +0.182 A 
ATOM      2  N   UNL     1       4.871  -0.170  -0.315  0.00  0.00    -0.127 NA
ATOM      3  N   UNL     1       5.777  -1.077  -0.236  0.00  0.00    -0.121 NA
ATOM      4  C   UNL     1       5.235  -2.228   0.097  0.00  0.00    +0.209 A 
ATOM      5  N   UNL     1       3.894  -2.018   0.239  0.00  0.00    -0.224 N 
ENDROOT
BRANCH   1   9
ATOM      6  C   UNL     1      -0.017   1.379   0.010  0.00  0.00    +0.000 A 
ATOM      7  C   UNL     1       1.168   2.094   0.002  0.00  0.00    +0.001 A 
ATOM      8  C   UNL     1       2.377   1.429  -0.013  0.00  0.00    +0.011 A 
ATOM      9  C   UNL     1       2.403   0.034  -0.021  0.00  0.00    +0.021 A 
ATOM     10  C   UNL     1       1.204  -0.681  -0.013  0.00  0.00    +0.011 A 
ATOM     11  C   UNL     1       0.002  -0.004   0.002  0.00  0.00    +0.001 A 
ENDBRANCH   1   9
BRANCH   5  12
ATOM     12  N   UNL     1       2.946  -2.939   0.583  0.00  0.00    -0.295 N 
ATOM     13  H   UNL     1       2.567  -3.391  -0.236  0.00  0.00    +0.163 HD
ATOM     14  H   UNL     1       3.318  -3.617   1.230  0.00  0.00    +0.163 HD
ENDBRANCH   5  12
BRANCH   4  15
ATOM     15  S   UNL     1       6.083  -3.756   0.322  0.00  0.00    -0.080 S 
BRANCH  15  16
ATOM     16  C   UNL     1       7.820  -3.347  -0.008  0.00  0.00    +0.112 C 
BRANCH  16  17
ATOM     17  C   UNL     1       8.666  -4.584   0.153  0.00  0.00    -0.034 A 
ATOM     18  C   UNL     1       9.218  -4.911   1.382  0.00  0.00    +0.024 A 
ATOM     19  C   UNL     1       9.989  -6.053   1.491  0.00  0.00    +0.111 A 
ATOM     20  N   UNL     1      10.202  -6.826   0.444  0.00  0.00    -0.263 NA
ATOM     21  C   UNL     1       9.693  -6.546  -0.740  0.00  0.00    +0.111 A 
ATOM     22  C   UNL     1       8.907  -5.424  -0.923  0.00  0.00    +0.024 A 
ENDBRANCH  16  17
ENDBRANCH  15  16
ENDBRANCH   4  15
TORSDOF 5
