REMARK  Name = ZINC38743065
REMARK  7 active torsions:
REMARK  status: ('A' for Active; 'I' for Inactive)
REMARK    1  A    between atoms: C_1  and  O_2
REMARK    2  A    between atoms: O_2  and  C_3
REMARK    3  A    between atoms: C_8  and  O_9
REMARK    4  A    between atoms: O_9  and  C_10
REMARK    5  A    between atoms: C_10  and  C_11
REMARK    6  A    between atoms: C_14  and  C_21
REMARK    7  A    between atoms: C_24  and  C_27
REMARK                            x       y       z     vdW  Elec       q    Type
REMARK                         _______ _______ _______ _____ _____    ______ ____
ROOT
ATOM      1  C   UNL     1      -0.453  -4.838   0.897  0.00  0.00    +0.132 C 
ATOM      2  N   UNL     1      -1.035  -4.278   1.905  0.00  0.00    -0.175 NA
ATOM      3  N   UNL     1      -1.565  -4.987   2.961  0.00  0.00    -0.206 N 
ATOM      4  C   UNL     1      -1.989  -4.901   4.378  0.00  0.00    +0.206 C 
ATOM      5  N   UNL     1      -1.567  -6.182   4.994  0.00  0.00    -0.231 NA
ATOM      6  N   UNL     1      -1.018  -7.011   3.906  0.00  0.00    -0.224 NA
ATOM      7  C   UNL     1      -1.680  -6.458   2.707  0.00  0.00    +0.240 C 
ATOM      8  S   UNL     1      -0.618  -6.588   1.222  0.00  0.00    -0.064 S 
ATOM      9  H   UNL     1      -2.345  -6.643   5.441  0.00  0.00    +0.143 HD
ATOM     10  H   UNL     1      -0.016  -6.910   3.844  0.00  0.00    +0.144 HD
ENDROOT
BRANCH   4  11
ATOM     11  C   UNL     1      -3.508  -4.744   4.469  0.00  0.00    +0.190 C 
ATOM     12  C   UNL     1      -3.946  -4.590   5.914  0.00  0.00    +0.034 C 
ATOM     13  C   UNL     1      -4.745  -5.653   6.124  0.00  0.00    +0.091 C 
ATOM     14  N   UNL     1      -4.835  -6.409   4.999  0.00  0.00    -0.154 NA
ATOM     15  N   UNL     1      -4.185  -5.978   4.039  0.00  0.00    -0.176 NA
BRANCH  13  16
ATOM     16  C   UNL     1      -5.431  -5.957   7.405  0.00  0.00    +0.002 A 
ATOM     17  C   UNL     1      -5.274  -5.110   8.500  0.00  0.00    +0.010 A 
ATOM     18  C   UNL     1      -5.914  -5.397   9.689  0.00  0.00    +0.001 A 
ATOM     19  C   UNL     1      -6.710  -6.524   9.794  0.00  0.00    +0.000 A 
ATOM     20  C   UNL     1      -6.869  -7.369   8.710  0.00  0.00    +0.001 A 
ATOM     21  C   UNL     1      -6.238  -7.088   7.515  0.00  0.00    +0.010 A 
ENDBRANCH  13  16
ENDBRANCH   4  11
BRANCH   1  22
ATOM     22  C   UNL     1       0.206  -4.171  -0.283  0.00  0.00    +0.293 C 
BRANCH  22  23
ATOM     23  O   UNL     1       0.112  -2.753  -0.142  0.00  0.00    -0.482 OA
BRANCH  23  29
ATOM     24  C   UNL     1       0.606  -0.608  -1.056  0.00  0.00    +0.162 A 
ATOM     25  C   UNL     1       1.173   0.159  -2.062  0.00  0.00    +0.049 A 
ATOM     26  C   UNL     1       1.787  -0.456  -3.137  0.00  0.00    +0.004 A 
ATOM     27  C   UNL     1       1.837  -1.836  -3.212  0.00  0.00    +0.004 A 
ATOM     28  C   UNL     1       1.273  -2.606  -2.212  0.00  0.00    +0.049 A 
ATOM     29  C   UNL     1       0.662  -1.996  -1.129  0.00  0.00    +0.162 A 
BRANCH  24  31
ATOM     30  C   UNL     1      -0.017   1.425   0.010  0.00  0.00    +0.277 C 
ATOM     31  O   UNL     1       0.002  -0.004   0.002  0.00  0.00    -0.491 OA
ENDBRANCH  24  31
ENDBRANCH  23  29
ENDBRANCH  22  23
ENDBRANCH   1  22
TORSDOF 6
