REMARK  Name = ZINC11800640
REMARK  10 active torsions:
REMARK  status: ('A' for Active; 'I' for Inactive)
REMARK    1  A    between atoms: C_1  and  C_2
REMARK    2  A    between atoms: C_2  and  C_3
REMARK    3  A    between atoms: C_2  and  C_4
REMARK    4  A    between atoms: C_9  and  O_10
REMARK    5  A    between atoms: O_10  and  C_11
REMARK    6  A    between atoms: C_11  and  C_12
REMARK    7  A    between atoms: C_12  and  O_13
REMARK    8  A    between atoms: O_13  and  C_14
REMARK    9  A    between atoms: C_19  and  C_20
REMARK   10  A    between atoms: N_21  and  O_22
REMARK                            x       y       z     vdW  Elec       q    Type
REMARK                         _______ _______ _______ _____ _____    ______ ____
ROOT
ATOM      1  C   UNL     1       4.557   0.409   0.734  0.00  0.00    +0.270 C 
ENDROOT
BRANCH   1   2
ATOM      2  C   UNL     1       5.725  -0.391   1.313  0.00  0.00    +0.270 C 
BRANCH   2   3
ATOM      3  O   UNL     1       6.195  -1.323   0.337  0.00  0.00    -0.488 OA
BRANCH   3   9
ATOM      4  C   UNL     1       7.745  -3.045  -0.204  0.00  0.00    -0.003 A 
ATOM      5  C   UNL     1       8.805  -3.852   0.161  0.00  0.00    +0.007 A 
ATOM      6  C   UNL     1       9.360  -3.736   1.422  0.00  0.00    +0.001 A 
ATOM      7  C   UNL     1       8.857  -2.812   2.320  0.00  0.00    +0.004 A 
ATOM      8  C   UNL     1       7.801  -2.000   1.957  0.00  0.00    +0.046 A 
ATOM      9  C   UNL     1       7.238  -2.118   0.694  0.00  0.00    +0.124 A 
BRANCH   4  11
ATOM     10  C   UNL     1       8.208  -2.880  -2.635  0.00  0.00    +0.012 C 
ATOM     11  C   UNL     1       7.140  -3.171  -1.579  0.00  0.00    +0.016 C 
ATOM     12  C   UNL     1       6.606  -4.592  -1.772  0.00  0.00    +0.012 C 
ENDBRANCH   4  11
ENDBRANCH   3   9
ENDBRANCH   2   3
ENDBRANCH   1   2
BRANCH   1  13
ATOM     13  O   UNL     1       3.456  -0.467   0.486  0.00  0.00    -0.488 OA
BRANCH  13  14
ATOM     14  C   UNL     1       2.330   0.088  -0.032  0.00  0.00    +0.129 A 
ATOM     15  C   UNL     1       2.285   1.448  -0.298  0.00  0.00    +0.047 A 
ATOM     16  C   UNL     1       1.139   2.012  -0.826  0.00  0.00    +0.019 A 
ATOM     17  C   UNL     1       0.030   1.227  -1.092  0.00  0.00    +0.019 A 
ATOM     18  C   UNL     1       0.059  -0.128  -0.834  0.00  0.00    +0.028 A 
ATOM     19  C   UNL     1       1.211  -0.710  -0.301  0.00  0.00    +0.039 A 
ATOM     20 BR   UNL     1      -1.528   2.013  -1.821  0.00  0.00    -0.050 Br
BRANCH  19  21
ATOM     21  C   UNL     1       1.249  -2.158  -0.022  0.00  0.00    +0.164 C 
ATOM     22  N   UNL     1       0.146  -2.826   0.082  0.00  0.00    -0.095 NA
BRANCH  22  23
ATOM     23  O   UNL     1      -1.095  -2.145   0.098  0.00  0.00    -0.409 OA
ATOM     24  H   UNL     1      -2.033  -2.713   0.186  0.00  0.00    +0.328 HD
ENDBRANCH  22  23
ENDBRANCH  19  21
ENDBRANCH  13  14
ENDBRANCH   1  13
TORSDOF 8
