REMARK  Name = ZINC38062769
REMARK  2 active torsions:
REMARK  status: ('A' for Active; 'I' for Inactive)
REMARK    1  A    between atoms: N_10  and  C_11
REMARK    2  A    between atoms: C_11  and  C_12
REMARK                            x       y       z     vdW  Elec       q    Type
REMARK                         _______ _______ _______ _____ _____    ______ ____
ROOT
ATOM      1  C   UNL     1      -0.017   1.384   0.010  0.00  0.00    +0.040 A 
ATOM      2  C   UNL     1       1.164   2.099   0.002  0.00  0.00    +0.031 A 
ATOM      3  C   UNL     1       2.377   1.429  -0.013  0.00  0.00    +0.070 A 
ATOM      4  C   UNL     1       2.403   0.024  -0.021  0.00  0.00    +0.094 A 
ATOM      5  C   UNL     1       1.200  -0.687  -0.013  0.00  0.00    +0.068 A 
ATOM      6  C   UNL     1       0.002  -0.004   0.002  0.00  0.00    +0.126 A 
ATOM      7  F   UNL     1      -1.161  -0.691   0.010  0.00  0.00    -0.205 F 
ATOM      8  N   UNL     1       3.709  -0.352  -0.035  0.00  0.00    -0.215 NA
ATOM      9  C   UNL     1       4.473   0.712  -0.037  0.00  0.00    +0.194 A 
ATOM     10  N   UNL     1       3.701   1.838  -0.023  0.00  0.00    -0.309 N 
ATOM     11  N   UNL     1       5.852   0.697  -0.050  0.00  0.00    -0.329 N 
ATOM     12  H   UNL     1       6.328  -0.148  -0.060  0.00  0.00    +0.145 HD
ATOM     13  H   UNL     1       6.346   1.532  -0.050  0.00  0.00    +0.145 HD
ENDROOT
BRANCH  10  14
ATOM     14  C   UNL     1       4.183   3.222  -0.021  0.00  0.00    +0.159 C 
BRANCH  14  15
ATOM     15  C   UNL     1       4.364   3.696   1.422  0.00  0.00    +0.164 C 
ATOM     16  C   UNL     1       4.750   5.178   1.429  0.00  0.00    +0.193 C 
ATOM     17  O   UNL     1       5.026   5.585   2.773  0.00  0.00    -0.375 OA
ATOM     18  C   UNL     1       6.066   4.826   3.399  0.00  0.00    +0.188 C 
ATOM     19  C   UNL     1       5.679   3.344   3.392  0.00  0.00    +0.188 C 
ATOM     20  O   UNL     1       5.402   2.937   2.049  0.00  0.00    -0.370 OA
ENDBRANCH  14  15
ENDBRANCH  10  14
TORSDOF 2
