REMARK  Name = ZINC00198312
REMARK  6 active torsions:
REMARK  status: ('A' for Active; 'I' for Inactive)
REMARK    1  A    between atoms: C_1  and  C_2
REMARK    2  A    between atoms: C_3  and  N_15
REMARK    3  A    between atoms: N_6  and  C_9
REMARK    4  A    between atoms: N_7  and  C_8
REMARK    5  A    between atoms: N_18  and  C_19
REMARK    6  A    between atoms: C_19  and  C_20
REMARK                            x       y       z     vdW  Elec       q    Type
REMARK                         _______ _______ _______ _____ _____    ______ ____
ROOT
ATOM      1  C   UNL     1       0.065   0.989   0.027  0.00  0.00    +0.067 C 
ATOM      2  C   UNL     1      -0.695   1.567   1.193  0.00  0.00    +0.059 A 
ATOM      3  C   UNL     1      -1.413   0.864   2.096  0.00  0.00    +0.122 A 
ATOM      4  C   UNL     1      -1.967   1.781   3.026  0.00  0.00    +0.293 A 
ATOM      5  O   UNL     1      -2.673   1.501   3.978  0.00  0.00    -0.264 OA
ATOM      6  N   UNL     1      -1.572   3.019   2.666  0.00  0.00    -0.216 N 
ATOM      7  N   UNL     1      -0.771   2.897   1.522  0.00  0.00    -0.282 N 
ATOM      8  C   UNL     1      -0.129   3.998   0.802  0.00  0.00    +0.171 C 
ENDROOT
BRANCH   6   9
ATOM      9  C   UNL     1      -1.899   4.211   3.319  0.00  0.00    +0.067 A 
ATOM     10  C   UNL     1      -2.352   5.303   2.590  0.00  0.00    +0.028 A 
ATOM     11  C   UNL     1      -2.680   6.477   3.239  0.00  0.00    +0.002 A 
ATOM     12  C   UNL     1      -2.547   6.570   4.612  0.00  0.00    +0.000 A 
ATOM     13  C   UNL     1      -2.091   5.487   5.340  0.00  0.00    +0.002 A 
ATOM     14  C   UNL     1      -1.767   4.308   4.698  0.00  0.00    +0.028 A 
ENDBRANCH   6   9
BRANCH   3  15
ATOM     15  N   UNL     1      -1.582  -0.536   2.112  0.00  0.00    -0.264 N 
ATOM     16  C   UNL     1      -1.282  -1.239   3.222  0.00  0.00    +0.304 C 
ATOM     17  O   UNL     1      -0.957  -0.658   4.240  0.00  0.00    -0.253 OA
ATOM     18  N   UNL     1      -1.343  -2.585   3.204  0.00  0.00    -0.291 N 
ATOM     19  H   UNL     1      -1.915  -0.993   1.323  0.00  0.00    +0.157 HD
ATOM     20  H   UNL     1      -1.602  -3.048   2.392  0.00  0.00    +0.151 HD
BRANCH  18  21
ATOM     21  C   UNL     1      -1.016  -3.349   4.411  0.00  0.00    +0.218 C 
BRANCH  21  22
ATOM     22  C   UNL     1      -1.163  -4.845   4.123  0.00  0.00    +0.405 C 
ATOM     23  F   UNL     1      -0.291  -5.208   3.091  0.00  0.00    -0.169 F 
ATOM     24  F   UNL     1      -0.851  -5.574   5.275  0.00  0.00    -0.169 F 
ATOM     25  F   UNL     1      -2.480  -5.119   3.739  0.00  0.00    -0.169 F 
ENDBRANCH  21  22
ENDBRANCH  18  21
ENDBRANCH   3  15
TORSDOF 4
