REMARK  Name = ZINC08264266
REMARK  8 active torsions:
REMARK  status: ('A' for Active; 'I' for Inactive)
REMARK    1  A    between atoms: C_1  and  C_2
REMARK    2  A    between atoms: C_5  and  C_8
REMARK    3  A    between atoms: C_8  and  C_10
REMARK    4  A    between atoms: C_8  and  N_50
REMARK    5  A    between atoms: C_16  and  C_17
REMARK    6  A    between atoms: C_16  and  N_50
REMARK    7  A    between atoms: N_22  and  C_23
REMARK    8  A    between atoms: C_23  and  C_24
REMARK                            x       y       z     vdW  Elec       q    Type
REMARK                         _______ _______ _______ _____ _____    ______ ____
ROOT
ATOM      1  N   UNL     1       1.369   1.603   0.003  0.00  0.00    +0.392 N 
ATOM      2  H   UNL     1       1.721   1.639   0.967  0.00  0.00    -0.084 HD
ATOM      3  H   UNL     1       1.375   2.548  -0.399  0.00  0.00    -0.084 HD
ENDROOT
BRANCH   1   4
ATOM      4  C   UNL     1      -0.013   1.086   0.008  0.00  0.00    -0.009 C 
BRANCH   4   9
ATOM      5  C   UNL     1      -2.716   2.949   4.763  0.00  0.00    +0.044 C 
ATOM      6  C   UNL     1      -2.011   2.463   3.523  0.00  0.00    -0.050 A 
ATOM      7  C   UNL     1      -2.215   1.172   3.073  0.00  0.00    +0.003 A 
ATOM      8  C   UNL     1      -1.568   0.726   1.936  0.00  0.00    +0.002 A 
ATOM      9  C   UNL     1      -0.718   1.572   1.248  0.00  0.00    -0.057 A 
ATOM     10  C   UNL     1      -0.511   2.861   1.700  0.00  0.00    +0.002 A 
ATOM     11  C   UNL     1      -1.161   3.309   2.835  0.00  0.00    +0.003 A 
ENDBRANCH   4   9
BRANCH   4  12
ATOM     12  C   UNL     1      -0.742   1.585  -1.213  0.00  0.00    -0.057 A 
ATOM     13  C   UNL     1      -0.551   2.883  -1.649  0.00  0.00    +0.002 A 
ATOM     14  C   UNL     1      -1.217   3.340  -2.771  0.00  0.00    +0.000 A 
ATOM     15  C   UNL     1      -2.079   2.501  -3.453  0.00  0.00    +0.000 A 
ATOM     16  C   UNL     1      -2.273   1.205  -3.014  0.00  0.00    +0.000 A 
ATOM     17  C   UNL     1      -1.605   0.747  -1.893  0.00  0.00    +0.002 A 
ENDBRANCH   4  12
ENDBRANCH   1   4
BRANCH   1  18
ATOM     18  C   UNL     1       2.241   0.727  -0.802  0.00  0.00    +0.017 C 
BRANCH  18  19
ATOM     19  C   UNL     1       3.643   1.279  -0.789  0.00  0.00    +0.203 C 
ATOM     20  O   UNL     1       3.889   2.295  -0.175  0.00  0.00    -0.277 OA
ATOM     21  N   UNL     1       4.623   0.644  -1.461  0.00  0.00    -0.242 N 
ATOM     22  C   UNL     1       5.877   1.137  -1.450  0.00  0.00    +0.306 C 
ATOM     23  O   UNL     1       6.124   2.156  -0.834  0.00  0.00    -0.252 OA
ATOM     24  N   UNL     1       6.858   0.502  -2.122  0.00  0.00    -0.292 N 
ATOM     25  H   UNL     1       4.426  -0.169  -1.953  0.00  0.00    +0.159 HD
ATOM     26  H   UNL     1       6.661  -0.311  -2.613  0.00  0.00    +0.151 HD
BRANCH  24  27
ATOM     27  C   UNL     1       8.221   1.039  -2.109  0.00  0.00    +0.180 C 
BRANCH  27  28
ATOM     28  C   UNL     1       9.119   0.149  -2.930  0.00  0.00    +0.122 A 
ATOM     29  C   UNL     1       9.362   0.276  -4.247  0.00  0.00    +0.046 A 
ATOM     30  C   UNL     1      10.254  -0.762  -4.601  0.00  0.00    +0.041 A 
ATOM     31  C   UNL     1      10.501  -1.462  -3.479  0.00  0.00    +0.195 A 
ATOM     32  O   UNL     1       9.816  -0.902  -2.469  0.00  0.00    -0.466 OA
ENDBRANCH  27  28
ENDBRANCH  24  27
ENDBRANCH  18  19
ENDBRANCH   1  18
TORSDOF 7
