REMARK  Name = ZINC45626352
REMARK  7 active torsions:
REMARK  status: ('A' for Active; 'I' for Inactive)
REMARK    1  A    between atoms: C_1  and  C_2
REMARK    2  A    between atoms: C_2  and  C_4
REMARK    3  A    between atoms: C_2  and  N_7
REMARK    4  A    between atoms: C_4  and  C_5
REMARK    5  A    between atoms: C_4  and  C_6
REMARK    6  A    between atoms: C_8  and  C_12
REMARK    7  A    between atoms: C_14  and  N_19
REMARK                            x       y       z     vdW  Elec       q    Type
REMARK                         _______ _______ _______ _____ _____    ______ ____
ROOT
ATOM      1  N   UNL     1       0.675  -0.449  -1.222  0.00  0.00    -0.222 N 
ATOM      2  C   UNL     1       0.209  -1.331  -2.142  0.00  0.00    +0.183 A 
ATOM      3  N   UNL     1       1.167  -1.504  -3.028  0.00  0.00    -0.108 NA
ATOM      4  N   UNL     1       2.193  -0.794  -2.727  0.00  0.00    -0.023 NA
ATOM      5  N   UNL     1       1.974  -0.122  -1.649  0.00  0.00    -0.043 NA
ENDROOT
BRANCH   2   6
ATOM      6  C   UNL     1      -1.122  -1.976  -2.147  0.00  0.00    +0.036 A 
ATOM      7  C   UNL     1      -2.272  -1.209  -1.964  0.00  0.00    +0.035 A 
ATOM      8  C   UNL     1      -3.516  -1.820  -1.971  0.00  0.00    +0.025 A 
ATOM      9  C   UNL     1      -3.615  -3.194  -2.158  0.00  0.00    +0.024 A 
ATOM     10  C   UNL     1      -2.476  -3.955  -2.339  0.00  0.00    +0.018 A 
ATOM     11  C   UNL     1      -1.232  -3.354  -2.340  0.00  0.00    +0.029 A 
ATOM     12 BR   UNL     1       0.323  -4.400  -2.596  0.00  0.00    -0.050 Br
BRANCH   8  13
ATOM     13  N   UNL     1      -4.671  -1.055  -1.788  0.00  0.00    -0.358 N 
ATOM     14  H   UNL     1      -4.603  -0.097  -1.657  0.00  0.00    +0.142 HD
ATOM     15  H   UNL     1      -5.542  -1.483  -1.793  0.00  0.00    +0.142 HD
ENDBRANCH   8  13
ENDBRANCH   2   6
BRANCH   1  17
ATOM     16  C   UNL     1      -0.281   1.558  -0.203  0.00  0.00    +0.033 C 
ATOM     17  C   UNL     1      -0.028   0.058  -0.041  0.00  0.00    +0.111 C 
BRANCH  17  18
ATOM     18  C   UNL     1       0.828  -0.183   1.204  0.00  0.00    +0.007 C 
ATOM     19  C   UNL     1       0.094   0.347   2.438  0.00  0.00    +0.009 C 
ATOM     20  C   UNL     1       1.080  -1.683   1.367  0.00  0.00    +0.009 C 
ENDBRANCH  17  18
ENDBRANCH   1  17
TORSDOF 4
