REMARK  Name = ZINC65256554
REMARK  4 active torsions:
REMARK  status: ('A' for Active; 'I' for Inactive)
REMARK    1  A    between atoms: C_6  and  C_11
REMARK    2  A    between atoms: N_13  and  C_14
REMARK    3  A    between atoms: N_19  and  C_21
REMARK    4  A    between atoms: C_24  and  C_27
REMARK                            x       y       z     vdW  Elec       q    Type
REMARK                         _______ _______ _______ _____ _____    ______ ____
ROOT
ATOM      1  C   UNL     1       3.809  -4.725  -2.700  0.00  0.00    +0.087 C 
ATOM      2  C   UNL     1       5.233  -5.240  -2.473  0.00  0.00    +0.025 C 
ATOM      3  C   UNL     1       5.699  -5.997  -3.719  0.00  0.00    +0.017 C 
ATOM      4  C   UNL     1       4.724  -7.141  -4.008  0.00  0.00    +0.087 C 
ATOM      5  N   UNL     1       3.377  -6.597  -4.219  0.00  0.00    -0.275 NA
ATOM      6  C   UNL     1       2.889  -5.905  -3.020  0.00  0.00    +0.109 C 
ENDROOT
BRANCH   5   7
ATOM      7  C   UNL     1       2.443  -7.651  -4.636  0.00  0.00    +0.224 C 
ATOM      8  C   UNL     1       2.855  -8.235  -5.975  0.00  0.00    +0.047 C 
ATOM      9  C   UNL     1       1.811  -7.961  -6.782  0.00  0.00    +0.092 C 
ATOM     10  N   UNL     1       0.844  -7.297  -6.096  0.00  0.00    -0.152 NA
ATOM     11  N   UNL     1       1.110  -7.087  -4.907  0.00  0.00    -0.163 NA
BRANCH   9  12
ATOM     12  C   UNL     1       1.729  -8.333  -8.215  0.00  0.00    +0.005 A 
ATOM     13  C   UNL     1       2.772  -9.023  -8.839  0.00  0.00    +0.030 A 
ATOM     14  C   UNL     1       2.655  -9.349 -10.175  0.00  0.00    +0.111 A 
ATOM     15  N   UNL     1       1.577  -9.018 -10.860  0.00  0.00    -0.263 NA
ATOM     16  C   UNL     1       0.570  -8.367 -10.309  0.00  0.00    +0.111 A 
ATOM     17  C   UNL     1       0.604  -8.007  -8.978  0.00  0.00    +0.030 A 
ENDBRANCH   9  12
ENDBRANCH   5   7
BRANCH   1  20
ATOM     18  C   UNL     1       3.631  -2.749  -1.285  0.00  0.00    +0.240 C 
ATOM     19  O   UNL     1       4.291  -2.141  -2.101  0.00  0.00    -0.273 OA
ATOM     20  N   UNL     1       3.335  -4.048  -1.491  0.00  0.00    -0.309 N 
ATOM     21  H   UNL     1       2.807  -4.534  -0.838  0.00  0.00    +0.149 HD
BRANCH  18  27
ATOM     22  C   UNL     1      -0.016   1.348   0.009  0.00  0.00    +0.001 A 
ATOM     23  C   UNL     1       1.166   2.101   0.002  0.00  0.00    +0.002 A 
ATOM     24  C   UNL     1       2.391   1.535  -0.013  0.00  0.00    +0.026 A 
ATOM     25  C   UNL     1       2.529   0.120  -0.022  0.00  0.00    +0.043 A 
ATOM     26  N   UNL     1       3.587  -0.654  -0.037  0.00  0.00    -0.370 N 
ATOM     27  C   UNL     1       3.143  -2.053  -0.041  0.00  0.00    +0.190 C 
ATOM     28  C   UNL     1       1.631  -2.008  -0.025  0.00  0.00    +0.016 C 
ATOM     29  C   UNL     1       1.295  -0.698  -0.014  0.00  0.00    -0.004 A 
ATOM     30  C   UNL     1       0.002  -0.004   0.002  0.00  0.00    +0.010 A 
ATOM     31  H   UNL     1       4.509  -0.353  -0.045  0.00  0.00    +0.161 HD
ENDBRANCH  18  27
ENDBRANCH   1  20
TORSDOF 4
