REMARK  Name = ZINC44463971
REMARK  17 active torsions:
REMARK  status: ('A' for Active; 'I' for Inactive)
REMARK    1  A    between atoms: C_1  and  C_2
REMARK    2  A    between atoms: C_4  and  O_31
REMARK    3  A    between atoms: C_5  and  C_25
REMARK    4  A    between atoms: C_6  and  O_24
REMARK    5  A    between atoms: C_7  and  C_8
REMARK    6  A    between atoms: C_8  and  O_10
REMARK    7  A    between atoms: O_10  and  C_11
REMARK    8  A    between atoms: C_13  and  C_23
REMARK    9  A    between atoms: C_14  and  C_19
REMARK   10  A    between atoms: C_15  and  O_18
REMARK   11  A    between atoms: C_16  and  C_17
REMARK   12  A    between atoms: C_19  and  O_21
REMARK   13  A    between atoms: O_21  and  C_22
REMARK   14  A    between atoms: C_25  and  CA_26
REMARK   15  A    between atoms: CA_26  and  C_28
REMARK   16  A    between atoms: CA_26  and  N_30
REMARK   17  A    between atoms: C_28  and  O_29
REMARK                            x       y       z     vdW  Elec       q    Type
REMARK                         _______ _______ _______ _____ _____    ______ ____
ROOT
ATOM      1  C   UNL     1      -0.190   1.432   0.058  0.00  0.00    +0.045 C 
ATOM      2  C   UNL     1      -0.087  -0.072   0.047  0.00  0.00    -0.029 A 
ATOM      3  C   UNL     1      -0.090  -0.754  -1.147  0.00  0.00    +0.050 A 
ATOM      4  C   UNL     1       0.003  -2.142  -1.162  0.00  0.00    +0.124 A 
ATOM      5  C   UNL     1       0.100  -2.850   0.027  0.00  0.00    +0.035 A 
ATOM      6  C   UNL     1       0.105  -2.176   1.236  0.00  0.00    +0.138 A 
ATOM      7  C   UNL     1       0.016  -0.775   1.253  0.00  0.00    +0.104 A 
ENDROOT
BRANCH   7   8
ATOM      8  C   UNL     1       0.026  -0.049   2.533  0.00  0.00    +0.348 C 
ATOM      9  O   UNL     1      -1.019   0.179   3.110  0.00  0.00    -0.244 OA
BRANCH   8  10
ATOM     10  O   UNL     1       1.195   0.362   3.065  0.00  0.00    -0.422 OA
BRANCH  10  11
ATOM     11  C   UNL     1       1.150   1.119   4.191  0.00  0.00    +0.139 A 
ATOM     12  C   UNL     1       1.161   2.508   4.093  0.00  0.00    +0.051 A 
ATOM     13  C   UNL     1       1.116   3.279   5.219  0.00  0.00    -0.029 A 
ATOM     14  C   UNL     1       1.060   2.677   6.480  0.00  0.00    +0.104 A 
ATOM     15  C   UNL     1       1.049   1.277   6.583  0.00  0.00    +0.137 A 
ATOM     16  C   UNL     1       1.089   0.506   5.433  0.00  0.00    +0.034 A 
ATOM     17  C   UNL     1       1.073  -0.998   5.532  0.00  0.00    +0.051 C 
ATOM     18  C   UNL     1       1.128   4.782   5.102  0.00  0.00    +0.045 C 
BRANCH  15  19
ATOM     19  O   UNL     1       0.995   0.683   7.801  0.00  0.00    -0.506 OA
ATOM     20  H   UNL     1       0.097   0.515   8.117  0.00  0.00    +0.292 HD
ENDBRANCH  15  19
BRANCH  14  21
ATOM     21  C   UNL     1       1.012   3.507   7.694  0.00  0.00    +0.343 C 
ATOM     22  O   UNL     1      -0.059   3.855   8.151  0.00  0.00    -0.245 OA
BRANCH  21  23
ATOM     23  O   UNL     1       2.156   3.882   8.300  0.00  0.00    -0.464 OA
ATOM     24  C   UNL     1       2.035   4.688   9.474  0.00  0.00    +0.280 C 
ENDBRANCH  21  23
ENDBRANCH  14  21
ENDBRANCH  10  11
ENDBRANCH   8  10
ENDBRANCH   7   8
BRANCH   6  25
ATOM     25  O   UNL     1       0.199  -2.866   2.400  0.00  0.00    -0.506 OA
ATOM     26  H   UNL     1       1.107  -3.007   2.701  0.00  0.00    +0.292 HD
ENDBRANCH   6  25
BRANCH   4  27
ATOM     27  O   UNL     1      -0.001  -2.807  -2.345  0.00  0.00    -0.506 OA
ATOM     28  H   UNL     1       0.878  -2.940  -2.725  0.00  0.00    +0.292 HD
ENDBRANCH   4  27
BRANCH   5  29
ATOM     29  C   UNL     1       0.200  -4.353   0.003  0.00  0.00    +0.028 C 
BRANCH  29  30
ATOM     30  CA  UNL     1       1.672  -4.766  -0.065  0.00  0.00    -0.045 C 
BRANCH  30  31
ATOM     31  N   UNL     1       2.248  -4.317  -1.340  0.00  0.00    +0.382 N 
ATOM     32  H1  UNL     1       2.176  -3.313  -1.407  0.00  0.00    -0.090 HD
ATOM     33  H2  UNL     1       3.218  -4.589  -1.385  0.00  0.00    -0.090 HD
ATOM     34  H3  UNL     1       1.744  -4.742  -2.105  0.00  0.00    -0.090 HD
ENDBRANCH  30  31
BRANCH  30  35
ATOM     35  C   UNL     1       1.780  -6.288   0.036  0.00  0.00    +0.140 C 
BRANCH  35  36
ATOM     36  O   UNL     1       3.158  -6.665   0.089  0.00  0.00    -0.397 OA
ATOM     37  H   UNL     1       3.302  -7.619   0.154  0.00  0.00    +0.209 HD
ENDBRANCH  35  36
ENDBRANCH  30  35
ENDBRANCH  29  30
ENDBRANCH   5  29
TORSDOF 13
