REMARK  Name = ZINC45821220
REMARK  3 active torsions:
REMARK  status: ('A' for Active; 'I' for Inactive)
REMARK    1  A    between atoms: C_4  and  C_18
REMARK    2  A    between atoms: C_5  and  C_16
REMARK    3  A    between atoms: C_16  and  N_17
REMARK                            x       y       z     vdW  Elec       q    Type
REMARK                         _______ _______ _______ _____ _____    ______ ____
ROOT
ATOM      1  C   UNL     1      -0.017   1.404   0.010  0.00  0.00    +0.011 A 
ATOM      2  C   UNL     1       1.148   2.100   0.002  0.00  0.00    +0.011 A 
ATOM      3  C   UNL     1       2.384   1.436  -0.013  0.00  0.00    +0.015 A 
ATOM      4  C   UNL     1       3.785   1.897  -0.026  0.00  0.00    +0.089 A 
ATOM      5  C   UNL     1       4.560   0.771  -0.040  0.00  0.00    +0.014 A 
ATOM      6  N   UNL     1       3.772  -0.320  -0.037  0.00  0.00    -0.358 N 
ATOM      7  H   UNL     1       4.095  -1.234  -0.045  0.00  0.00    +0.166 HD
ATOM      8  C   UNL     1       2.445   0.041  -0.022  0.00  0.00    +0.055 A 
ATOM      9  C   UNL     1       1.242  -0.693  -0.013  0.00  0.00    +0.010 A 
ATOM     10  C   UNL     1       0.002  -0.004   0.002  0.00  0.00    +0.002 A 
ATOM     11  C   UNL     1      -1.182  -0.757   0.009  0.00  0.00    +0.121 A 
ATOM     12  N   UNL     1      -1.125  -2.069   0.002  0.00  0.00    -0.243 NA
ATOM     13  C   UNL     1       0.020  -2.737  -0.013  0.00  0.00    +0.130 A 
ATOM     14  C   UNL     1       1.224  -2.096  -0.021  0.00  0.00    +0.050 A 
ATOM     15 CL   UNL     1      -0.015  -4.473  -0.021  0.00  0.00    -0.062 Cl
ENDROOT
BRANCH   4  16
ATOM     16  C   UNL     1       4.253   3.286  -0.024  0.00  0.00    +0.389 C 
ATOM     17  O   UNL     1       3.443   4.205  -0.011  0.00  0.00    -0.241 OA
ATOM     18  O   UNL     1       5.453   3.527  -0.036  0.00  0.00    -0.241 OA
ENDBRANCH   4  16
BRANCH   5  19
ATOM     19  C   UNL     1       6.067   0.753  -0.056  0.00  0.00    -0.031 C 
BRANCH  19  20
ATOM     20  N   UNL     1       6.574   0.981   1.304  0.00  0.00    +0.382 N 
ATOM     21  H   UNL     1       6.252   1.877   1.637  0.00  0.00    -0.090 HD
ATOM     22  H   UNL     1       6.236   0.253   1.915  0.00  0.00    -0.090 HD
ATOM     23  H   UNL     1       7.583   0.970   1.292  0.00  0.00    -0.090 HD
ENDBRANCH  19  20
ENDBRANCH   5  19
TORSDOF 3
