REMARK  Name = ZINC58467351
REMARK  7 active torsions:
REMARK  status: ('A' for Active; 'I' for Inactive)
REMARK    1  A    between atoms: C_4  and  C_7
REMARK    2  A    between atoms: C_7  and  C_9
REMARK    3  A    between atoms: C_7  and  N_12
REMARK    4  A    between atoms: N_15  and  C_16
REMARK    5  A    between atoms: C_16  and  C_17
REMARK    6  A    between atoms: C_17  and  C_19
REMARK    7  A    between atoms: C_17  and  N_24
REMARK                            x       y       z     vdW  Elec       q    Type
REMARK                         _______ _______ _______ _____ _____    ______ ____
ROOT
ATOM      1  N   UNL     1       3.624  -1.803   0.930  0.00  0.00    -0.292 N 
ATOM      2  C   UNL     1       4.723  -2.246   1.573  0.00  0.00    +0.300 C 
ATOM      3  O   UNL     1       5.753  -1.600   1.532  0.00  0.00    -0.253 OA
ATOM      4  N   UNL     1       4.680  -3.404   2.261  0.00  0.00    -0.301 N 
ATOM      5  H   UNL     1       2.803  -2.318   0.963  0.00  0.00    +0.151 HD
ATOM      6  H   UNL     1       3.859  -3.918   2.294  0.00  0.00    +0.150 HD
ENDROOT
BRANCH   1   7
ATOM      7  C   UNL     1       3.670  -0.544   0.182  0.00  0.00    +0.108 C 
BRANCH   7  11
ATOM      8  C   UNL     1      -0.263   1.100  -0.085  0.00  0.00    +0.000 A 
ATOM      9  C   UNL     1       0.820   1.931   0.138  0.00  0.00    +0.000 A 
ATOM     10  C   UNL     1       2.093   1.398   0.225  0.00  0.00    +0.005 A 
ATOM     11  C   UNL     1       2.283   0.036   0.089  0.00  0.00    -0.027 A 
ATOM     12  C   UNL     1       1.200  -0.794  -0.134  0.00  0.00    +0.005 A 
ATOM     13  C   UNL     1      -0.073  -0.262  -0.222  0.00  0.00    +0.000 A 
ENDBRANCH   7  11
BRANCH   7  14
ATOM     14  C   UNL     1       4.209  -0.807  -1.226  0.00  0.00    +0.014 C 
ATOM     15  C   UNL     1       4.390  -2.266  -1.652  0.00  0.00    +0.006 C 
ATOM     16  C   UNL     1       5.614  -1.400  -1.345  0.00  0.00    +0.006 C 
ENDBRANCH   7  14
ENDBRANCH   1   7
BRANCH   4  17
ATOM     17  C   UNL     1       5.875  -3.885   2.960  0.00  0.00    +0.098 C 
BRANCH  17  18
ATOM     18  C   UNL     1       5.524  -5.138   3.766  0.00  0.00    +0.016 C 
BRANCH  18  19
ATOM     19  N   UNL     1       6.747  -5.695   4.360  0.00  0.00    +0.387 N 
ATOM     20  C   UNL     1       6.425  -6.917   5.141  0.00  0.00    -0.078 C 
ATOM     21  C   UNL     1       7.781  -7.664   5.205  0.00  0.00    -0.020 C 
ATOM     22  C   UNL     1       8.389  -7.396   3.809  0.00  0.00    -0.020 C 
ATOM     23  C   UNL     1       7.678  -6.130   3.297  0.00  0.00    -0.078 C 
ATOM     24  H   UNL     1       7.190  -5.009   4.952  0.00  0.00    -0.081 HD
ENDBRANCH  18  19
BRANCH  18  25
ATOM     25  C   UNL     1       4.553  -4.776   4.860  0.00  0.00    +0.093 A 
ATOM     26  C   UNL     1       3.223  -4.970   4.826  0.00  0.00    +0.043 A 
ATOM     27  C   UNL     1       2.708  -4.488   6.052  0.00  0.00    +0.041 A 
ATOM     28  C   UNL     1       3.754  -4.029   6.761  0.00  0.00    +0.195 A 
ATOM     29  O   UNL     1       4.870  -4.211   6.036  0.00  0.00    -0.469 OA
ENDBRANCH  18  25
ENDBRANCH  17  18
ENDBRANCH   4  17
TORSDOF 7
