REMARK  Name = ZINC48135066
REMARK  8 active torsions:
REMARK  status: ('A' for Active; 'I' for Inactive)
REMARK    1  A    between atoms: C_1  and  N_2
REMARK    2  A    between atoms: N_2  and  C_3
REMARK    3  A    between atoms: N_2  and  C_4
REMARK    4  A    between atoms: C_4  and  C_5
REMARK    5  A    between atoms: N_7  and  C_10
REMARK    6  A    between atoms: C_10  and  C_11
REMARK    7  A    between atoms: N_16  and  C_18
REMARK    8  A    between atoms: C_18  and  C_19
REMARK                            x       y       z     vdW  Elec       q    Type
REMARK                         _______ _______ _______ _____ _____    ______ ____
ROOT
ATOM      1  C   UNL     1       6.557  -0.226  -1.726  0.00  0.00    -0.006 C 
ATOM      2  C   UNL     1       6.136  -1.202  -2.829  0.00  0.00    +0.002 C 
ATOM      3  C   UNL     1       7.098  -1.066  -4.012  0.00  0.00    -0.018 C 
ATOM      4  C   UNL     1       8.528  -1.317  -3.531  0.00  0.00    -0.078 C 
ATOM      5  N   UNL     1       8.880  -0.336  -2.497  0.00  0.00    +0.383 N 
ATOM      6  C   UNL     1       8.008  -0.508  -1.329  0.00  0.00    -0.073 C 
ATOM      7  H   UNL     1       8.766   0.596  -2.867  0.00  0.00    -0.081 HD
ENDROOT
BRANCH   1   8
ATOM      8  C   UNL     1       5.650  -0.409  -0.508  0.00  0.00    +0.147 C 
BRANCH   8  11
ATOM      9  C   UNL     1       2.137  -0.060  -1.158  0.00  0.00    +0.066 A 
ATOM     10  C   UNL     1       3.179  -0.801  -0.717  0.00  0.00    +0.131 A 
ATOM     11  N   UNL     1       4.280  -0.026  -0.858  0.00  0.00    -0.251 N 
ATOM     12  N   UNL     1       3.915   1.105  -1.351  0.00  0.00    -0.066 NA
ATOM     13  N   UNL     1       2.644   1.115  -1.548  0.00  0.00    -0.136 NA
BRANCH   9  14
ATOM     14  C   UNL     1       0.690  -0.478  -1.207  0.00  0.00    -0.020 C 
BRANCH  14  16
ATOM     15  C   UNL     1      -0.018   1.465   0.010  0.00  0.00    -0.096 C 
ATOM     16  N   UNL     1       0.002  -0.004   0.002  0.00  0.00    +0.380 N 
ATOM     17  C   UNL     1      -1.376  -0.512   0.012  0.00  0.00    -0.096 C 
ATOM     18  H   UNL     1       0.490  -0.338   0.820  0.00  0.00    -0.082 HD
ENDBRANCH  14  16
ENDBRANCH   9  14
ENDBRANCH   8  11
ENDBRANCH   1   8
BRANCH   5  19
ATOM     19  C   UNL     1      10.279  -0.532  -2.095  0.00  0.00    -0.043 C 
BRANCH  19  20
ATOM     20  C   UNL     1      11.185  -0.227  -3.260  0.00  0.00    -0.060 A 
ATOM     21  C   UNL     1      11.535  -1.231  -4.144  0.00  0.00    +0.005 A 
ATOM     22  C   UNL     1      12.366  -0.955  -5.213  0.00  0.00    +0.049 A 
ATOM     23  C   UNL     1      12.852   0.330  -5.402  0.00  0.00    +0.162 A 
ATOM     24  C   UNL     1      12.498   1.340  -4.514  0.00  0.00    +0.162 A 
ATOM     25  C   UNL     1      11.660   1.057  -3.446  0.00  0.00    +0.051 A 
ATOM     26  O   UNL     1      12.957   2.610  -4.686  0.00  0.00    -0.485 OA
ATOM     27  C   UNL     1      14.085   2.775  -5.552  0.00  0.00    +0.270 C 
ATOM     28  C   UNL     1      13.835   1.959  -6.828  0.00  0.00    +0.270 C 
ATOM     29  O   UNL     1      13.673   0.586  -6.457  0.00  0.00    -0.485 OA
ENDBRANCH  19  20
ENDBRANCH   5  19
TORSDOF 6
