REMARK  Name = ZINC35325142
REMARK  8 active torsions:
REMARK  status: ('A' for Active; 'I' for Inactive)
REMARK    1  A    between atoms: C_1  and  C_2
REMARK    2  A    between atoms: C_7  and  N_12
REMARK    3  A    between atoms: C_9  and  C_11
REMARK    4  A    between atoms: C_13  and  C_15
REMARK    5  A    between atoms: C_15  and  C_37
REMARK    6  A    between atoms: N_27  and  C_28
REMARK    7  A    between atoms: C_28  and  C_29
REMARK    8  A    between atoms: C_29  and  N_30
REMARK                            x       y       z     vdW  Elec       q    Type
REMARK                         _______ _______ _______ _____ _____    ______ ____
ROOT
ATOM      1  C   UNL     1       2.772  -4.260   3.519  0.00  0.00    +0.128 C 
ATOM      2  C   UNL     1       1.784  -5.026   4.399  0.00  0.00    +0.157 C 
ATOM      3  N   UNL     1       0.957  -4.068   5.139  0.00  0.00    -0.331 N 
ATOM      4  C   UNL     1      -0.321  -4.186   5.598  0.00  0.00    +0.088 A 
ATOM      5  C   UNL     1      -1.466  -5.014   5.683  0.00  0.00    +0.067 A 
ATOM      6  C   UNL     1      -2.401  -4.333   6.367  0.00  0.00    +0.198 A 
ATOM      7  O   UNL     1      -1.914  -3.131   6.716  0.00  0.00    -0.461 OA
ATOM      8  C   UNL     1      -0.649  -3.004   6.261  0.00  0.00    +0.153 A 
ATOM      9  C   UNL     1       0.465  -2.154   6.190  0.00  0.00    +0.079 A 
ATOM     10  C   UNL     1       1.438  -2.811   5.497  0.00  0.00    +0.109 A 
ATOM     11  C   UNL     1       2.789  -2.386   5.111  0.00  0.00    +0.264 C 
ATOM     12  O   UNL     1       3.292  -1.370   5.554  0.00  0.00    -0.268 OA
ATOM     13  N   UNL     1       3.445  -3.184   4.237  0.00  0.00    -0.282 N 
ATOM     14  C   UNL     1       3.824  -5.238   2.993  0.00  0.00    +0.043 C 
ENDROOT
BRANCH   1  16
ATOM     15  N   UNL     1       1.457  -2.455   2.454  0.00  0.00    -0.310 N 
ATOM     16  C   UNL     1       2.026  -3.672   2.348  0.00  0.00    +0.238 C 
ATOM     17  O   UNL     1       1.939  -4.294   1.311  0.00  0.00    -0.273 OA
ATOM     18  H   UNL     1       1.527  -1.957   3.284  0.00  0.00    +0.149 HD
BRANCH  15  24
ATOM     19  C   UNL     1      -0.026   1.765   0.348  0.00  0.00    +0.008 C 
ATOM     20  C   UNL     1      -0.025   0.239   0.238  0.00  0.00    -0.009 C 
ATOM     21  C   UNL     1      -1.466  -0.274   0.241  0.00  0.00    +0.003 C 
ATOM     22  C   UNL     1      -1.465  -1.800   0.131  0.00  0.00    +0.002 C 
ATOM     23  C   UNL     1      -0.709  -2.397   1.320  0.00  0.00    +0.022 C 
ATOM     24  C   UNL     1       0.733  -1.884   1.316  0.00  0.00    +0.076 C 
ATOM     25  C   UNL     1       0.732  -0.358   1.426  0.00  0.00    +0.009 C 
ATOM     26  C   UNL     1       0.045   0.059   2.729  0.00  0.00    +0.009 C 
ENDBRANCH  15  24
ENDBRANCH   1  16
BRANCH  13  27
ATOM     27  C   UNL     1       4.874  -2.961   4.005  0.00  0.00    +0.091 C 
BRANCH  27  28
ATOM     28  C   UNL     1       5.055  -1.970   2.853  0.00  0.00    -0.060 C 
BRANCH  28  29
ATOM     29  N   UNL     1       6.481  -1.647   2.705  0.00  0.00    +0.381 N 
ATOM     30  C   UNL     1       6.615  -0.520   1.761  0.00  0.00    -0.079 C 
ATOM     31  C   UNL     1       7.913   0.191   2.053  0.00  0.00    -0.019 C 
ATOM     32  C   UNL     1       9.044  -0.300   1.131  0.00  0.00    -0.002 C 
ATOM     33  C   UNL     1       8.996  -1.829   0.930  0.00  0.00    -0.002 C 
ATOM     34  C   UNL     1       8.683  -2.566   2.207  0.00  0.00    -0.019 C 
ATOM     35  C   UNL     1       7.160  -2.796   2.296  0.00  0.00    -0.079 C 
ATOM     36  H   UNL     1       6.842  -1.360   3.602  0.00  0.00    -0.082 HD
ENDBRANCH  28  29
ENDBRANCH  27  28
ENDBRANCH  13  27
TORSDOF 5
