REMARK  Name = ZINC29603514
REMARK  7 active torsions:
REMARK  status: ('A' for Active; 'I' for Inactive)
REMARK    1  A    between atoms: C_1  and  C_2
REMARK    2  A    between atoms: C_2  and  C_3
REMARK    3  A    between atoms: C_3  and  N_4
REMARK    4  A    between atoms: C_8  and  C_11
REMARK    5  A    between atoms: N_13  and  C_14
REMARK    6  A    between atoms: C_19  and  C_24
REMARK    7  A    between atoms: C_21  and  C_23
REMARK                            x       y       z     vdW  Elec       q    Type
REMARK                         _______ _______ _______ _____ _____    ______ ____
ROOT
ATOM      1  N   UNL     1      -2.461   3.676   0.044  0.00  0.00    -0.278 N 
ATOM      2  C   UNL     1      -1.242   3.026   0.029  0.00  0.00    +0.150 A 
ATOM      3  C   UNL     1      -0.067   3.804   0.022  0.00  0.00    +0.083 A 
ATOM      4  C   UNL     1       1.173   3.177   0.007  0.00  0.00    +0.031 A 
ATOM      5  C   UNL     1       1.197   1.777   0.000  0.00  0.00    +0.056 A 
ATOM      6  C   UNL     1      -0.013   1.076   0.008  0.00  0.00    +0.126 A 
ATOM      7  N   UNL     1      -1.169   1.705   0.017  0.00  0.00    -0.236 NA
ATOM      8  C   UNL     1      -0.196   5.272   0.032  0.00  0.00    +0.263 A 
ATOM      9  O   UNL     1       0.788   5.986   0.027  0.00  0.00    -0.267 OA
ATOM     10  N   UNL     1      -1.439   5.803   0.047  0.00  0.00    -0.274 N 
ATOM     11  H   UNL     1      -1.570   6.895   0.055  0.00  0.00    +0.173 HD
ATOM     12  C   UNL     1      -2.527   5.017   0.053  0.00  0.00    +0.331 A 
ATOM     13  O   UNL     1      -3.623   5.544   0.066  0.00  0.00    -0.246 OA
ENDROOT
BRANCH   5  14
ATOM     14  C   UNL     1       2.483   1.051  -0.015  0.00  0.00    +0.246 C 
ATOM     15  O   UNL     1       3.530   1.669  -0.022  0.00  0.00    -0.270 OA
ATOM     16  N   UNL     1       2.495  -0.297  -0.021  0.00  0.00    -0.308 N 
ATOM     17  H   UNL     1       1.548  -0.856  -0.015  0.00  0.00    +0.149 HD
BRANCH  16  18
ATOM     18  C   UNL     1       3.771  -1.017  -0.036  0.00  0.00    +0.076 C 
ATOM     19  C   UNL     1       4.290  -1.165   1.395  0.00  0.00    +0.022 C 
ATOM     20  C   UNL     1       5.622  -1.918   1.379  0.00  0.00    +0.002 C 
ATOM     21  C   UNL     1       5.417  -3.304   0.765  0.00  0.00    +0.003 C 
ATOM     22  C   UNL     1       4.898  -3.156  -0.666  0.00  0.00    -0.009 C 
ATOM     23  C   UNL     1       3.566  -2.403  -0.651  0.00  0.00    +0.009 C 
ATOM     24  C   UNL     1       3.047  -2.255  -2.082  0.00  0.00    +0.009 C 
ATOM     25  C   UNL     1       4.694  -4.542  -1.281  0.00  0.00    +0.008 C 
ENDBRANCH  16  18
ENDBRANCH   5  14
BRANCH   1  26
ATOM     26  C   UNL     1      -3.698   2.891   0.052  0.00  0.00    +0.128 C 
BRANCH  26  28
ATOM     27  C   UNL     1      -5.434   1.807  -1.381  0.00  0.00    +0.005 C 
ATOM     28  C   UNL     1      -4.143   2.627  -1.388  0.00  0.00    +0.018 C 
ENDBRANCH  26  28
ENDBRANCH   1  26
TORSDOF 4
