REMARK  Name = ZINC07420312
REMARK  5 active torsions:
REMARK  status: ('A' for Active; 'I' for Inactive)
REMARK    1  A    between atoms: C_1  and  C_2
REMARK    2  A    between atoms: C_7  and  S_8
REMARK    3  A    between atoms: S_8  and  N_11
REMARK    4  A    between atoms: N_11  and  N_12
REMARK    5  A    between atoms: C_13  and  C_15
REMARK                            x       y       z     vdW  Elec       q    Type
REMARK                         _______ _______ _______ _____ _____    ______ ____
ROOT
ATOM      1  S   UNL     1       2.682   3.551   0.359  0.00  0.00    +0.074 S 
ATOM      2  O   UNL     1       3.552   2.946  -0.589  0.00  0.00    -0.152 OA
ATOM      3  O   UNL     1       2.355   4.933   0.319  0.00  0.00    -0.152 OA
ENDROOT
BRANCH   1  10
ATOM      4  C   UNL     1       0.298   4.113   2.133  0.00  0.00    +0.046 C 
ATOM      5  C   UNL     1       0.123   3.000   1.132  0.00  0.00    -0.024 A 
ATOM      6  C   UNL     1      -1.072   2.308   1.070  0.00  0.00    +0.006 A 
ATOM      7  C   UNL     1      -1.231   1.284   0.156  0.00  0.00    +0.015 A 
ATOM      8  C   UNL     1      -0.197   0.957  -0.703  0.00  0.00    +0.020 A 
ATOM      9  C   UNL     1       0.999   1.649  -0.640  0.00  0.00    +0.044 A 
ATOM     10  C   UNL     1       1.159   2.670   0.278  0.00  0.00    +0.111 A 
ATOM     11 BR   UNL     1      -0.417  -0.440  -1.958  0.00  0.00    -0.050 Br
ENDBRANCH   1  10
BRANCH   1  12
ATOM     12  N   UNL     1       3.336   3.263   1.853  0.00  0.00    -0.108 NA
ATOM     13  H   UNL     1       3.552   4.004   2.439  0.00  0.00    +0.172 HD
BRANCH  12  14
ATOM     14  N   UNL     1       3.577   1.947   2.270  0.00  0.00    -0.225 N 
ATOM     15  C   UNL     1       4.816   1.577   2.650  0.00  0.00    +0.294 C 
ATOM     16  O   UNL     1       5.725   2.385   2.632  0.00  0.00    -0.265 OA
ATOM     17  H   UNL     1       2.852   1.302   2.284  0.00  0.00    +0.171 HD
BRANCH  15  18
ATOM     18  C   UNL     1       5.067   0.200   3.087  0.00  0.00    +0.190 A 
ATOM     19  C   UNL     1       6.268  -0.305   3.496  0.00  0.00    +0.054 A 
ATOM     20  C   UNL     1       6.050  -1.654   3.819  0.00  0.00    +0.042 A 
ATOM     21  C   UNL     1       4.742  -1.910   3.596  0.00  0.00    +0.196 A 
ATOM     22  O   UNL     1       4.152  -0.789   3.160  0.00  0.00    -0.458 OA
ENDBRANCH  15  18
ENDBRANCH  12  14
ENDBRANCH   1  12
TORSDOF 4
