REMARK  Name = ZINC04180599
REMARK  8 active torsions:
REMARK  status: ('A' for Active; 'I' for Inactive)
REMARK    1  A    between atoms: C_1  and  C_2
REMARK    2  A    between atoms: C_7  and  N_8
REMARK    3  A    between atoms: C_12  and  N_13
REMARK    4  A    between atoms: N_13  and  C_14
REMARK    5  A    between atoms: C_17  and  N_22
REMARK    6  A    between atoms: C_19  and  O_20
REMARK    7  A    between atoms: O_20  and  C_21
REMARK    8  A    between atoms: C_25  and  C_27
REMARK                            x       y       z     vdW  Elec       q    Type
REMARK                         _______ _______ _______ _____ _____    ______ ____
ROOT
ATOM      1  N   UNL     1       2.404   1.106  -0.015  0.00  0.00    -0.156 N 
ATOM      2  C   UNL     1       2.781   0.175   0.884  0.00  0.00    +0.273 C 
ATOM      3  O   UNL     1       2.138  -0.224   1.841  0.00  0.00    -0.268 OA
ATOM      4  C   UNL     1       4.122  -0.263   0.476  0.00  0.00    +0.075 C 
ATOM      5  C   UNL     1       4.922  -1.212   1.091  0.00  0.00    +0.087 C 
ATOM      6  C   UNL     1       4.431   0.528  -0.724  0.00  0.00    +0.070 C 
ATOM      7  N   UNL     1       3.412   1.296  -0.960  0.00  0.00    -0.176 NA
ATOM      8  C   UNL     1       5.701   0.459  -1.533  0.00  0.00    +0.068 C 
ENDROOT
BRANCH   1  15
ATOM      9  C   UNL     1       2.449   3.952  -0.001  0.00  0.00    +0.046 C 
ATOM     10  C   UNL     1       1.157   3.176   0.008  0.00  0.00    -0.027 A 
ATOM     11  C   UNL     1      -0.051   3.845   0.023  0.00  0.00    +0.005 A 
ATOM     12  C   UNL     1      -1.237   3.134   0.030  0.00  0.00    +0.000 A 
ATOM     13  C   UNL     1      -1.217   1.751   0.017  0.00  0.00    +0.002 A 
ATOM     14  C   UNL     1      -0.013   1.076   0.008  0.00  0.00    +0.026 A 
ATOM     15  C   UNL     1       1.180   1.787   0.000  0.00  0.00    +0.063 A 
ENDBRANCH   1  15
BRANCH   5  16
ATOM     16  N   UNL     1       6.140  -1.496   0.587  0.00  0.00    -0.317 N 
ATOM     17  H   UNL     1       6.456  -1.036  -0.207  0.00  0.00    +0.152 HD
BRANCH  16  18
ATOM     18  C   UNL     1       6.949  -2.454   1.208  0.00  0.00    +0.073 A 
ATOM     19  C   UNL     1       6.500  -3.114   2.343  0.00  0.00    +0.029 A 
ATOM     20  C   UNL     1       7.300  -4.060   2.954  0.00  0.00    +0.035 A 
ATOM     21  C   UNL     1       8.549  -4.352   2.437  0.00  0.00    +0.130 A 
ATOM     22  C   UNL     1       9.004  -3.699   1.306  0.00  0.00    +0.080 A 
ATOM     23  C   UNL     1       8.206  -2.753   0.684  0.00  0.00    +0.143 A 
BRANCH  21  24
ATOM     24  N   UNL     1       9.402  -5.366   3.097  0.00  0.00    +0.057 N 
ATOM     25  O   UNL     1       9.003  -5.942   4.093  0.00  0.00    -0.126 OA
ATOM     26  O   UNL     1      10.502  -5.625   2.644  0.00  0.00    -0.126 OA
ENDBRANCH  21  24
BRANCH  23  27
ATOM     27  O   UNL     1       8.649  -2.114  -0.431  0.00  0.00    -0.493 OA
ATOM     28  C   UNL     1       9.947  -2.472  -0.910  0.00  0.00    +0.277 C 
ENDBRANCH  23  27
ENDBRANCH  16  18
ENDBRANCH   5  16
TORSDOF 5
