REMARK  Name = ZINC05675215
REMARK  3 active torsions:
REMARK  status: ('A' for Active; 'I' for Inactive)
REMARK    1  A    between atoms: C_6  and  S_7
REMARK    2  A    between atoms: S_7  and  N_10
REMARK    3  A    between atoms: N_10  and  N_11
REMARK                            x       y       z     vdW  Elec       q    Type
REMARK                         _______ _______ _______ _____ _____    ______ ____
ROOT
ATOM      1  S   UNL     1      -3.358   1.955  -4.006  0.00  0.00    +0.086 S 
ATOM      2  O   UNL     1      -4.221   3.049  -4.284  0.00  0.00    -0.149 OA
ATOM      3  O   UNL     1      -2.405   1.478  -4.946  0.00  0.00    -0.149 OA
ENDROOT
BRANCH   1   9
ATOM      4  C   UNL     1      -3.926  -0.704  -3.763  0.00  0.00    +0.030 A 
ATOM      5  C   UNL     1      -4.736  -1.777  -3.439  0.00  0.00    +0.022 A 
ATOM      6  C   UNL     1      -6.016  -1.558  -2.962  0.00  0.00    +0.041 A 
ATOM      7  C   UNL     1      -6.483  -0.266  -2.803  0.00  0.00    +0.022 A 
ATOM      8  C   UNL     1      -5.671   0.807  -3.121  0.00  0.00    +0.030 A 
ATOM      9  C   UNL     1      -4.392   0.588  -3.599  0.00  0.00    +0.110 A 
ATOM     10 CL   UNL     1      -7.035  -2.905  -2.563  0.00  0.00    -0.084 Cl
ENDBRANCH   1   9
BRANCH   1  11
ATOM     11  N   UNL     1      -2.514   2.354  -2.638  0.00  0.00    -0.137 N 
ATOM     12  H   UNL     1      -2.605   3.240  -2.253  0.00  0.00    +0.197 HD
BRANCH  11  13
ATOM     13  N   UNL     1      -1.668   1.413  -2.037  0.00  0.00    -0.175 NA
ATOM     14  C   UNL     1      -1.016   1.722  -0.980  0.00  0.00    +0.043 C 
ATOM     15  C   UNL     1      -0.013   1.086   0.008  0.00  0.00    +0.061 C 
ATOM     16  C   UNL     1      -0.960   1.688   0.983  0.00  0.00    +0.026 C 
ATOM     17  C   UNL     1      -0.832   2.868  -0.074  0.00  0.00    +0.046 C 
ATOM     18  C   UNL     1      -1.861   3.741   0.627  0.00  0.00    +0.037 C 
ATOM     19  C   UNL     1      -1.366   3.636   2.078  0.00  0.00    -0.030 C 
ATOM     20  C   UNL     1      -0.797   2.441   2.235  0.00  0.00    -0.027 C 
ENDBRANCH  11  13
ENDBRANCH   1  11
TORSDOF 3
