REMARK  Name = ZINC56896295
REMARK  6 active torsions:
REMARK  status: ('A' for Active; 'I' for Inactive)
REMARK    1  A    between atoms: C_1  and  C_2
REMARK    2  A    between atoms: C_2  and  C_4
REMARK    3  A    between atoms: C_2  and  N_14
REMARK    4  A    between atoms: C_4  and  O_5
REMARK    5  A    between atoms: O_5  and  C_6
REMARK    6  A    between atoms: N_17  and  N_18
REMARK                            x       y       z     vdW  Elec       q    Type
REMARK                         _______ _______ _______ _____ _____    ______ ____
ROOT
ATOM      1  N   UNL     1       0.711  -0.489   1.189  0.00  0.00    -0.292 N 
ATOM      2  C   UNL     1       2.054  -0.600   1.174  0.00  0.00    +0.316 C 
ATOM      3  O   UNL     1       2.677  -0.297   0.175  0.00  0.00    -0.251 OA
ATOM      4  N   UNL     1       2.706  -1.046   2.266  0.00  0.00    -0.217 N 
ATOM      5  H   UNL     1       0.213  -0.731   1.986  0.00  0.00    +0.151 HD
ATOM      6  H   UNL     1       3.672  -1.126   2.255  0.00  0.00    +0.174 HD
ENDROOT
BRANCH   4   7
ATOM      7  N   UNL     1       1.987  -1.396   3.416  0.00  0.00    -0.217 N 
ATOM      8  C   UNL     1       2.639  -1.842   4.508  0.00  0.00    +0.313 C 
ATOM      9  O   UNL     1       2.015  -2.145   5.507  0.00  0.00    -0.252 OA
ATOM     10  N   UNL     1       3.982  -1.952   4.493  0.00  0.00    -0.312 N 
ATOM     11  H   UNL     1       1.020  -1.316   3.427  0.00  0.00    +0.174 HD
ATOM     12  H   UNL     1       4.480  -1.711   3.696  0.00  0.00    +0.147 HD
ATOM     13  H   UNL     1       4.451  -2.274   5.279  0.00  0.00    +0.147 HD
ENDBRANCH   4   7
BRANCH   1  15
ATOM     14  C   UNL     1      -0.019   1.526   0.010  0.00  0.00    +0.031 C 
ATOM     15  C   UNL     1       0.002  -0.004   0.002  0.00  0.00    +0.109 C 
BRANCH  15  16
ATOM     16  C   UNL     1      -1.433  -0.534   0.013  0.00  0.00    +0.251 C 
BRANCH  16  17
ATOM     17  O   UNL     1      -2.137   0.021   1.126  0.00  0.00    -0.487 OA
BRANCH  17  18
ATOM     18  C   UNL     1      -3.436  -0.351   1.283  0.00  0.00    +0.156 A 
ATOM     19  C   UNL     1      -4.018  -1.234   0.387  0.00  0.00    +0.051 A 
ATOM     20  C   UNL     1      -5.338  -1.611   0.546  0.00  0.00    +0.042 A 
ATOM     21  C   UNL     1      -6.080  -1.107   1.600  0.00  0.00    +0.126 A 
ATOM     22  C   UNL     1      -5.502  -0.225   2.497  0.00  0.00    +0.080 A 
ATOM     23  C   UNL     1      -4.179   0.150   2.344  0.00  0.00    +0.168 A 
ATOM     24  F   UNL     1      -3.613   1.006   3.221  0.00  0.00    -0.202 F 
ATOM     25  F   UNL     1      -7.371  -1.477   1.754  0.00  0.00    -0.205 F 
ENDBRANCH  17  18
ENDBRANCH  16  17
ENDBRANCH  15  16
ENDBRANCH   1  15
TORSDOF 5
