REMARK  Name = ZINC64684137
REMARK  10 active torsions:
REMARK  status: ('A' for Active; 'I' for Inactive)
REMARK    1  A    between atoms: C_1  and  C_2
REMARK    2  A    between atoms: C_5  and  N_8
REMARK    3  A    between atoms: C_9  and  C_35
REMARK    4  A    between atoms: C_13  and  S_15
REMARK    5  A    between atoms: S_15  and  C_16
REMARK    6  A    between atoms: C_16  and  C_17
REMARK    7  A    between atoms: N_19  and  CA_20
REMARK    8  A    between atoms: CA_20  and  CB_22
REMARK    9  A    between atoms: CA_20  and  C_32
REMARK   10  A    between atoms: CB_22  and  CG_23
REMARK                            x       y       z     vdW  Elec       q    Type
REMARK                         _______ _______ _______ _____ _____    ______ ____
ROOT
ATOM      1  C   UNK A   0       4.224  -4.861  -1.809  0.00  0.00    +0.224 C 
ATOM      2  O   UNK A   0       4.224  -4.486  -2.962  0.00  0.00    -0.275 OA
ATOM      3  N   TRP A   1       5.392  -5.072  -1.170  0.00  0.00    -0.301 N 
ATOM      4  H   TRP A   1       5.392  -5.372  -0.247  0.00  0.00    +0.150 HD
ENDROOT
BRANCH   1   5
ATOM      5  C   UNK A   0       2.920  -5.090  -1.090  0.00  0.00    +0.168 C 
BRANCH   5   6
ATOM      6  S   UNK A   0       1.540  -4.722  -2.209  0.00  0.00    -0.112 S 
BRANCH   6  11
ATOM      7  N   UNK A   0       0.058  -4.167  -0.021  0.00  0.00    -0.288 N 
ATOM      8  C   UNK A   0       0.070  -5.058   1.157  0.00  0.00    +0.155 C 
ATOM      9  N   UNK A   0      -0.481  -6.342   0.651  0.00  0.00    -0.235 NA
ATOM     10  N   UNK A   0       0.089  -6.435  -0.703  0.00  0.00    -0.226 NA
ATOM     11  C   UNK A   0       0.063  -5.043  -1.206  0.00  0.00    +0.217 C 
ATOM     12  C   UNK A   0       1.499  -5.250   1.669  0.00  0.00    +0.046 C 
ATOM     13  H   UNK A   0      -0.179  -7.116   1.224  0.00  0.00    +0.143 HD
ATOM     14  H   UNK A   0      -0.468  -7.039  -1.289  0.00  0.00    +0.143 HD
BRANCH   7  19
ATOM     15  C   UNK A   0      -0.018   1.503   0.010  0.00  0.00    +0.044 C 
ATOM     16  C   UNK A   0       0.002  -0.004   0.002  0.00  0.00    -0.050 A 
ATOM     17  C   UNK A   0       0.006  -0.687  -1.200  0.00  0.00    +0.005 A 
ATOM     18  C   UNK A   0       0.024  -2.068  -1.212  0.00  0.00    +0.023 A 
ATOM     19  C   UNK A   0       0.040  -2.771  -0.013  0.00  0.00    +0.033 A 
ATOM     20  C   UNK A   0       0.036  -2.081   1.193  0.00  0.00    +0.023 A 
ATOM     21  C   UNK A   0       0.023  -0.700   1.197  0.00  0.00    +0.005 A 
ENDBRANCH   7  19
ENDBRANCH   6  11
ENDBRANCH   5   6
ENDBRANCH   1   5
BRANCH   3  22
ATOM     22  CA  TRP A   1       6.660  -4.849  -1.868  0.00  0.00    +0.190 C 
BRANCH  22  23
ATOM     23  C   TRP A   1       7.029  -6.086  -2.647  0.00  0.00    +0.376 C 
ATOM     24  O   TRP A   1       7.675  -5.988  -3.676  0.00  0.00    -0.244 OA
ATOM     25  OXT TRP A   1       6.680  -7.184  -2.248  0.00  0.00    -0.244 OA
ENDBRANCH  22  23
BRANCH  22  26
ATOM     26  CB  TRP A   1       7.758  -4.544  -0.847  0.00  0.00    +0.067 C 
BRANCH  26  27
ATOM     27  CG  TRP A   1       7.450  -3.242  -0.154  0.00  0.00    -0.039 C 
ATOM     28  CD2 TRP A   1       6.814  -3.080   1.029  0.00  0.00    -0.001 A 
ATOM     29  CE3 TRP A   1       6.239  -4.033   1.986  0.00  0.00    +0.010 A 
ATOM     30  CZ3 TRP A   1       5.652  -3.560   3.109  0.00  0.00    +0.001 A 
ATOM     31  CH2 TRP A   1       5.579  -2.187   3.381  0.00  0.00    +0.002 A 
ATOM     32  CZ2 TRP A   1       6.084  -1.251   2.549  0.00  0.00    +0.026 A 
ATOM     33  CE2 TRP A   1       6.724  -1.636   1.339  0.00  0.00    +0.043 A 
ATOM     34  NE1 TRP A   1       7.283  -0.931   0.385  0.00  0.00    -0.380 N 
ATOM     35  CD1 TRP A   1       7.797  -1.851  -0.636  0.00  0.00    +0.144 C 
ATOM     36  HE1 TRP A   1       7.349   0.036   0.360  0.00  0.00    +0.160 HD
ENDBRANCH  26  27
ENDBRANCH  22  26
ENDBRANCH   3  22
TORSDOF 8
