REMARK  Name = ZINC62833594
REMARK  3 active torsions:
REMARK  status: ('A' for Active; 'I' for Inactive)
REMARK    1  A    between atoms: C_5  and  C_12
REMARK    2  A    between atoms: C_9  and  N_11
REMARK    3  A    between atoms: C_18  and  C_21
REMARK                            x       y       z     vdW  Elec       q    Type
REMARK                         _______ _______ _______ _____ _____    ______ ____
ROOT
ATOM      1  C   UNL     1      -0.026   1.283  -0.048  0.00  0.00    +0.002 A 
ATOM      2  C   UNL     1       1.117   1.914   0.347  0.00  0.00    +0.010 A 
ATOM      3  C   UNL     1       2.365   1.330   0.086  0.00  0.00    +0.002 A 
ATOM      4  C   UNL     1       3.697   1.723   0.360  0.00  0.00    +0.041 A 
ATOM      5  C   UNL     1       4.522   0.759  -0.127  0.00  0.00    +0.103 A 
ATOM      6  N   UNL     1       3.760  -0.238  -0.704  0.00  0.00    -0.349 N 
ATOM      7  H   UNL     1       4.106  -1.042  -1.124  0.00  0.00    +0.166 HD
ATOM      8  C   UNL     1       2.431   0.094  -0.583  0.00  0.00    +0.068 A 
ATOM      9  C   UNL     1       1.247  -0.536  -0.978  0.00  0.00    +0.049 A 
ATOM     10  C   UNL     1       0.029   0.063  -0.709  0.00  0.00    +0.025 A 
ENDROOT
BRANCH   5  11
ATOM     11  C   UNL     1       5.991   0.775  -0.053  0.00  0.00    +0.263 C 
ATOM     12  O   UNL     1       6.589   1.834  -0.071  0.00  0.00    -0.268 OA
ATOM     13  N   UNL     1       6.674  -0.384   0.035  0.00  0.00    -0.296 N 
ATOM     14  C   UNL     1       5.967  -1.672   0.031  0.00  0.00    +0.108 C 
ATOM     15  C   UNL     1       6.401  -2.477   1.260  0.00  0.00    +0.020 C 
ATOM     16  C   UNL     1       7.926  -2.597   1.274  0.00  0.00    +0.016 C 
ATOM     17  C   UNL     1       8.549  -1.202   1.366  0.00  0.00    +0.092 C 
ATOM     18  C   UNL     1       8.140  -0.383   0.132  0.00  0.00    +0.120 C 
BRANCH  17  19
ATOM     19  C   UNL     1      10.050  -1.323   1.413  0.00  0.00    +0.215 C 
ATOM     20  O   UNL     1      10.572  -2.417   1.376  0.00  0.00    -0.276 OA
ATOM     21  N   UNL     1      10.813  -0.215   1.495  0.00  0.00    -0.329 N 
ATOM     22  H   UNL     1      10.396   0.660   1.524  0.00  0.00    +0.145 HD
ATOM     23  H   UNL     1      11.780  -0.293   1.525  0.00  0.00    +0.145 HD
ENDBRANCH  17  19
ENDBRANCH   5  11
BRANCH   9  24
ATOM     24  N   UNL     1       1.294  -1.764  -1.644  0.00  0.00    -0.356 N 
ATOM     25  H   UNL     1       2.149  -2.182  -1.833  0.00  0.00    +0.142 HD
ATOM     26  H   UNL     1       0.471  -2.199  -1.918  0.00  0.00    +0.142 HD
ENDBRANCH   9  24
TORSDOF 3
