REMARK  Name = ZINC11066259
REMARK  6 active torsions:
REMARK  status: ('A' for Active; 'I' for Inactive)
REMARK    1  A    between atoms: C_1  and  C_2
REMARK    2  A    between atoms: C_16  and  C_17
REMARK    3  A    between atoms: C_17  and  O_19
REMARK    4  A    between atoms: O_19  and  C_20
REMARK    5  A    between atoms: C_20  and  C_22
REMARK    6  A    between atoms: C_20  and  C_23
REMARK                            x       y       z     vdW  Elec       q    Type
REMARK                         _______ _______ _______ _____ _____    ______ ____
ROOT
ATOM      1  C   UNL     1       3.126   5.725  -6.396  0.00  0.00    +0.347 C 
ATOM      2  O   UNL     1       2.929   6.885  -6.088  0.00  0.00    -0.244 OA
ENDROOT
BRANCH   1  18
ATOM      3  C   UNL     1       2.188   6.121  -3.533  0.00  0.00    +0.046 C 
ATOM      4  C   UNL     1       2.490   4.767  -4.120  0.00  0.00    -0.015 A 
ATOM      5  C   UNL     1       2.343   3.618  -3.340  0.00  0.00    +0.076 A 
ATOM      6  C   UNL     1       2.653   2.395  -3.980  0.00  0.00    +0.116 A 
ATOM      7  N   UNL     1       2.557   1.231  -3.350  0.00  0.00    -0.226 NA
ATOM      8  C   UNL     1       2.164   1.152  -2.110  0.00  0.00    +0.114 A 
ATOM      9  N   UNL     1       1.835   2.264  -1.391  0.00  0.00    -0.296 N 
ATOM     10  C   UNL     1       1.905   3.493  -1.931  0.00  0.00    +0.263 A 
ATOM     11  O   UNL     1       1.615   4.479  -1.278  0.00  0.00    -0.267 OA
ATOM     12  C   UNL     1       1.397   2.086  -0.000  0.00  0.00    +0.126 C 
ATOM     13  C   UNL     1      -0.018   1.515   0.010  0.00  0.00    +0.022 C 
ATOM     14  C   UNL     1       0.002  -0.004   0.002  0.00  0.00    +0.002 C 
ATOM     15  C   UNL     1       0.583  -0.562  -1.285  0.00  0.00    +0.008 C 
ATOM     16  C   UNL     1       2.058  -0.193  -1.429  0.00  0.00    +0.074 C 
ATOM     17  S   UNL     1       3.125   2.899  -5.615  0.00  0.00    -0.062 S 
ATOM     18  C   UNL     1       2.908   4.660  -5.415  0.00  0.00    +0.102 A 
ENDBRANCH   1  18
BRANCH   1  19
ATOM     19  O   UNL     1       3.546   5.420  -7.641  0.00  0.00    -0.450 OA
BRANCH  19  20
ATOM     20  C   UNL     1       3.741   6.526  -8.560  0.00  0.00    +0.239 C 
ATOM     21  C   UNL     1       5.181   7.033  -8.450  0.00  0.00    +0.060 C 
BRANCH  20  22
ATOM     22  C   UNL     1       3.480   6.060  -9.970  0.00  0.00    +0.151 A 
ATOM     23  N   UNL     1       2.192   5.861 -10.353  0.00  0.00    -0.307 N 
ATOM     24  H   UNL     1       1.472   6.019  -9.723  0.00  0.00    +0.170 HD
ATOM     25  C   UNL     1       1.904   5.448 -11.610  0.00  0.00    +0.259 A 
ATOM     26  O   UNL     1       0.754   5.269 -11.969  0.00  0.00    -0.267 OA
ATOM     27  C   UNL     1       3.033   5.218 -12.523  0.00  0.00    +0.065 A 
ATOM     28  C   UNL     1       2.845   4.787 -13.834  0.00  0.00    +0.015 A 
ATOM     29  C   UNL     1       3.940   4.586 -14.646  0.00  0.00    +0.001 A 
ATOM     30  C   UNL     1       5.225   4.810 -14.168  0.00  0.00    +0.002 A 
ATOM     31  C   UNL     1       5.432   5.236 -12.876  0.00  0.00    +0.028 A 
ATOM     32  C   UNL     1       4.338   5.447 -12.033  0.00  0.00    +0.078 A 
ATOM     33  N   UNL     1       4.497   5.865 -10.753  0.00  0.00    -0.230 NA
ENDBRANCH  20  22
ENDBRANCH  19  20
ENDBRANCH   1  19
TORSDOF 4
