REMARK  Name = ZINC65601734
REMARK  12 active torsions:
REMARK  status: ('A' for Active; 'I' for Inactive)
REMARK    1  A    between atoms: C_1  and  C_2
REMARK    2  A    between atoms: C_4  and  O_26
REMARK    3  A    between atoms: C_5  and  O_24
REMARK    4  A    between atoms: C_7  and  N_8
REMARK    5  A    between atoms: C_9  and  C_11
REMARK    6  A    between atoms: N_13  and  C_14
REMARK    7  A    between atoms: C_14  and  C_15
REMARK    8  A    between atoms: C_15  and  C_16
REMARK    9  A    between atoms: C_15  and  N_17
REMARK   10  A    between atoms: C_20  and  C_23
REMARK   11  A    between atoms: O_24  and  C_25
REMARK   12  A    between atoms: O_26  and  C_27
REMARK                            x       y       z     vdW  Elec       q    Type
REMARK                         _______ _______ _______ _____ _____    ______ ____
ROOT
ATOM      1  N   UNL     1      -0.025   0.278   2.462  0.00  0.00    -0.277 N 
ATOM      2  C   UNL     1      -0.144  -0.451   3.590  0.00  0.00    +0.303 C 
ATOM      3  O   UNL     1      -0.234  -1.659   3.525  0.00  0.00    -0.265 OA
ATOM      4  H   UNL     1       0.117   1.236   2.516  0.00  0.00    +0.155 HD
ENDROOT
BRANCH   1  11
ATOM      5  C   UNL     1      -1.196   1.725   0.314  0.00  0.00    +0.046 C 
ATOM      6  C   UNL     1      -0.672   0.323   0.137  0.00  0.00    -0.026 A 
ATOM      7  C   UNL     1      -0.749  -0.292  -1.098  0.00  0.00    +0.054 A 
ATOM      8  C   UNL     1      -0.268  -1.580  -1.264  0.00  0.00    +0.162 A 
ATOM      9  C   UNL     1       0.294  -2.258  -0.184  0.00  0.00    +0.163 A 
ATOM     10  C   UNL     1       0.371  -1.642   1.053  0.00  0.00    +0.073 A 
ATOM     11  C   UNL     1      -0.107  -0.348   1.214  0.00  0.00    +0.040 A 
BRANCH   9  12
ATOM     12  O   UNL     1       0.765  -3.523  -0.346  0.00  0.00    -0.491 OA
ATOM     13  C   UNL     1       1.328  -4.157   0.804  0.00  0.00    +0.277 C 
ENDBRANCH   9  12
BRANCH   8  14
ATOM     14  O   UNL     1      -0.344  -2.184  -2.480  0.00  0.00    -0.491 OA
ATOM     15  C   UNL     1      -0.933  -1.431  -3.542  0.00  0.00    +0.277 C 
ENDBRANCH   8  14
ENDBRANCH   1  11
BRANCH   2  16
ATOM     16  C   UNL     1      -0.164   0.230   4.920  0.00  0.00    +0.299 C 
ATOM     17  O   UNL     1      -0.074   1.438   4.984  0.00  0.00    -0.265 OA
ATOM     18  N   UNL     1      -0.283  -0.499   6.047  0.00  0.00    -0.309 N 
ATOM     19  H   UNL     1      -0.355  -1.465   5.995  0.00  0.00    +0.149 HD
BRANCH  18  20
ATOM     20  C   UNL     1      -0.303   0.169   7.351  0.00  0.00    +0.089 C 
BRANCH  20  21
ATOM     21  C   UNL     1      -0.309  -0.883   8.462  0.00  0.00    -0.054 C 
ATOM     22  C   UNL     1      -0.222  -0.189   9.823  0.00  0.00    -0.012 C 
BRANCH  21  23
ATOM     23  N   UNL     1       0.843  -1.780   8.295  0.00  0.00    +0.382 N 
ATOM     24  C   UNL     1       2.083  -1.024   8.503  0.00  0.00    -0.078 C 
ATOM     25  C   UNL     1       3.288  -1.933   8.251  0.00  0.00    -0.016 C 
ATOM     26  C   UNL     1       3.240  -3.116   9.222  0.00  0.00    -0.018 C 
ATOM     27  C   UNL     1       1.909  -3.853   9.048  0.00  0.00    -0.016 C 
ATOM     28  C   UNL     1       0.756  -2.873   9.271  0.00  0.00    -0.078 C 
ATOM     29  C   UNL     1       4.397  -4.071   8.923  0.00  0.00    +0.007 C 
ATOM     30  H   UNL     1       0.837  -2.162   7.361  0.00  0.00    -0.081 HD
ENDBRANCH  21  23
ENDBRANCH  20  21
ENDBRANCH  18  20
ENDBRANCH   2  16
TORSDOF 7
