REMARK  Name = ZINC36353958
REMARK  7 active torsions:
REMARK  status: ('A' for Active; 'I' for Inactive)
REMARK    1  A    between atoms: C_6  and  N_7
REMARK    2  A    between atoms: C_8  and  C_10
REMARK    3  A    between atoms: C_16  and  C_18
REMARK    4  A    between atoms: C_24  and  C_25
REMARK    5  A    between atoms: C_25  and  C_27
REMARK    6  A    between atoms: C_25  and  N_30
REMARK    7  A    between atoms: C_34  and  C_36
REMARK                            x       y       z     vdW  Elec       q    Type
REMARK                         _______ _______ _______ _____ _____    ______ ____
ROOT
ATOM      1  C   UNL     1       0.146   1.206  -0.400  0.00  0.00    +0.024 A 
ATOM      2  C   UNL     1       1.328   1.891  -0.397  0.00  0.00    +0.012 A 
ATOM      3  C   UNL     1       2.532   1.199  -0.248  0.00  0.00    +0.002 A 
ATOM      4  C   UNL     1       2.526  -0.201  -0.102  0.00  0.00    +0.048 A 
ATOM      5  C   UNL     1       1.315  -0.883  -0.106  0.00  0.00    +0.049 A 
ATOM      6  C   UNL     1       0.132  -0.180  -0.255  0.00  0.00    +0.035 A 
ATOM      7  N   UNL     1       3.838  -0.601   0.023  0.00  0.00    -0.360 N 
ATOM      8  H   UNL     1       4.132  -1.519   0.137  0.00  0.00    +0.165 HD
ATOM      9  C   UNL     1       4.665   0.488  -0.040  0.00  0.00    +0.086 A 
ATOM     10  C   UNL     1       3.939   1.605  -0.203  0.00  0.00    -0.025 A 
ENDROOT
BRANCH   6  11
ATOM     11  N   UNL     1      -1.088  -0.866  -0.259  0.00  0.00    -0.285 N 
ATOM     12  C   UNL     1      -1.242  -1.971   0.497  0.00  0.00    +0.221 C 
ATOM     13  O   UNL     1      -0.359  -2.317   1.253  0.00  0.00    -0.275 OA
ATOM     14  H   UNL     1      -1.823  -0.546  -0.806  0.00  0.00    +0.155 HD
BRANCH  12  15
ATOM     15  C   UNL     1      -2.512  -2.777   0.402  0.00  0.00    +0.093 C 
ATOM     16  C   UNL     1      -2.178  -4.270   0.442  0.00  0.00    +0.040 C 
ATOM     17  C   UNL     1      -1.707  -4.658   1.813  0.00  0.00    -0.030 C 
ATOM     18  C   UNL     1      -1.898  -3.943   2.875  0.00  0.00    -0.030 C 
ATOM     19  C   UNL     1      -2.607  -2.621   2.881  0.00  0.00    +0.042 C 
ATOM     20  C   UNL     1      -3.422  -2.448   1.593  0.00  0.00    +0.118 C 
BRANCH  20  21
ATOM     21  C   UNL     1      -3.909  -1.026   1.480  0.00  0.00    +0.360 C 
ATOM     22  O   UNL     1      -5.061  -0.752   1.769  0.00  0.00    -0.246 OA
ATOM     23  O   UNL     1      -3.151  -0.150   1.099  0.00  0.00    -0.246 OA
ENDBRANCH  20  21
ENDBRANCH  12  15
ENDBRANCH   6  11
BRANCH  10  24
ATOM     24  C   UNL     1       4.470   3.011  -0.318  0.00  0.00    +0.081 C 
BRANCH  24  25
ATOM     25  N   UNL     1       5.851   2.973  -0.817  0.00  0.00    +0.399 N 
ATOM     26  C   UNL     1       6.370   4.351  -0.952  0.00  0.00    -0.076 C 
ATOM     27  C   UNL     1       7.266   4.315  -2.215  0.00  0.00    -0.020 C 
ATOM     28  C   UNL     1       6.471   3.352  -3.136  0.00  0.00    -0.008 C 
ATOM     29  C   UNL     1       5.882   2.328  -2.143  0.00  0.00    +0.020 C 
ATOM     30  H   UNL     1       6.431   2.455  -0.174  0.00  0.00    -0.079 HD
BRANCH  29  31
ATOM     31  C   UNL     1       6.755   1.100  -2.095  0.00  0.00    +0.197 C 
ATOM     32  O   UNL     1       7.302   0.785  -1.060  0.00  0.00    -0.278 OA
ATOM     33  N   UNL     1       6.927   0.352  -3.204  0.00  0.00    -0.331 N 
ATOM     34  H   UNL     1       6.489   0.605  -4.032  0.00  0.00    +0.145 HD
ATOM     35  H   UNL     1       7.488  -0.438  -3.173  0.00  0.00    +0.145 HD
ENDBRANCH  29  31
ENDBRANCH  24  25
BRANCH  24  36
ATOM     36  C   UNL     1       4.443   3.670   1.036  0.00  0.00    +0.347 C 
ATOM     37  O   UNL     1       5.487   3.906   1.620  0.00  0.00    -0.248 OA
ATOM     38  O   UNL     1       3.378   3.968   1.549  0.00  0.00    -0.248 OA
ENDBRANCH  24  36
ENDBRANCH  10  24
TORSDOF 7
