REMARK  Name = ZINC04536696
REMARK  4 active torsions:
REMARK  status: ('A' for Active; 'I' for Inactive)
REMARK    1  A    between atoms: C_4  and  O_7
REMARK    2  A    between atoms: O_7  and  C_8
REMARK    3  A    between atoms: C_8  and  C_9
REMARK    4  A    between atoms: C_9  and  N_10
REMARK                            x       y       z     vdW  Elec       q    Type
REMARK                         _______ _______ _______ _____ _____    ______ ____
ROOT
ATOM      1  N   UNL     1      -2.278   4.063   0.045  0.00  0.00    -0.305 N 
ATOM      2  C   UNL     1      -1.239   3.136   0.031  0.00  0.00    +0.069 A 
ATOM      3  C   UNL     1      -1.219   1.747   0.017  0.00  0.00    +0.028 A 
ATOM      4  C   UNL     1      -0.013   1.076   0.008  0.00  0.00    +0.002 A 
ATOM      5  C   UNL     1       1.178   1.782   0.000  0.00  0.00    +0.002 A 
ATOM      6  C   UNL     1       1.168   3.163   0.007  0.00  0.00    +0.028 A 
ATOM      7  C   UNL     1      -0.039   3.846   0.023  0.00  0.00    +0.075 A 
ATOM      8  N   UNL     1      -0.353   5.208   0.032  0.00  0.00    -0.256 N 
ATOM      9  C   UNL     1      -1.723   5.332   0.046  0.00  0.00    +0.236 A 
ATOM     10  N   UNL     1      -2.026   6.601   0.054  0.00  0.00    -0.134 NA
ATOM     11  N   UNL     1      -0.830   7.332   0.046  0.00  0.00    -0.252 N 
ATOM     12  H   UNL     1      -0.858   8.432   0.051  0.00  0.00    +0.191 HD
ATOM     13  C   UNL     1       0.185   6.445   0.032  0.00  0.00    +0.182 A 
ATOM     14  S   UNL     1       1.856   6.820   0.019  0.00  0.00    -0.011 S 
ENDROOT
BRANCH   1  15
ATOM     15  C   UNL     1      -3.709   3.751   0.057  0.00  0.00    +0.166 C 
BRANCH  15  16
ATOM     16  C   UNL     1      -4.194   3.634   1.503  0.00  0.00    +0.250 C 
BRANCH  16  17
ATOM     17  O   UNL     1      -5.590   3.329   1.514  0.00  0.00    -0.490 OA
BRANCH  17  21
ATOM     18  C   UNL     1      -7.386   2.911   5.204  0.00  0.00    +0.000 A 
ATOM     19  C   UNL     1      -8.133   2.756   4.051  0.00  0.00    +0.004 A 
ATOM     20  C   UNL     1      -7.534   2.896   2.815  0.00  0.00    +0.045 A 
ATOM     21  C   UNL     1      -6.182   3.191   2.730  0.00  0.00    +0.121 A 
ATOM     22  C   UNL     1      -5.433   3.341   3.888  0.00  0.00    +0.045 A 
ATOM     23  C   UNL     1      -6.038   3.205   5.123  0.00  0.00    +0.004 A 
ENDBRANCH  17  21
ENDBRANCH  16  17
ENDBRANCH  15  16
ENDBRANCH   1  15
TORSDOF 4
