REMARK  Name = ZINC09465910
REMARK  9 active torsions:
REMARK  status: ('A' for Active; 'I' for Inactive)
REMARK    1  A    between atoms: C_1  and  C_2
REMARK    2  A    between atoms: C_2  and  C_4
REMARK    3  A    between atoms: C_2  and  N_14
REMARK    4  A    between atoms: C_15  and  C_17
REMARK    5  A    between atoms: C_17  and  N_18
REMARK    6  A    between atoms: C_21  and  C_25
REMARK    7  A    between atoms: C_21  and  C_26
REMARK    8  A    between atoms: C_29  and  O_32
REMARK    9  A    between atoms: O_32  and  C_33
REMARK                            x       y       z     vdW  Elec       q    Type
REMARK                         _______ _______ _______ _____ _____    ______ ____
ROOT
ATOM      1  N   UNL     1       6.001  -3.967   2.741  0.00  0.00    -0.215 N 
ATOM      2  C   UNL     1       6.579  -3.482   3.858  0.00  0.00    +0.251 C 
ATOM      3  O   UNL     1       6.105  -2.690   4.644  0.00  0.00    -0.272 OA
ATOM      4  C   UNL     1       7.947  -4.132   3.927  0.00  0.00    +0.135 C 
ATOM      5  N   UNL     1       7.984  -4.988   2.728  0.00  0.00    -0.281 N 
ATOM      6  C   UNL     1       6.803  -4.828   2.104  0.00  0.00    +0.310 C 
ATOM      7  O   UNL     1       6.500  -5.399   1.075  0.00  0.00    -0.252 OA
ATOM      8  C   UNL     1       8.079  -4.976   5.196  0.00  0.00    +0.047 C 
ATOM      9  H   UNL     1       8.716  -5.558   2.446  0.00  0.00    +0.152 HD
ENDROOT
BRANCH   4  10
ATOM     10  C   UNL     1       9.033  -3.089   3.867  0.00  0.00    -0.015 A 
ATOM     11  C   UNL     1       8.800  -1.821   4.367  0.00  0.00    +0.010 A 
ATOM     12  C   UNL     1       9.796  -0.864   4.318  0.00  0.00    +0.046 A 
ATOM     13  C   UNL     1      11.027  -1.174   3.757  0.00  0.00    +0.127 A 
ATOM     14  C   UNL     1      11.256  -2.445   3.252  0.00  0.00    +0.046 A 
ATOM     15  C   UNL     1      10.259  -3.400   3.308  0.00  0.00    +0.010 A 
BRANCH  13  16
ATOM     16  O   UNL     1      12.006  -0.233   3.703  0.00  0.00    -0.434 OA
BRANCH  16  17
ATOM     17  C   UNL     1      11.700   1.054   4.242  0.00  0.00    +0.541 C 
ATOM     18  F   UNL     1      10.613   1.602   3.553  0.00  0.00    -0.166 F 
ATOM     19  F   UNL     1      11.376   0.927   5.597  0.00  0.00    -0.166 F 
ENDBRANCH  16  17
ENDBRANCH  13  16
ENDBRANCH   4  10
BRANCH   1  20
ATOM     20  C   UNL     1       4.658  -3.601   2.285  0.00  0.00    +0.213 C 
BRANCH  20  22
ATOM     21  N   UNL     1       3.625  -1.884   0.835  0.00  0.00    -0.307 N 
ATOM     22  C   UNL     1       4.745  -2.401   1.378  0.00  0.00    +0.231 C 
ATOM     23  O   UNL     1       5.823  -1.900   1.137  0.00  0.00    -0.274 OA
ATOM     24  H   UNL     1       2.763  -2.285   1.028  0.00  0.00    +0.149 HD
BRANCH  21  26
ATOM     25  C   UNL     1       4.013  -1.177  -1.474  0.00  0.00    +0.033 C 
ATOM     26  C   UNL     1       3.709  -0.717  -0.047  0.00  0.00    +0.100 C 
BRANCH  26  27
ATOM     27  C   UNL     1       2.397   0.024  -0.026  0.00  0.00    -0.024 A 
ATOM     28  C   UNL     1       1.207  -0.680  -0.016  0.00  0.00    +0.009 A 
ATOM     29  C   UNL     1       0.002  -0.004   0.002  0.00  0.00    +0.050 A 
ATOM     30  C   UNL     1      -0.017   1.383   0.010  0.00  0.00    +0.162 A 
ATOM     31  C   UNL     1       1.179   2.090   0.002  0.00  0.00    +0.162 A 
ATOM     32  C   UNL     1       2.386   1.406  -0.017  0.00  0.00    +0.055 A 
ATOM     33  O   UNL     1       1.184   3.451   0.018  0.00  0.00    -0.485 OA
ATOM     34  C   UNL     1      -0.040   4.103  -0.340  0.00  0.00    +0.270 C 
ATOM     35  C   UNL     1      -1.189   3.413   0.408  0.00  0.00    +0.270 C 
ATOM     36  O   UNL     1      -1.212   2.035   0.019  0.00  0.00    -0.485 OA
ENDBRANCH  26  27
ENDBRANCH  21  26
ENDBRANCH  20  22
ENDBRANCH   1  20
TORSDOF 7
