REMARK  Name = ZINC39531581
REMARK  10 active torsions:
REMARK  status: ('A' for Active; 'I' for Inactive)
REMARK    1  A    between atoms: C_1  and  C_2
REMARK    2  A    between atoms: C_2  and  O_3
REMARK    3  A    between atoms: O_3  and  N_4
REMARK    4  A    between atoms: N_4  and  C_5
REMARK    5  A    between atoms: C_5  and  C_6
REMARK    6  A    between atoms: C_6  and  C_8
REMARK    7  A    between atoms: C_6  and  N_15
REMARK    8  A    between atoms: C_11  and  C_14
REMARK    9  A    between atoms: C_19  and  C_22
REMARK   10  A    between atoms: C_27  and  O_28
REMARK                            x       y       z     vdW  Elec       q    Type
REMARK                         _______ _______ _______ _____ _____    ______ ____
ROOT
ATOM      1  N   UNL     1      -2.414  -3.917  -1.379  0.00  0.00    -0.297 NA
ATOM      2  C   UNL     1      -1.021  -4.380  -1.454  0.00  0.00    +0.066 C 
ATOM      3  C   UNL     1      -0.578  -4.416  -2.918  0.00  0.00    -0.066 C 
ATOM      4  N   UNL     1      -0.698  -3.072  -3.500  0.00  0.00    +0.385 N 
ATOM      5  C   UNL     1      -2.098  -2.634  -3.440  0.00  0.00    -0.023 C 
ATOM      6  C   UNL     1      -2.555  -2.583  -1.980  0.00  0.00    +0.074 C 
ATOM      7  H   UNL     1      -0.121  -2.428  -2.979  0.00  0.00    -0.085 HD
ATOM      8  H   UNL     1      -0.393  -3.094  -4.462  0.00  0.00    -0.085 HD
ENDROOT
BRANCH   5   9
ATOM      9  C   UNL     1      -2.223  -1.263  -4.053  0.00  0.00    -0.019 A 
ATOM     10  C   UNL     1      -1.106  -0.461  -4.184  0.00  0.00    +0.005 A 
ATOM     11  C   UNL     1      -1.219   0.797  -4.746  0.00  0.00    +0.000 A 
ATOM     12  C   UNL     1      -2.450   1.255  -5.179  0.00  0.00    +0.004 A 
ATOM     13  C   UNL     1      -3.570   0.457  -5.050  0.00  0.00    +0.045 A 
ATOM     14  C   UNL     1      -3.458  -0.808  -4.491  0.00  0.00    +0.118 A 
BRANCH  14  15
ATOM     15  O   UNL     1      -4.557  -1.598  -4.369  0.00  0.00    -0.507 OA
ATOM     16  H   UNL     1      -5.032  -1.484  -3.534  0.00  0.00    +0.292 HD
ENDBRANCH  14  15
ENDBRANCH   5   9
BRANCH   1  17
ATOM     17  C   UNL     1      -2.897  -3.923   0.009  0.00  0.00    +0.103 C 
BRANCH  17  18
ATOM     18  C   UNL     1      -4.402  -3.997   0.017  0.00  0.00    -0.029 A 
ATOM     19  C   UNL     1      -5.110  -3.805  -1.154  0.00  0.00    +0.005 A 
ATOM     20  C   UNL     1      -6.490  -3.873  -1.147  0.00  0.00    +0.003 A 
ATOM     21  C   UNL     1      -7.163  -4.134   0.033  0.00  0.00    -0.050 A 
ATOM     22  C   UNL     1      -6.455  -4.327   1.204  0.00  0.00    +0.003 A 
ATOM     23  C   UNL     1      -5.074  -4.263   1.195  0.00  0.00    +0.005 A 
ATOM     24  C   UNL     1      -8.668  -4.207   0.041  0.00  0.00    +0.044 C 
ENDBRANCH  17  18
BRANCH  17  25
ATOM     25  C   UNL     1      -2.445  -2.641   0.711  0.00  0.00    +0.134 C 
BRANCH  25  26
ATOM     26  N   UNL     1      -0.980  -2.543   0.658  0.00  0.00    -0.199 NA
ATOM     27  H   UNL     1      -0.549  -3.362   1.058  0.00  0.00    +0.154 HD
BRANCH  26  28
ATOM     28  O   UNL     1      -0.512  -1.326   1.321  0.00  0.00    -0.300 OA
BRANCH  28  30
ATOM     29  C   UNL     1       1.283   0.132   2.024  0.00  0.00    +0.036 C 
ATOM     30  C   UNL     1       0.908  -1.167   1.307  0.00  0.00    +0.182 C 
ENDBRANCH  28  30
ENDBRANCH  26  28
ENDBRANCH  25  26
ENDBRANCH  17  25
ENDBRANCH   1  17
TORSDOF 8
