REMARK  Name = ZINC39696198
REMARK  12 active torsions:
REMARK  status: ('A' for Active; 'I' for Inactive)
REMARK    1  A    between atoms: C_1  and  C_2
REMARK    2  A    between atoms: C_2  and  C_3
REMARK    3  A    between atoms: C_6  and  C_9
REMARK    4  A    between atoms: C_9  and  C_11
REMARK    5  A    between atoms: C_9  and  N_12
REMARK    6  A    between atoms: C_13  and  C_15
REMARK    7  A    between atoms: C_26  and  C_28
REMARK    8  A    between atoms: C_30  and  C_37
REMARK    9  A    between atoms: N_32  and  C_33
REMARK   10  A    between atoms: C_33  and  C_34
REMARK   11  A    between atoms: C_33  and  C_35
REMARK   12  A    between atoms: C_33  and  C_36
REMARK                            x       y       z     vdW  Elec       q    Type
REMARK                         _______ _______ _______ _____ _____    ______ ____
ROOT
ATOM      1  C   UNL     1       1.640  -5.304   6.745  0.00  0.00    +0.100 C 
ATOM      2  C   UNL     1       0.616  -4.456   7.532  0.00  0.00    +0.121 C 
ATOM      3  N   UNL     1       0.477  -5.149   8.835  0.00  0.00    -0.295 N 
ATOM      4  C   UNL     1       1.855  -5.585   9.168  0.00  0.00    +0.115 C 
ATOM      5  C   UNL     1       2.451  -6.043   7.823  0.00  0.00    -0.004 C 
ATOM      6  C   UNL     1       2.293  -7.552   7.661  0.00  0.00    -0.010 C 
ATOM      7  C   UNL     1       3.154  -8.266   8.708  0.00  0.00    -0.082 C 
ATOM      8  N   UNL     1       4.559  -7.880   8.534  0.00  0.00    +0.379 N 
ATOM      9  C   UNL     1       4.718  -6.442   8.782  0.00  0.00    -0.082 C 
ATOM     10  C   UNL     1       3.923  -5.651   7.739  0.00  0.00    -0.010 C 
ATOM     11  C   UNL     1      -0.646  -5.341   9.553  0.00  0.00    +0.265 C 
ATOM     12  O   UNL     1      -0.598  -5.943  10.609  0.00  0.00    -0.268 OA
ATOM     13  H   UNL     1       5.132  -8.397   9.184  0.00  0.00    -0.086 HD
ATOM     14  H   UNL     1       4.851  -8.091   7.591  0.00  0.00    -0.086 HD
ENDROOT
BRANCH  11  15
ATOM     15  C   UNL     1      -1.932  -4.821   9.061  0.00  0.00    +0.124 A 
ATOM     16  C   UNL     1      -2.125  -3.946   8.006  0.00  0.00    +0.057 A 
ATOM     17  C   UNL     1      -3.507  -3.756   7.931  0.00  0.00    +0.061 A 
ATOM     18  N   UNL     1      -4.062  -4.471   8.876  0.00  0.00    -0.175 NA
ATOM     19  N   UNL     1      -3.175  -5.109   9.550  0.00  0.00    -0.254 N 
ATOM     20  C   UNL     1      -4.230  -2.882   6.939  0.00  0.00    +0.067 C 
BRANCH  19  21
ATOM     21  C   UNL     1      -3.452  -6.006  10.675  0.00  0.00    +0.056 C 
ATOM     22  C   UNL     1      -2.838  -5.428  11.951  0.00  0.00    +0.036 C 
ATOM     23  C   UNL     1      -4.965  -6.146  10.854  0.00  0.00    +0.036 C 
ATOM     24  C   UNL     1      -2.842  -7.381  10.393  0.00  0.00    +0.036 C 
ENDBRANCH  19  21
ENDBRANCH  11  15
BRANCH   1  26
ATOM     25  N   UNL     1       3.055  -4.861   4.766  0.00  0.00    -0.308 N 
ATOM     26  C   UNL     1       2.541  -4.414   5.929  0.00  0.00    +0.219 C 
ATOM     27  O   UNL     1       2.804  -3.296   6.318  0.00  0.00    -0.275 OA
ATOM     28  H   UNL     1       2.905  -5.778   4.490  0.00  0.00    +0.149 HD
BRANCH  25  29
ATOM     29  C   UNL     1       3.840  -3.960   3.918  0.00  0.00    +0.100 C 
ATOM     30  C   UNL     1       2.899  -3.152   3.022  0.00  0.00    +0.033 C 
BRANCH  29  34
ATOM     31  C   UNL     1       6.502  -6.253   1.488  0.00  0.00    -0.048 A 
ATOM     32  C   UNL     1       6.929  -5.064   2.050  0.00  0.00    +0.004 A 
ATOM     33  C   UNL     1       6.068  -4.322   2.836  0.00  0.00    +0.006 A 
ATOM     34  C   UNL     1       4.779  -4.769   3.060  0.00  0.00    -0.027 A 
ATOM     35  C   UNL     1       4.351  -5.957   2.498  0.00  0.00    +0.006 A 
ATOM     36  C   UNL     1       5.211  -6.697   1.708  0.00  0.00    +0.004 A 
BRANCH  31  38
ATOM     37  C   UNL     1       7.312  -6.617  -0.827  0.00  0.00    +0.009 C 
ATOM     38  C   UNL     1       7.441  -7.062   0.631  0.00  0.00    +0.032 C 
ENDBRANCH  31  38
ENDBRANCH  29  34
ENDBRANCH  25  29
ENDBRANCH   1  26
TORSDOF 6
