REMARK  Name = ZINC17660844
REMARK  6 active torsions:
REMARK  status: ('A' for Active; 'I' for Inactive)
REMARK    1  A    between atoms: C_1  and  O_2
REMARK    2  A    between atoms: O_2  and  C_3
REMARK    3  A    between atoms: C_8  and  N_9
REMARK    4  A    between atoms: C_18  and  S_19
REMARK    5  A    between atoms: S_19  and  C_20
REMARK    6  A    between atoms: C_20  and  C_21
REMARK                            x       y       z     vdW  Elec       q    Type
REMARK                         _______ _______ _______ _____ _____    ______ ____
ROOT
ATOM      1  N   UNL     1       1.169   3.493   0.009  0.00  0.00    -0.252 N 
ATOM      2  C   UNL     1       1.152   4.160  -1.160  0.00  0.00    +0.268 A 
ATOM      3  O   UNL     1       1.149   3.552  -2.217  0.00  0.00    -0.267 OA
ATOM      4  C   UNL     1       1.138   5.590  -1.145  0.00  0.00    +0.076 A 
ATOM      5  C   UNL     1       1.119   6.508  -2.285  0.00  0.00    -0.023 A 
ATOM      6  C   UNL     1       1.107   7.828  -2.009  0.00  0.00    -0.004 A 
ATOM      7  S   UNL     1       1.123   7.927  -0.239  0.00  0.00    -0.073 S 
ATOM      8  C   UNL     1       1.144   6.190   0.125  0.00  0.00    +0.117 A 
ATOM      9  N   UNL     1       1.161   5.475   1.244  0.00  0.00    -0.215 NA
ATOM     10  C   UNL     1       1.169   4.158   1.203  0.00  0.00    +0.178 A 
ATOM     11  C   UNL     1       1.087   8.961  -2.989  0.00  0.00    +0.043 C 
ATOM     12  C   UNL     1       1.455   8.410  -4.374  0.00  0.00    +0.005 C 
ATOM     13  C   UNL     1       0.629   7.148  -4.636  0.00  0.00    +0.005 C 
ATOM     14  C   UNL     1       1.110   6.014  -3.729  0.00  0.00    +0.037 C 
ENDROOT
BRANCH   1  20
ATOM     15  C   UNL     1      -0.017   1.382   0.010  0.00  0.00    +0.144 A 
ATOM     16  C   UNL     1       0.002  -0.004   0.002  0.00  0.00    +0.048 A 
ATOM     17  C   UNL     1       1.208  -0.679  -0.013  0.00  0.00    +0.004 A 
ATOM     18  C   UNL     1       2.399   0.025  -0.021  0.00  0.00    +0.002 A 
ATOM     19  C   UNL     1       2.389   1.407  -0.014  0.00  0.00    +0.030 A 
ATOM     20  C   UNL     1       1.182   2.091   0.002  0.00  0.00    +0.093 A 
BRANCH  15  22
ATOM     21  C   UNL     1      -2.391   1.254   0.020  0.00  0.00    +0.277 C 
ATOM     22  O   UNL     1      -1.202   2.047   0.019  0.00  0.00    -0.493 OA
ENDBRANCH  15  22
ENDBRANCH   1  20
BRANCH  10  23
ATOM     23  S   UNL     1       1.185   3.241   2.708  0.00  0.00    -0.079 S 
BRANCH  23  24
ATOM     24  C   UNL     1       1.177   4.600   3.904  0.00  0.00    +0.153 C 
BRANCH  24  25
ATOM     25  C   UNL     1       1.190   4.039   5.302  0.00  0.00    +0.146 A 
ATOM     26  N   UNL     1       0.049   3.788   5.921  0.00  0.00    -0.199 NA
ATOM     27  C   UNL     1       0.056   3.287   7.155  0.00  0.00    +0.217 A 
ATOM     28  N   UNL     1       1.211   3.050   7.768  0.00  0.00    -0.181 NA
ATOM     29  C   UNL     1       2.355   3.309   7.144  0.00  0.00    +0.217 A 
ATOM     30  N   UNL     1       2.340   3.804   5.908  0.00  0.00    -0.199 NA
ATOM     31  N   UNL     1       3.557   3.065   7.776  0.00  0.00    -0.327 N 
ATOM     32  N   UNL     1      -1.135   3.020   7.799  0.00  0.00    -0.327 N 
ATOM     33  H   UNL     1       4.392   3.255   7.320  0.00  0.00    +0.145 HD
ATOM     34  H   UNL     1       3.567   2.704   8.676  0.00  0.00    +0.145 HD
ATOM     35  H   UNL     1      -1.129   2.659   8.699  0.00  0.00    +0.145 HD
ATOM     36  H   UNL     1      -1.978   3.193   7.351  0.00  0.00    +0.145 HD
ENDBRANCH  24  25
ENDBRANCH  23  24
ENDBRANCH  10  23
TORSDOF 5
