REMARK  Name = ZINC08180817
REMARK  8 active torsions:
REMARK  status: ('A' for Active; 'I' for Inactive)
REMARK    1  A    between atoms: C_4  and  O_7
REMARK    2  A    between atoms: O_7  and  C_8
REMARK    3  A    between atoms: C_12  and  C_14
REMARK    4  A    between atoms: C_14  and  C_16
REMARK    5  A    between atoms: C_14  and  N_26
REMARK    6  A    between atoms: C_16  and  C_17
REMARK    7  A    between atoms: N_19  and  C_20
REMARK    8  A    between atoms: C_20  and  C_21
REMARK                            x       y       z     vdW  Elec       q    Type
REMARK                         _______ _______ _______ _____ _____    ______ ____
ROOT
ATOM      1  C   UNL     1      -1.272  -2.095   0.032  0.00  0.00    +0.113 C 
ENDROOT
BRANCH   1   2
ATOM      2  N   UNL     1      -1.347  -0.637  -0.092  0.00  0.00    -0.292 N 
ATOM      3  C   UNL     1      -2.364  -0.070  -0.771  0.00  0.00    +0.298 C 
ATOM      4  O   UNL     1      -3.165  -0.769  -1.362  0.00  0.00    -0.253 OA
ATOM      5  N   UNL     1      -2.494   1.271  -0.795  0.00  0.00    -0.313 N 
ATOM      6  H   UNL     1      -0.665  -0.080   0.315  0.00  0.00    +0.151 HD
ATOM      7  H   UNL     1      -3.226   1.679  -1.283  0.00  0.00    +0.146 HD
ATOM      8  H   UNL     1      -1.857   1.828  -0.320  0.00  0.00    +0.146 HD
ENDBRANCH   1   2
BRANCH   1  13
ATOM      9  C   UNL     1      -0.379  -4.294  -2.909  0.00  0.00    +0.129 A 
ATOM     10  C   UNL     1       0.796  -3.701  -3.348  0.00  0.00    +0.046 A 
ATOM     11  C   UNL     1       1.296  -2.593  -2.693  0.00  0.00    +0.004 A 
ATOM     12  C   UNL     1       0.624  -2.071  -1.603  0.00  0.00    +0.006 A 
ATOM     13  C   UNL     1      -0.544  -2.663  -1.160  0.00  0.00    -0.023 A 
ATOM     14  C   UNL     1      -1.049  -3.772  -1.812  0.00  0.00    +0.051 A 
BRANCH   9  15
ATOM     15  O   UNL     1      -0.873  -5.384  -3.552  0.00  0.00    -0.456 OA
BRANCH  15  19
ATOM     16  C   UNL     1       1.099  -6.699  -6.929  0.00  0.00    +0.000 A 
ATOM     17  C   UNL     1       1.594  -7.009  -5.676  0.00  0.00    +0.004 A 
ATOM     18  C   UNL     1       0.936  -6.570  -4.544  0.00  0.00    +0.046 A 
ATOM     19  C   UNL     1      -0.224  -5.817  -4.665  0.00  0.00    +0.128 A 
ATOM     20  C   UNL     1      -0.722  -5.512  -5.923  0.00  0.00    +0.046 A 
ATOM     21  C   UNL     1      -0.057  -5.949  -7.053  0.00  0.00    +0.004 A 
ENDBRANCH  15  19
ENDBRANCH   9  15
ENDBRANCH   1  13
BRANCH   1  22
ATOM     22  C   UNL     1      -0.517  -2.460   1.312  0.00  0.00    +0.123 C 
BRANCH  22  23
ATOM     23  C   UNL     1      -1.306  -1.999   2.509  0.00  0.00    +0.215 C 
ATOM     24  O   UNL     1      -2.368  -1.434   2.355  0.00  0.00    -0.276 OA
ATOM     25  N   UNL     1      -0.832  -2.214   3.753  0.00  0.00    -0.308 N 
ATOM     26  H   UNL     1       0.017  -2.666   3.876  0.00  0.00    +0.149 HD
BRANCH  25  27
ATOM     27  C   UNL     1      -1.600  -1.766   4.917  0.00  0.00    +0.178 C 
BRANCH  27  28
ATOM     28  C   UNL     1      -0.856  -2.125   6.178  0.00  0.00    +0.122 A 
ATOM     29  C   UNL     1       0.048  -1.352   6.805  0.00  0.00    +0.046 A 
ATOM     30  C   UNL     1       0.490  -2.075   7.937  0.00  0.00    +0.041 A 
ATOM     31  C   UNL     1      -0.169  -3.247   7.932  0.00  0.00    +0.195 A 
ATOM     32  O   UNL     1      -0.988  -3.270   6.868  0.00  0.00    -0.466 OA
ENDBRANCH  27  28
ENDBRANCH  25  27
ENDBRANCH  22  23
ENDBRANCH   1  22
TORSDOF 8
