REMARK  Name = ZINC04124820
REMARK  2 active torsions:
REMARK  status: ('A' for Active; 'I' for Inactive)
REMARK    1  A    between atoms: C_1  and  C_2
REMARK    2  A    between atoms: C_5  and  C_14
REMARK                            x       y       z     vdW  Elec       q    Type
REMARK                         _______ _______ _______ _____ _____    ______ ____
ROOT
ATOM      1  C   UNL     1      -0.019   1.526   0.010  0.00  0.00    +0.028 C 
ATOM      2  C   UNL     1       0.002  -0.004   0.002  0.00  0.00    +0.072 C 
ATOM      3  C   UNL     1      -1.435  -0.538   0.022  0.00  0.00    +0.053 C 
ATOM      4  C   UNL     1      -2.173   0.006   1.251  0.00  0.00    +0.142 C 
ATOM      5  N   UNL     1      -1.339  -0.204   2.434  0.00  0.00    -0.224 N 
ATOM      6  C   UNL     1      -0.005  -0.439   2.396  0.00  0.00    +0.216 A 
ATOM      7  N   UNL     1       0.419  -0.583   3.623  0.00  0.00    -0.180 NA
ATOM      8  C   UNL     1      -0.612  -0.445   4.470  0.00  0.00    +0.233 A 
ATOM      9  N   UNL     1      -1.706  -0.211   3.780  0.00  0.00    -0.132 NA
ATOM     10  N   UNL     1      -0.534  -0.534   5.861  0.00  0.00    -0.326 N 
ATOM     11  N   UNL     1       0.708  -0.496   1.201  0.00  0.00    -0.311 N 
ATOM     12  H   UNL     1       0.318  -0.710   6.289  0.00  0.00    +0.145 HD
ATOM     13  H   UNL     1      -1.333  -0.421   6.399  0.00  0.00    +0.145 HD
ATOM     14  H   UNL     1       1.613  -0.841   1.157  0.00  0.00    +0.149 HD
ENDROOT
BRANCH   4  15
ATOM     15  C   UNL     1      -3.482  -0.721   1.417  0.00  0.00    -0.023 A 
ATOM     16  C   UNL     1      -3.493  -2.090   1.608  0.00  0.00    +0.006 A 
ATOM     17  C   UNL     1      -4.694  -2.757   1.760  0.00  0.00    +0.000 A 
ATOM     18  C   UNL     1      -5.884  -2.055   1.722  0.00  0.00    +0.000 A 
ATOM     19  C   UNL     1      -5.873  -0.686   1.532  0.00  0.00    +0.000 A 
ATOM     20  C   UNL     1      -4.672  -0.018   1.384  0.00  0.00    +0.006 A 
ENDBRANCH   4  15
TORSDOF 1
