REMARK  Name = ZINC15319541
REMARK  10 active torsions:
REMARK  status: ('A' for Active; 'I' for Inactive)
REMARK    1  A    between atoms: C_1  and  C_2
REMARK    2  A    between atoms: C_5  and  S_20
REMARK    3  A    between atoms: C_7  and  N_8
REMARK    4  A    between atoms: N_8  and  C_9
REMARK    5  A    between atoms: C_9  and  C_10
REMARK    6  A    between atoms: N_15  and  C_16
REMARK    7  A    between atoms: C_16  and  C_17
REMARK    8  A    between atoms: C_16  and  C_18
REMARK    9  A    between atoms: C_16  and  C_19
REMARK   10  A    between atoms: S_20  and  N_23
REMARK                            x       y       z     vdW  Elec       q    Type
REMARK                         _______ _______ _______ _____ _____    ______ ____
ROOT
ATOM      1  C   UNL     1      -0.018   1.503   0.010  0.00  0.00    +0.045 C 
ATOM      2  C   UNL     1       0.002  -0.004   0.002  0.00  0.00    -0.029 A 
ATOM      3  C   UNL     1       0.006  -0.689  -1.198  0.00  0.00    +0.007 A 
ATOM      4  C   UNL     1       0.024  -2.071  -1.206  0.00  0.00    +0.029 A 
ATOM      5  C   UNL     1       0.039  -2.773  -0.014  0.00  0.00    +0.107 A 
ATOM      6  C   UNL     1       0.036  -2.095   1.188  0.00  0.00    +0.051 A 
ATOM      7  C   UNL     1       0.023  -0.706   1.200  0.00  0.00    +0.032 A 
ENDROOT
BRANCH   5   8
ATOM      8  S   UNL     1       0.062  -4.535  -0.031  0.00  0.00    +0.061 S 
ATOM      9  O   UNL     1      -0.477  -4.960   1.213  0.00  0.00    -0.153 OA
ATOM     10  O   UNL     1      -0.490  -4.937  -1.277  0.00  0.00    -0.153 OA
BRANCH   8  11
ATOM     11  N   UNL     1       1.650  -5.004  -0.044  0.00  0.00    -0.177 NA
ATOM     12  C   UNL     1       2.363  -5.199  -1.313  0.00  0.00    +0.109 C 
ATOM     13  C   UNL     1       3.645  -4.360  -1.292  0.00  0.00    +0.017 C 
ATOM     14  C   UNL     1       4.464  -4.719  -0.050  0.00  0.00    +0.003 C 
ATOM     15  C   UNL     1       3.654  -4.395   1.208  0.00  0.00    +0.017 C 
ATOM     16  C   UNL     1       2.374  -5.228   1.215  0.00  0.00    +0.109 C 
ENDBRANCH   8  11
ENDBRANCH   5   8
BRANCH   7  17
ATOM     17  N   UNL     1       0.025  -0.016   2.415  0.00  0.00    -0.335 N 
ATOM     18  H   UNL     1       0.012   0.954   2.422  0.00  0.00    +0.147 HD
BRANCH  17  19
ATOM     19  C   UNL     1       0.047  -0.758   3.678  0.00  0.00    +0.198 C 
BRANCH  19  20
ATOM     20  C   UNL     1       0.045   0.213   4.831  0.00  0.00    +0.237 C 
ATOM     21  O   UNL     1       0.027   1.406   4.618  0.00  0.00    -0.274 OA
ATOM     22  N   UNL     1       0.063  -0.246   6.098  0.00  0.00    -0.239 N 
ATOM     23  C   UNL     1       0.061   0.623   7.129  0.00  0.00    +0.306 C 
ATOM     24  O   UNL     1       0.043   1.819   6.916  0.00  0.00    -0.252 OA
ATOM     25  N   UNL     1       0.079   0.164   8.396  0.00  0.00    -0.294 N 
ATOM     26  H   UNL     1       0.078  -1.201   6.268  0.00  0.00    +0.159 HD
ATOM     27  H   UNL     1       0.094  -0.791   8.566  0.00  0.00    +0.151 HD
BRANCH  25  28
ATOM     28  C   UNL     1       0.077   1.108   9.517  0.00  0.00    +0.028 C 
ATOM     29  C   UNL     1      -1.185   1.971   9.454  0.00  0.00    +0.031 C 
ATOM     30  C   UNL     1       0.100   0.333  10.836  0.00  0.00    +0.031 C 
ATOM     31  C   UNL     1       1.313   2.005   9.431  0.00  0.00    +0.031 C 
ENDBRANCH  25  28
ENDBRANCH  19  20
ENDBRANCH  17  19
ENDBRANCH   7  17
TORSDOF 6
