REMARK  Name = ZINC04543386
REMARK  5 active torsions:
REMARK  status: ('A' for Active; 'I' for Inactive)
REMARK    1  A    between atoms: C_1  and  C_2
REMARK    2  A    between atoms: C_2  and  O_3
REMARK    3  A    between atoms: O_3  and  C_4
REMARK    4  A    between atoms: C_13  and  C_14
REMARK    5  A    between atoms: C_23  and  C_27
REMARK                            x       y       z     vdW  Elec       q    Type
REMARK                         _______ _______ _______ _____ _____    ______ ____
ROOT
ATOM      1  C   UNL     1       3.080   1.100  -6.382  0.00  0.00    +0.194 C 
ATOM      2  N   UNL     1       1.630   0.864  -6.508  0.00  0.00    -0.316 N 
ATOM      3  C   UNL     1       0.876   1.053  -5.378  0.00  0.00    +0.080 A 
ATOM      4  C   UNL     1       1.410   0.977  -4.083  0.00  0.00    +0.068 A 
ATOM      5  C   UNL     1       0.469   1.194  -2.996  0.00  0.00    -0.023 A 
ATOM      6  C   UNL     1      -0.805   1.450  -3.368  0.00  0.00    -0.004 A 
ATOM      7  S   UNL     1      -0.782   1.404  -5.141  0.00  0.00    -0.078 S 
ATOM      8  C   UNL     1      -1.974   1.711  -2.470  0.00  0.00    +0.046 C 
ATOM      9  C   UNL     1      -1.598   1.280  -1.045  0.00  0.00    -0.009 C 
ATOM     10  C   UNL     1      -0.221   1.857  -0.704  0.00  0.00    +0.008 C 
ATOM     11  C   UNL     1       0.858   1.147  -1.523  0.00  0.00    +0.037 C 
ATOM     12  C   UNL     1      -2.636   1.810  -0.054  0.00  0.00    +0.008 C 
ATOM     13  C   UNL     1       2.855   0.678  -3.954  0.00  0.00    +0.248 C 
ATOM     14  O   UNL     1       3.366   0.474  -2.868  0.00  0.00    -0.270 OA
ATOM     15  N   UNL     1       3.581   0.640  -5.091  0.00  0.00    -0.289 N 
ATOM     16  H   UNL     1       1.230   0.590  -7.347  0.00  0.00    +0.149 HD
ATOM     17  H   UNL     1       4.484   0.289  -5.047  0.00  0.00    +0.151 HD
ENDROOT
BRANCH   1  27
ATOM     18  C   UNL     1       4.162   3.211  -5.623  0.00  0.00    +0.128 A 
ATOM     19  C   UNL     1       4.429   4.579  -5.741  0.00  0.00    +0.046 A 
ATOM     20  C   UNL     1       3.883   5.314  -6.746  0.00  0.00    +0.012 A 
ATOM     21  C   UNL     1       3.041   4.692  -7.686  0.00  0.00    -0.017 A 
ATOM     22  C   UNL     1       2.461   5.421  -8.738  0.00  0.00    +0.008 A 
ATOM     23  C   UNL     1       1.650   4.788  -9.629  0.00  0.00    +0.001 A 
ATOM     24  C   UNL     1       1.386   3.424  -9.516  0.00  0.00    +0.001 A 
ATOM     25  C   UNL     1       1.931   2.686  -8.511  0.00  0.00    +0.009 A 
ATOM     26  C   UNL     1       2.773   3.305  -7.571  0.00  0.00    -0.008 A 
ATOM     27  C   UNL     1       3.353   2.575  -6.521  0.00  0.00    +0.040 A 
BRANCH  18  28
ATOM     28  O   UNL     1       4.718   2.505  -4.604  0.00  0.00    -0.492 OA
BRANCH  28  30
ATOM     29  C   UNL     1       6.085   2.270  -2.625  0.00  0.00    +0.048 C 
ATOM     30  C   UNL     1       5.554   3.225  -3.696  0.00  0.00    +0.225 C 
ENDBRANCH  28  30
ENDBRANCH  18  28
ENDBRANCH   1  27
TORSDOF 3
