REMARK  Name = ZINC47317860
REMARK  6 active torsions:
REMARK  status: ('A' for Active; 'I' for Inactive)
REMARK    1  A    between atoms: C_1  and  C_2
REMARK    2  A    between atoms: C_5  and  C_7
REMARK    3  A    between atoms: C_8  and  C_9
REMARK    4  A    between atoms: N_11  and  C_12
REMARK    5  A    between atoms: C_16  and  C_18
REMARK    6  A    between atoms: C_24  and  C_26
REMARK                            x       y       z     vdW  Elec       q    Type
REMARK                         _______ _______ _______ _____ _____    ______ ____
ROOT
ATOM      1  C   UNL     1       6.103  -4.930   0.033  0.00  0.00    +0.034 A 
ATOM      2  C   UNL     1       5.650  -6.245   0.015  0.00  0.00    +0.023 A 
ATOM      3  C   UNL     1       6.549  -7.292   0.094  0.00  0.00    +0.002 A 
ATOM      4  C   UNL     1       7.902  -7.040   0.190  0.00  0.00    +0.011 A 
ATOM      5  C   UNL     1       8.368  -5.723   0.207  0.00  0.00    +0.019 A 
ATOM      6  C   UNL     1       7.461  -4.666   0.123  0.00  0.00    +0.034 A 
ENDROOT
BRANCH   5   7
ATOM      7  C   UNL     1       9.816  -5.450   0.310  0.00  0.00    +0.141 A 
ATOM      8  N   UNL     1      10.691  -6.494   0.382  0.00  0.00    -0.307 N 
ATOM      9  H   UNL     1      10.362  -7.406   0.365  0.00  0.00    +0.170 HD
ATOM     10  C   UNL     1      12.016  -6.252   0.476  0.00  0.00    +0.252 A 
ATOM     11  O   UNL     1      12.813  -7.172   0.540  0.00  0.00    -0.268 OA
ATOM     12  C   UNL     1      12.459  -4.914   0.497  0.00  0.00    +0.093 A 
ATOM     13  C   UNL     1      11.536  -3.913   0.422  0.00  0.00    +0.046 A 
ATOM     14  N   UNL     1      10.241  -4.204   0.326  0.00  0.00    -0.234 NA
ATOM     15  C   UNL     1      11.984  -2.474   0.443  0.00  0.00    +0.066 C 
ENDBRANCH   5   7
BRANCH   1  18
ATOM     16  C   UNL     1       3.983  -3.982   0.544  0.00  0.00    +0.241 C 
ATOM     17  O   UNL     1       3.655  -5.028   1.074  0.00  0.00    -0.270 OA
ATOM     18  N   UNL     1       5.189  -3.875  -0.047  0.00  0.00    -0.282 N 
ATOM     19  H   UNL     1       5.424  -3.065  -0.527  0.00  0.00    +0.155 HD
BRANCH  16  21
ATOM     20  C   UNL     1       1.882  -2.987   1.142  0.00  0.00    +0.051 C 
ATOM     21  C   UNL     1       3.096  -2.879   0.547  0.00  0.00    +0.071 C 
BRANCH  20  26
ATOM     22  C   UNL     1       0.043   1.548   0.332  0.00  0.00    +0.086 C 
ATOM     23  C   UNL     1       0.167   0.120   0.795  0.00  0.00    +0.103 A 
ATOM     24  C   UNL     1      -0.776  -0.569   1.477  0.00  0.00    +0.045 A 
ATOM     25  C   UNL     1      -0.264  -1.854   1.710  0.00  0.00    +0.049 A 
ATOM     26  C   UNL     1       0.995  -1.883   1.146  0.00  0.00    +0.128 A 
ATOM     27  O   UNL     1       1.227  -0.674   0.594  0.00  0.00    -0.461 OA
ENDBRANCH  20  26
ENDBRANCH  16  21
ENDBRANCH   1  18
TORSDOF 4
