REMARK  Name = ZINC14951547
REMARK  12 active torsions:
REMARK  status: ('A' for Active; 'I' for Inactive)
REMARK    1  A    between atoms: C_1  and  C_2
REMARK    2  A    between atoms: N_4  and  C_5
REMARK    3  A    between atoms: C_8  and  C_11
REMARK    4  A    between atoms: C_11  and  N_66
REMARK    5  A    between atoms: C_13  and  N_29
REMARK    6  A    between atoms: C_16  and  C_18
REMARK    7  A    between atoms: N_20  and  C_21
REMARK    8  A    between atoms: C_21  and  C_22
REMARK    9  A    between atoms: C_22  and  C_23
REMARK   10  A    between atoms: C_31  and  C_34
REMARK   11  A    between atoms: C_34  and  O_36
REMARK   12  A    between atoms: O_36  and  C_37
REMARK                            x       y       z     vdW  Elec       q    Type
REMARK                         _______ _______ _______ _____ _____    ______ ____
ROOT
ATOM      1  C   UNL     1      -5.592   1.175  -0.801  0.00  0.00    -0.050 C 
ATOM      2  C   UNL     1      -5.317   2.518  -0.079  0.00  0.00    +0.091 C 
ATOM      3  C   UNL     1      -5.748   2.227   1.377  0.00  0.00    +0.019 C 
ATOM      4  C   UNL     1      -6.715   1.033   1.279  0.00  0.00    +0.022 C 
ATOM      5  N   UNL     1      -6.828   0.718  -0.150  0.00  0.00    +0.391 N 
ATOM      6  H   UNL     1      -7.633   1.211  -0.552  0.00  0.00    -0.080 HD
ENDROOT
BRANCH   2   7
ATOM      7  N   UNL     1      -3.893   2.856  -0.140  0.00  0.00    -0.250 N 
ATOM      8  C   UNL     1      -2.861   1.989  -0.170  0.00  0.00    +0.145 A 
ATOM      9  C   UNL     1      -1.718   2.736  -0.224  0.00  0.00    +0.189 A 
ATOM     10  N   UNL     1      -2.059   4.037  -0.222  0.00  0.00    -0.123 NA
ATOM     11  N   UNL     1      -3.341   4.145  -0.178  0.00  0.00    -0.065 NA
BRANCH   9  12
ATOM     12  C   UNL     1      -0.344   2.206  -0.272  0.00  0.00    +0.361 C 
ATOM     13  O   UNL     1      -0.155   1.005  -0.264  0.00  0.00    -0.243 OA
BRANCH  12  14
ATOM     14  O   UNL     1       0.704   3.052  -0.330  0.00  0.00    -0.463 OA
ATOM     15  C   UNL     1       2.028   2.459  -0.380  0.00  0.00    +0.280 C 
ENDBRANCH  12  14
ENDBRANCH   9  12
ENDBRANCH   2   7
BRANCH   4  16
ATOM     16  C   UNL     1      -8.062   1.416   1.837  0.00  0.00    +0.200 C 
ATOM     17  O   UNL     1      -9.043   1.393   1.124  0.00  0.00    -0.278 OA
ATOM     18  N   UNL     1      -8.176   1.783   3.129  0.00  0.00    -0.316 N 
ATOM     19  H   UNL     1      -7.391   1.800   3.700  0.00  0.00    +0.149 HD
BRANCH  18  20
ATOM     20  C   UNL     1      -9.485   2.155   3.672  0.00  0.00    +0.109 C 
BRANCH  20  21
ATOM     21  C   UNL     1      -9.337   2.526   5.149  0.00  0.00    +0.054 C 
BRANCH  21  22
ATOM     22  C   UNL     1     -10.684   2.909   5.707  0.00  0.00    -0.046 A 
ATOM     23  C   UNL     1     -11.102   4.226   5.662  0.00  0.00    +0.004 A 
ATOM     24  C   UNL     1     -12.339   4.576   6.170  0.00  0.00    +0.000 A 
ATOM     25  C   UNL     1     -13.153   3.611   6.733  0.00  0.00    +0.000 A 
ATOM     26  C   UNL     1     -12.733   2.295   6.782  0.00  0.00    +0.000 A 
ATOM     27  C   UNL     1     -11.498   1.944   6.270  0.00  0.00    +0.004 A 
ENDBRANCH  21  22
ENDBRANCH  20  21
ENDBRANCH  18  20
ENDBRANCH   4  16
BRANCH   5  28
ATOM     28  C   UNL     1      -7.010  -0.754  -0.341  0.00  0.00    -0.042 C 
BRANCH  28  32
ATOM     29  C   UNL     1      -6.670  -1.706  -4.494  0.00  0.00    +0.033 A 
ATOM     30  C   UNL     1      -5.540  -1.704  -3.685  0.00  0.00    +0.023 A 
ATOM     31  C   UNL     1      -5.654  -1.396  -2.344  0.00  0.00    +0.003 A 
ATOM     32  C   UNL     1      -6.890  -1.089  -1.805  0.00  0.00    -0.064 A 
ATOM     33  C   UNL     1      -8.017  -1.095  -2.606  0.00  0.00    +0.003 A 
ATOM     34  C   UNL     1      -7.910  -1.398  -3.949  0.00  0.00    +0.023 A 
BRANCH  29  38
ATOM     35  C   UNL     1      -5.437  -3.158  -7.740  0.00  0.00    +0.109 C 
ATOM     36  C   UNL     1      -5.638  -2.910  -6.267  0.00  0.00    +0.214 C 
ATOM     37  O   UNL     1      -4.972  -3.515  -5.454  0.00  0.00    -0.276 OA
ATOM     38  N   UNL     1      -6.558  -2.017  -5.853  0.00  0.00    -0.286 N 
ATOM     39  H   UNL     1      -7.144  -1.590  -6.498  0.00  0.00    +0.155 HD
ENDBRANCH  29  38
ENDBRANCH  28  32
ENDBRANCH   5  28
TORSDOF 10
