REMARK  Name = ZINC13688074
REMARK  5 active torsions:
REMARK  status: ('A' for Active; 'I' for Inactive)
REMARK    1  A    between atoms: C_1  and  C_2
REMARK    2  A    between atoms: C_2  and  C_3
REMARK    3  A    between atoms: C_3  and  C_4
REMARK    4  A    between atoms: C_4  and  N_5
REMARK    5  A    between atoms: N_14  and  C_17
REMARK                            x       y       z     vdW  Elec       q    Type
REMARK                         _______ _______ _______ _____ _____    ______ ____
ROOT
ATOM      1  N   UNL     1       1.425  -2.500  -2.470  0.00  0.00    -0.264 N 
ATOM      2  C   UNL     1       0.779  -2.779  -3.761  0.00  0.00    +0.203 C 
ATOM      3  C   UNL     1       1.951  -3.241  -4.665  0.00  0.00    +0.202 C 
ATOM      4  N   UNL     1       2.027  -2.197  -5.696  0.00  0.00    -0.305 N 
ATOM      5  C   UNL     1       1.083  -1.276  -5.465  0.00  0.00    +0.133 C 
ATOM      6  N   UNL     1       0.326  -1.521  -4.370  0.00  0.00    -0.305 N 
ATOM      7  S   UNL     1       0.860   0.101  -6.458  0.00  0.00    -0.019 S 
ATOM      8  N   UNL     1       3.122  -3.168  -3.779  0.00  0.00    -0.267 N 
ATOM      9  C   UNL     1       2.738  -2.739  -2.571  0.00  0.00    +0.308 C 
ATOM     10  O   UNL     1       3.512  -2.584  -1.646  0.00  0.00    -0.252 OA
ATOM     11  C   UNL     1       4.495  -3.508  -4.161  0.00  0.00    +0.135 C 
ATOM     12  H   UNL     1       2.662  -2.177  -6.429  0.00  0.00    +0.150 HD
ATOM     13  H   UNL     1      -0.406  -0.973  -4.045  0.00  0.00    +0.150 HD
ENDROOT
BRANCH   1  14
ATOM     14  C   UNL     1       0.739  -2.027  -1.265  0.00  0.00    +0.111 C 
BRANCH  14  15
ATOM     15  C   UNL     1       0.718  -0.497  -1.257  0.00  0.00    +0.019 C 
BRANCH  15  17
ATOM     16  C   UNL     1      -0.019   1.526   0.010  0.00  0.00    +0.004 C 
ATOM     17  C   UNL     1       0.002  -0.004   0.002  0.00  0.00    -0.002 C 
ENDBRANCH  15  17
ENDBRANCH  14  15
ENDBRANCH   1  14
TORSDOF 3
