REMARK  Name = ZINC39452251
REMARK  6 active torsions:
REMARK  status: ('A' for Active; 'I' for Inactive)
REMARK    1  A    between atoms: C_1  and  C_2
REMARK    2  A    between atoms: C_2  and  C_3
REMARK    3  A    between atoms: C_2  and  S_4
REMARK    4  A    between atoms: S_4  and  C_7
REMARK    5  A    between atoms: C_17  and  S_20
REMARK    6  A    between atoms: S_20  and  C_21
REMARK                            x       y       z     vdW  Elec       q    Type
REMARK                         _______ _______ _______ _____ _____    ______ ____
ROOT
ATOM      1  C   UNL     1      -1.464  -2.425   0.157  0.00  0.00    +0.222 C 
ATOM      2  C   UNL     1      -2.827  -3.126   0.168  0.00  0.00    +0.127 C 
ATOM      3  C   UNL     1      -3.469  -2.992  -1.189  0.00  0.00    +0.188 C 
ATOM      4  O   UNL     1      -4.680  -2.964  -1.281  0.00  0.00    -0.290 OA
ATOM      5  C   UNL     1      -2.676  -2.897  -2.353  0.00  0.00    +0.154 A 
ATOM      6  C   UNL     1      -1.297  -2.868  -2.246  0.00  0.00    +0.086 A 
ATOM      7  C   UNL     1      -0.473  -2.777  -3.457  0.00  0.00    +0.099 A 
ATOM      8  C   UNL     1      -1.129  -2.711  -4.707  0.00  0.00    +0.071 A 
ATOM      9  C   UNL     1      -0.370  -2.622  -5.872  0.00  0.00    +0.031 A 
ATOM     10  C   UNL     1       1.016  -2.603  -5.747  0.00  0.00    +0.026 A 
ATOM     11  C   UNL     1       1.592  -2.672  -4.477  0.00  0.00    +0.126 A 
ATOM     12  N   UNL     1       0.853  -2.756  -3.393  0.00  0.00    -0.252 NA
ATOM     13  C   UNL     1      -2.599  -2.738  -4.741  0.00  0.00    +0.297 A 
ATOM     14  O   UNL     1      -3.184  -2.680  -5.807  0.00  0.00    -0.264 OA
ATOM     15  N   UNL     1      -3.298  -2.827  -3.595  0.00  0.00    -0.088 N 
ATOM     16  O   UNL     1      -4.712  -2.849  -3.655  0.00  0.00    -0.160 OA
ATOM     17  N   UNL     1      -0.701  -2.918  -0.999  0.00  0.00    -0.319 N 
ATOM     18  H   UNL     1       0.196  -3.270  -0.890  0.00  0.00    +0.148 HD
ENDROOT
BRANCH   1  19
ATOM     19  S   UNL     1      -1.700  -0.632   0.015  0.00  0.00    -0.010 S 
ATOM     20  O   UNL     1      -2.341  -0.168   1.195  0.00  0.00    -0.172 OA
ATOM     21  O   UNL     1      -2.291  -0.355  -1.247  0.00  0.00    -0.172 OA
BRANCH  19  23
ATOM     22  C   UNL     1      -0.019   1.526   0.010  0.00  0.00    +0.031 C 
ATOM     23  C   UNL     1       0.002  -0.004   0.002  0.00  0.00    +0.126 C 
ATOM     24  C   UNL     1       0.742  -0.511   1.242  0.00  0.00    +0.031 C 
ENDBRANCH  19  23
ENDBRANCH   1  19
BRANCH  10  25
ATOM     25  S   UNL     1       2.036  -2.493  -7.180  0.00  0.00    -0.127 S 
ATOM     26  C   UNL     1       3.725  -2.502  -6.518  0.00  0.00    +0.090 C 
ENDBRANCH  10  25
TORSDOF 3
