REMARK  Name = ZINC54367229
REMARK  5 active torsions:
REMARK  status: ('A' for Active; 'I' for Inactive)
REMARK    1  A    between atoms: C_1  and  N_2
REMARK    2  A    between atoms: C_11  and  C_13
REMARK    3  A    between atoms: N_15  and  C_16
REMARK    4  A    between atoms: C_16  and  C_18
REMARK    5  A    between atoms: C_16  and  C_23
REMARK                            x       y       z     vdW  Elec       q    Type
REMARK                         _______ _______ _______ _____ _____    ______ ____
ROOT
ATOM      1  C   UNL     1      -0.009  -2.882   4.811  0.00  0.00    +0.245 C 
ATOM      2  O   UNL     1      -0.439  -4.019   4.775  0.00  0.00    -0.270 OA
ATOM      3  N   UNL     1       0.559  -2.412   5.939  0.00  0.00    -0.304 N 
ATOM      4  H   UNL     1       0.966  -1.531   5.947  0.00  0.00    +0.150 HD
ENDROOT
BRANCH   1  15
ATOM      5  C   UNL     1      -0.513   1.871   0.357  0.00  0.00    +0.130 C 
ATOM      6  N   UNL     1      -0.392   0.415   0.249  0.00  0.00    -0.323 N 
ATOM      7  C   UNL     1      -0.366  -0.248  -1.063  0.00  0.00    +0.200 C 
ATOM      8  C   UNL     1      -1.222  -1.488  -1.004  0.00  0.00    +0.235 C 
ATOM      9  O   UNL     1      -1.771  -1.886  -2.010  0.00  0.00    -0.274 OA
ATOM     10  N   UNL     1      -1.383  -2.159   0.152  0.00  0.00    -0.283 N 
ATOM     11  C   UNL     1      -0.798  -1.692   1.336  0.00  0.00    +0.055 A 
ATOM     12  C   UNL     1      -0.292  -0.385   1.389  0.00  0.00    +0.051 A 
ATOM     13  C   UNL     1       0.291   0.099   2.550  0.00  0.00    +0.026 A 
ATOM     14  C   UNL     1       0.383  -0.710   3.663  0.00  0.00    +0.015 A 
ATOM     15  C   UNL     1      -0.111  -2.016   3.620  0.00  0.00    +0.039 A 
ATOM     16  C   UNL     1      -0.711  -2.506   2.447  0.00  0.00    +0.038 A 
ATOM     17  H   UNL     1      -1.909  -2.974   0.166  0.00  0.00    +0.155 HD
ENDBRANCH   1  15
BRANCH   3  18
ATOM     18  C   UNL     1       0.562  -3.231   7.154  0.00  0.00    +0.113 C 
BRANCH  18  19
ATOM     19  C   UNL     1      -0.773  -3.112   7.843  0.00  0.00    +0.010 A 
ATOM     20  C   UNL     1      -1.503  -4.072   8.462  0.00  0.00    +0.013 A 
ATOM     21  C   UNL     1      -2.714  -3.729   9.033  0.00  0.00    +0.008 A 
ATOM     22  C   UNL     1      -3.136  -2.444   8.957  0.00  0.00    +0.045 A 
ATOM     23  S   UNL     1      -1.800  -1.668   8.063  0.00  0.00    -0.100 S 
ENDBRANCH  18  19
BRANCH  18  24
ATOM     24  C   UNL     1       1.667  -2.744   8.094  0.00  0.00    +0.014 C 
ATOM     25  C   UNL     1       1.468  -1.248   8.414  0.00  0.00    +0.006 C 
ATOM     26  C   UNL     1       2.907  -0.677   8.470  0.00  0.00    +0.000 C 
ATOM     27  C   UNL     1       3.624  -1.443   7.331  0.00  0.00    +0.000 C 
ATOM     28  C   UNL     1       3.037  -2.868   7.406  0.00  0.00    +0.006 C 
ENDBRANCH  18  24
ENDBRANCH   3  18
TORSDOF 4
