REMARK  Name = ZINC17836226
REMARK  3 active torsions:
REMARK  status: ('A' for Active; 'I' for Inactive)
REMARK    1  A    between atoms: C_1  and  C_2
REMARK    2  A    between atoms: C_4  and  C_22
REMARK    3  A    between atoms: C_11  and  C_16
REMARK                            x       y       z     vdW  Elec       q    Type
REMARK                         _______ _______ _______ _____ _____    ______ ____
ROOT
ATOM      1  C   UNL     1      -0.006   1.060  -0.002  0.00  0.00    +0.023 C 
ATOM      2  C   UNL     1      -0.721   1.560   1.254  0.00  0.00    +0.120 C 
ATOM      3  C   UNL     1      -2.111   0.966   1.348  0.00  0.00    +0.046 C 
ATOM      4  N   UNL     1      -2.155   0.277   2.421  0.00  0.00    -0.179 NA
ATOM      5  N   UNL     1      -0.958   0.294   3.131  0.00  0.00    -0.126 N 
ATOM      6  C   UNL     1      -0.030   1.045   2.502  0.00  0.00    +0.250 C 
ATOM      7  O   UNL     1       1.109   1.261   2.858  0.00  0.00    -0.273 OA
ATOM      8  C   UNL     1      -0.746  -0.376   4.332  0.00  0.00    +0.226 A 
ATOM      9  N   UNL     1      -1.734  -1.080   4.859  0.00  0.00    -0.214 NA
ATOM     10  C   UNL     1      -1.567  -1.738   6.005  0.00  0.00    +0.080 A 
ATOM     11  C   UNL     1      -0.330  -1.678   6.646  0.00  0.00    +0.098 A 
ATOM     12  C   UNL     1       0.680  -0.918   6.062  0.00  0.00    +0.253 A 
ATOM     13  N   UNL     1       0.439  -0.292   4.916  0.00  0.00    -0.293 N 
ATOM     14  O   UNL     1       1.897  -0.826   6.652  0.00  0.00    -0.268 OA
ATOM     15  C   UNL     1      -3.233   1.153   0.359  0.00  0.00    +0.063 C 
ATOM     16  H   UNL     1       1.240   0.301   4.451  0.00  0.00    +0.172 HD
ENDROOT
BRANCH  10  17
ATOM     17  C   UNL     1      -2.676  -2.535   6.585  0.00  0.00    +0.001 A 
ATOM     18  C   UNL     1      -2.490  -3.225   7.781  0.00  0.00    +0.010 A 
ATOM     19  C   UNL     1      -3.527  -3.961   8.319  0.00  0.00    +0.001 A 
ATOM     20  C   UNL     1      -4.745  -4.022   7.667  0.00  0.00    +0.000 A 
ATOM     21  C   UNL     1      -4.934  -3.342   6.477  0.00  0.00    +0.001 A 
ATOM     22  C   UNL     1      -3.905  -2.599   5.933  0.00  0.00    +0.010 A 
ENDBRANCH  10  17
TORSDOF 1
