REMARK  Name = ZINC05626216
REMARK  5 active torsions:
REMARK  status: ('A' for Active; 'I' for Inactive)
REMARK    1  A    between atoms: C_3  and  C_9
REMARK    2  A    between atoms: C_4  and  O_8
REMARK    3  A    between atoms: C_6  and  O_7
REMARK    4  A    between atoms: N_10  and  N_11
REMARK    5  A    between atoms: C_12  and  C_17
REMARK                            x       y       z     vdW  Elec       q    Type
REMARK                         _______ _______ _______ _____ _____    ______ ____
ROOT
ATOM      1  N   UNL     1      -4.809   3.988   0.067  0.00  0.00    -0.185 N 
ATOM      2  C   UNL     1      -5.552   4.390  -1.021  0.00  0.00    +0.204 A 
ATOM      3  N   UNL     1      -6.612   5.010  -0.555  0.00  0.00    -0.125 NA
ATOM      4  N   UNL     1      -6.585   5.023   0.729  0.00  0.00    -0.119 NA
ATOM      5  C   UNL     1      -5.509   4.407   1.165  0.00  0.00    +0.223 A 
ATOM      6  S   UNL     1      -5.050   4.170   2.850  0.00  0.00    -0.007 SA
ENDROOT
BRANCH   2   7
ATOM      7  C   UNL     1      -5.219   4.167  -2.444  0.00  0.00    +0.108 A 
ATOM      8  C   UNL     1      -5.984   4.591  -3.554  0.00  0.00    +0.004 A 
ATOM      9  C   UNL     1      -5.337   4.206  -4.673  0.00  0.00    +0.067 A 
ATOM     10  N   UNL     1      -4.217   3.543  -4.300  0.00  0.00    -0.178 NA
ATOM     11  H   UNL     1      -3.445   3.077  -2.199  0.00  0.00    +0.189 HD
ATOM     12  N   UNL     1      -4.167   3.519  -2.902  0.00  0.00    -0.273 N 
ATOM     13  C   UNL     1      -6.099   4.655  -5.901  0.00  0.00    +0.058 C 
ATOM     14  C   UNL     1      -7.532   4.954  -5.386  0.00  0.00    +0.011 C 
ATOM     15  C   UNL     1      -7.262   5.320  -3.910  0.00  0.00    +0.039 C 
ENDBRANCH   2   7
BRANCH   1  17
ATOM     16  C   UNL     1      -2.471   3.942   0.023  0.00  0.00    +0.145 C 
ATOM     17  N   UNL     1      -3.594   3.290   0.051  0.00  0.00    -0.170 NA
BRANCH  16  20
ATOM     18  C   UNL     1       1.208   3.216  -0.039  0.00  0.00    +0.046 A 
ATOM     19  C   UNL     1       0.015   3.906  -0.024  0.00  0.00    +0.016 A 
ATOM     20  C   UNL     1      -1.195   3.208   0.007  0.00  0.00    +0.036 A 
ATOM     21  C   UNL     1      -1.188   1.805   0.017  0.00  0.00    +0.129 A 
ATOM     22  C   UNL     1       0.016   1.123   0.007  0.00  0.00    +0.091 A 
ATOM     23  C   UNL     1       1.212   1.826  -0.023  0.00  0.00    +0.120 A 
BRANCH  23  24
ATOM     24  O   UNL     1       2.391   1.153  -0.038  0.00  0.00    -0.507 OA
ATOM     25  H   UNL     1       2.397   0.053  -0.026  0.00  0.00    +0.292 HD
ENDBRANCH  23  24
BRANCH  21  26
ATOM     26  O   UNL     1      -2.360   1.119   0.042  0.00  0.00    -0.506 OA
ATOM     27  H   UNL     1      -2.352   0.019   0.050  0.00  0.00    +0.292 HD
ENDBRANCH  21  26
ENDBRANCH  16  20
ENDBRANCH   1  17
TORSDOF 5
