REMARK  Name = ZINC39578166
REMARK  11 active torsions:
REMARK  status: ('A' for Active; 'I' for Inactive)
REMARK    1  A    between atoms: C_1  and  C_2
REMARK    2  A    between atoms: C_5  and  C_30
REMARK    3  A    between atoms: C_7  and  N_8
REMARK    4  A    between atoms: C_9  and  C_11
REMARK    5  A    between atoms: C_11  and  N_12
REMARK    6  A    between atoms: C_15  and  C_19
REMARK    7  A    between atoms: C_15  and  C_20
REMARK    8  A    between atoms: C_23  and  O_26
REMARK    9  A    between atoms: O_26  and  C_27
REMARK   10  A    between atoms: C_30  and  O_32
REMARK   11  A    between atoms: O_32  and  C_33
REMARK                            x       y       z     vdW  Elec       q    Type
REMARK                         _______ _______ _______ _____ _____    ______ ____
ROOT
ATOM      1  N   UNL     1      -0.242  -0.884   5.992  0.00  0.00    -0.215 N 
ATOM      2  C   UNL     1      -1.391  -1.396   6.476  0.00  0.00    +0.251 C 
ATOM      3  O   UNL     1      -2.517  -1.163   6.089  0.00  0.00    -0.272 OA
ATOM      4  C   UNL     1      -0.985  -2.323   7.603  0.00  0.00    +0.135 C 
ATOM      5  N   UNL     1       0.485  -2.216   7.626  0.00  0.00    -0.281 N 
ATOM      6  C   UNL     1       0.823  -1.358   6.647  0.00  0.00    +0.310 C 
ATOM      7  O   UNL     1       1.969  -1.045   6.389  0.00  0.00    -0.252 OA
ATOM      8  C   UNL     1      -1.580  -1.850   8.931  0.00  0.00    +0.047 C 
ATOM      9  H   UNL     1       1.090  -2.677   8.228  0.00  0.00    +0.152 HD
ENDROOT
BRANCH   4  10
ATOM     10  C   UNL     1      -1.408  -3.738   7.305  0.00  0.00    -0.015 A 
ATOM     11  C   UNL     1      -2.531  -3.974   6.533  0.00  0.00    +0.010 A 
ATOM     12  C   UNL     1      -2.922  -5.271   6.258  0.00  0.00    +0.046 A 
ATOM     13  C   UNL     1      -2.187  -6.336   6.757  0.00  0.00    +0.127 A 
ATOM     14  C   UNL     1      -1.060  -6.097   7.531  0.00  0.00    +0.046 A 
ATOM     15  C   UNL     1      -0.671  -4.798   7.798  0.00  0.00    +0.010 A 
BRANCH  13  16
ATOM     16  O   UNL     1      -2.570  -7.612   6.489  0.00  0.00    -0.434 OA
BRANCH  16  17
ATOM     17  C   UNL     1      -1.765  -8.659   7.035  0.00  0.00    +0.541 C 
ATOM     18  F   UNL     1      -0.459  -8.547   6.545  0.00  0.00    -0.166 F 
ATOM     19  F   UNL     1      -1.750  -8.557   8.430  0.00  0.00    -0.166 F 
ENDBRANCH  16  17
ENDBRANCH  13  16
ENDBRANCH   4  10
BRANCH   1  20
ATOM     20  C   UNL     1      -0.169   0.070   4.882  0.00  0.00    +0.214 C 
BRANCH  20  22
ATOM     21  N   UNL     1       0.025  -0.007   2.417  0.00  0.00    -0.284 N 
ATOM     22  C   UNL     1      -0.057  -0.682   3.581  0.00  0.00    +0.235 C 
ATOM     23  O   UNL     1      -0.040  -1.895   3.581  0.00  0.00    -0.274 OA
ATOM     24  H   UNL     1       0.077   0.962   2.421  0.00  0.00    +0.155 HD
BRANCH  21  31
ATOM     25  C   UNL     1      -1.265   1.183   0.182  0.00  0.00    +0.045 C 
ATOM     26  C   UNL     1      -0.586  -0.158   0.085  0.00  0.00    -0.029 A 
ATOM     27  C   UNL     1      -0.575  -0.839  -1.118  0.00  0.00    +0.006 A 
ATOM     28  C   UNL     1       0.045  -2.068  -1.215  0.00  0.00    +0.015 A 
ATOM     29  C   UNL     1       0.665  -2.627  -0.096  0.00  0.00    +0.061 A 
ATOM     30  C   UNL     1       0.655  -1.940   1.118  0.00  0.00    +0.038 A 
ATOM     31  C   UNL     1       0.033  -0.703   1.203  0.00  0.00    +0.037 A 
BRANCH  29  32
ATOM     32  C   UNL     1       1.330  -3.943  -0.197  0.00  0.00    +0.339 C 
ATOM     33  O   UNL     1       1.869  -4.427   0.778  0.00  0.00    -0.245 OA
BRANCH  32  34
ATOM     34  O   UNL     1       1.339  -4.605  -1.370  0.00  0.00    -0.464 OA
ATOM     35  C   UNL     1       2.000  -5.872  -1.395  0.00  0.00    +0.280 C 
ENDBRANCH  32  34
ENDBRANCH  29  32
ENDBRANCH  21  31
ENDBRANCH  20  22
ENDBRANCH   1  20
TORSDOF 8
