REMARK  Name = ZINC35697586
REMARK  10 active torsions:
REMARK  status: ('A' for Active; 'I' for Inactive)
REMARK    1  A    between atoms: C_1  and  C_2
REMARK    2  A    between atoms: C_5  and  C_8
REMARK    3  A    between atoms: C_10  and  C_30
REMARK    4  A    between atoms: C_11  and  C_29
REMARK    5  A    between atoms: C_15  and  C_18
REMARK    6  A    between atoms: C_19  and  N_21
REMARK    7  A    between atoms: N_21  and  C_22
REMARK    8  A    between atoms: C_22  and  C_23
REMARK    9  A    between atoms: C_30  and  O_32
REMARK   10  A    between atoms: O_32  and  C_33
REMARK                            x       y       z     vdW  Elec       q    Type
REMARK                         _______ _______ _______ _____ _____    ______ ____
ROOT
ATOM      1  C   UNL     1       0.314  -4.347  -0.218  0.00  0.00    +0.150 C 
ATOM      2  C   UNL     1      -1.142  -4.670   0.032  0.00  0.00    +0.082 C 
ATOM      3  C   UNL     1      -1.478  -5.236   1.247  0.00  0.00    +0.053 C 
ATOM      4  N   UNL     1      -0.545  -5.481   2.153  0.00  0.00    -0.230 NA
ATOM      5  C   UNL     1       0.738  -5.224   1.999  0.00  0.00    +0.166 C 
ATOM      6  N   UNL     1       1.274  -4.666   0.873  0.00  0.00    -0.267 N 
ATOM      7  C   UNL     1       2.639  -4.458   0.866  0.00  0.00    +0.048 C 
ATOM      8  C   UNL     1       3.333  -4.821   1.967  0.00  0.00    +0.072 C 
ATOM      9  S   UNL     1       2.049  -5.460   3.020  0.00  0.00    -0.060 S 
ATOM     10  C   UNL     1      -2.916  -5.576   1.542  0.00  0.00    +0.066 C 
ENDROOT
BRANCH   1  15
ATOM     11  C   UNL     1       0.712   1.307  -1.343  0.00  0.00    +0.044 C 
ATOM     12  C   UNL     1       0.608  -0.168  -1.050  0.00  0.00    -0.050 A 
ATOM     13  C   UNL     1       0.623  -1.082  -2.087  0.00  0.00    +0.004 A 
ATOM     14  C   UNL     1       0.528  -2.434  -1.817  0.00  0.00    +0.006 A 
ATOM     15  C   UNL     1       0.419  -2.873  -0.511  0.00  0.00    -0.022 A 
ATOM     16  C   UNL     1       0.405  -1.959   0.526  0.00  0.00    +0.006 A 
ATOM     17  C   UNL     1       0.504  -0.607   0.257  0.00  0.00    +0.004 A 
ENDBRANCH   1  15
BRANCH   7  18
ATOM     18  C   UNL     1       3.312  -3.865  -0.298  0.00  0.00    +0.091 C 
ATOM     19  C   UNL     1       4.616  -3.533  -0.225  0.00  0.00    +0.239 C 
ATOM     20  O   UNL     1       5.335  -3.851   0.879  0.00  0.00    -0.271 OA
BRANCH  19  21
ATOM     21  N   UNL     1       5.221  -2.867  -1.277  0.00  0.00    -0.306 N 
ATOM     22  H   UNL     1       4.690  -2.574  -2.035  0.00  0.00    +0.149 HD
BRANCH  21  23
ATOM     23  C   UNL     1       6.662  -2.605  -1.247  0.00  0.00    +0.160 C 
BRANCH  23  24
ATOM     24  C   UNL     1       7.045  -1.769  -2.441  0.00  0.00    +0.058 A 
ATOM     25  C   UNL     1       7.131  -0.395  -2.313  0.00  0.00    +0.025 A 
ATOM     26  C   UNL     1       7.485   0.365  -3.417  0.00  0.00    +0.003 A 
ATOM     27  C   UNL     1       7.741  -0.288  -4.614  0.00  0.00    +0.020 A 
ATOM     28  C   UNL     1       7.635  -1.665  -4.665  0.00  0.00    +0.111 A 
ATOM     29  N   UNL     1       7.301  -2.357  -3.593  0.00  0.00    -0.258 NA
ENDBRANCH  23  24
ENDBRANCH  21  23
ENDBRANCH  19  21
ENDBRANCH   7  18
BRANCH   2  30
ATOM     30  C   UNL     1      -2.118  -4.405  -0.937  0.00  0.00    +0.339 C 
ATOM     31  O   UNL     1      -3.288  -4.661  -0.710  0.00  0.00    -0.245 OA
BRANCH  30  32
ATOM     32  O   UNL     1      -1.763  -3.864  -2.123  0.00  0.00    -0.465 OA
ATOM     33  C   UNL     1      -2.810  -3.620  -3.064  0.00  0.00    +0.280 C 
ENDBRANCH  30  32
ENDBRANCH   2  30
TORSDOF 7
