REMARK  Name = ZINC02781567
REMARK  8 active torsions:
REMARK  status: ('A' for Active; 'I' for Inactive)
REMARK    1  A    between atoms: C_1  and  C_2
REMARK    2  A    between atoms: N_5  and  C_7
REMARK    3  A    between atoms: C_7  and  C_8
REMARK    4  A    between atoms: N_10  and  C_11
REMARK    5  A    between atoms: C_13  and  C_18
REMARK    6  A    between atoms: C_13  and  C_19
REMARK    7  A    between atoms: C_14  and  C_16
REMARK    8  A    between atoms: C_14  and  C_17
REMARK                            x       y       z     vdW  Elec       q    Type
REMARK                         _______ _______ _______ _____ _____    ______ ____
ROOT
ATOM      1  C   UNL     1       0.779   4.126  -4.152  0.00  0.00    +0.235 C 
ATOM      2  O   UNL     1      -0.032   4.854  -3.619  0.00  0.00    -0.274 OA
ATOM      3  N   UNL     1       1.237   3.038  -3.501  0.00  0.00    -0.311 N 
ATOM      4  H   UNL     1       1.885   2.456  -3.926  0.00  0.00    +0.149 HD
ENDROOT
BRANCH   3   5
ATOM      5  C   UNL     1       0.754   2.735  -2.148  0.00  0.00    +0.070 C 
ATOM      6  C   UNL     1       1.805   1.899  -1.415  0.00  0.00    +0.009 C 
ATOM      7  C   UNL     1       1.321   1.577  -0.002  0.00  0.00    -0.072 C 
ATOM      8  C   UNL     1      -1.041   1.551  -0.852  0.00  0.00    -0.072 C 
ATOM      9  C   UNL     1      -0.531   1.913  -2.245  0.00  0.00    +0.009 C 
ATOM     10  C   UNL     1      -2.141   0.479  -1.025  0.00  0.00    -0.010 C 
ATOM     11  C   UNL     1      -1.703   2.778  -0.214  0.00  0.00    -0.010 C 
ATOM     12  C   UNL     1       1.397   2.833   0.871  0.00  0.00    -0.010 C 
ATOM     13  C   UNL     1       2.295   0.539   0.598  0.00  0.00    -0.010 C 
ATOM     14  N   UNL     1      -0.027   0.947   0.053  0.00  0.00    +0.386 N 
ATOM     15  H   UNL     1      -0.375   1.022   1.016  0.00  0.00    -0.084 HD
ATOM     16  H   UNL     1       0.074  -0.043  -0.198  0.00  0.00    -0.084 HD
ENDBRANCH   3   5
BRANCH   1  17
ATOM     17  C   UNL     1       1.275   4.438  -5.540  0.00  0.00    +0.239 C 
BRANCH  17  22
ATOM     18  C   UNL     1      -2.271   7.750  -6.825  0.00  0.00    +0.068 C 
ATOM     19  C   UNL     1      -0.936   7.095  -6.581  0.00  0.00    +0.074 A 
ATOM     20  C   UNL     1       0.316   7.667  -6.831  0.00  0.00    +0.058 A 
ATOM     21  C   UNL     1       1.263   6.766  -6.475  0.00  0.00    +0.124 A 
ATOM     22  N   UNL     1       0.631   5.661  -6.025  0.00  0.00    -0.261 N 
ATOM     23  N   UNL     1      -0.749   5.893  -6.098  0.00  0.00    -0.175 NA
ATOM     24 BR   UNL     1       0.631   9.394  -7.533  0.00  0.00    -0.047 Br
ENDBRANCH  17  22
ENDBRANCH   1  17
TORSDOF 3
