REMARK  Name = ZINC02508272
REMARK  10 active torsions:
REMARK  status: ('A' for Active; 'I' for Inactive)
REMARK    1  A    between atoms: C_3  and  O_26
REMARK    2  A    between atoms: C_6  and  C_7
REMARK    3  A    between atoms: C_7  and  C_8
REMARK    4  A    between atoms: C_8  and  C_10
REMARK    5  A    between atoms: C_8  and  N_46
REMARK    6  A    between atoms: N_12  and  C_13
REMARK    7  A    between atoms: C_13  and  C_15
REMARK    8  A    between atoms: C_13  and  C_23
REMARK    9  A    between atoms: C_15  and  C_16
REMARK   10  A    between atoms: C_19  and  O_22
REMARK                            x       y       z     vdW  Elec       q    Type
REMARK                         _______ _______ _______ _____ _____    ______ ____
ROOT
ATOM      1  C   UNL     1      -0.575   0.877   2.369  0.00  0.00    +0.199 C 
ATOM      2  O   UNL     1       0.103  -0.128   2.412  0.00  0.00    -0.278 OA
ATOM      3  N   UNL     1      -0.698   1.558   1.213  0.00  0.00    -0.305 N 
ATOM      4  H   UNL     1      -1.241   2.362   1.179  0.00  0.00    +0.149 HD
ENDROOT
BRANCH   1   5
ATOM      5  C   UNL     1      -1.281   1.363   3.609  0.00  0.00    +0.017 C 
BRANCH   5   8
ATOM      6  H   UNL     1      -0.491  -0.094   4.832  0.00  0.00    -0.089 HD
ATOM      7  H   UNL     1      -1.926   0.540   5.383  0.00  0.00    -0.089 HD
ATOM      8  N   UNL     1      -1.413   0.241   4.556  0.00  0.00    +0.386 N 
ATOM      9  H   UNL     1      -1.925  -0.525   4.102  0.00  0.00    -0.089 HD
ENDBRANCH   5   8
BRANCH   5  10
ATOM     10  C   UNL     1      -0.477   2.502   4.240  0.00  0.00    +0.028 C 
BRANCH  10  16
ATOM     11  C   UNL     1      -2.124   4.116   5.212  0.00  0.00    +0.007 A 
ATOM     12  C   UNL     1      -2.830   4.635   6.280  0.00  0.00    +0.045 A 
ATOM     13  C   UNL     1      -2.646   4.112   7.552  0.00  0.00    +0.117 A 
ATOM     14  C   UNL     1      -1.756   3.065   7.746  0.00  0.00    +0.045 A 
ATOM     15  C   UNL     1      -1.056   2.547   6.674  0.00  0.00    +0.007 A 
ATOM     16  C   UNL     1      -1.242   3.070   5.408  0.00  0.00    -0.048 A 
BRANCH  13  17
ATOM     17  O   UNL     1      -3.336   4.623   8.605  0.00  0.00    -0.507 OA
ATOM     18  H   UNL     1      -2.885   5.351   9.054  0.00  0.00    +0.292 HD
ENDBRANCH  13  17
ENDBRANCH  10  16
ENDBRANCH   5  10
ENDBRANCH   1   5
BRANCH   3  19
ATOM     19  C   UNL     1      -0.013   1.086   0.008  0.00  0.00    +0.163 C 
BRANCH  19  20
ATOM     20  C   UNL     1       1.401   1.607  -0.003  0.00  0.00    +0.231 C 
ATOM     21  O   UNL     1       1.797   2.305   0.907  0.00  0.00    -0.274 OA
ATOM     22  N   UNL     1       2.226   1.299  -1.023  0.00  0.00    -0.328 N 
ATOM     23  H   UNL     1       1.909   0.741  -1.751  0.00  0.00    +0.145 HD
ATOM     24  H   UNL     1       3.136   1.634  -1.030  0.00  0.00    +0.145 HD
ENDBRANCH  19  20
BRANCH  19  25
ATOM     25  C   UNL     1      -0.753   1.593  -1.232  0.00  0.00    +0.067 C 
BRANCH  25  26
ATOM     26  C   UNL     1      -2.126   0.973  -1.285  0.00  0.00    -0.045 A 
ATOM     27  C   UNL     1      -2.317  -0.223  -1.951  0.00  0.00    +0.007 A 
ATOM     28  C   UNL     1      -3.574  -0.796  -1.996  0.00  0.00    +0.045 A 
ATOM     29  C   UNL     1      -4.646  -0.164  -1.383  0.00  0.00    +0.117 A 
ATOM     30  C   UNL     1      -4.452   1.040  -0.721  0.00  0.00    +0.045 A 
ATOM     31  C   UNL     1      -3.192   1.606  -0.674  0.00  0.00    +0.007 A 
BRANCH  29  32
ATOM     32  O   UNL     1      -5.884  -0.722  -1.432  0.00  0.00    -0.507 OA
ATOM     33  H   UNL     1      -6.410  -0.445  -2.194  0.00  0.00    +0.292 HD
ENDBRANCH  29  32
ENDBRANCH  25  26
ENDBRANCH  19  25
ENDBRANCH   3  19
TORSDOF 10
