REMARK  Name = ZINC39533955
REMARK  12 active torsions:
REMARK  status: ('A' for Active; 'I' for Inactive)
REMARK    1  A    between atoms: C_1  and  C_2
REMARK    2  A    between atoms: C_2  and  C_3
REMARK    3  A    between atoms: C_2  and  S_4
REMARK    4  A    between atoms: S_4  and  N_7
REMARK    5  A    between atoms: N_7  and  C_8
REMARK    6  A    between atoms: C_8  and  C_9
REMARK    7  A    between atoms: C_9  and  C_11
REMARK    8  A    between atoms: C_9  and  N_24
REMARK    9  A    between atoms: C_14  and  C_17
REMARK   10  A    between atoms: C_22  and  O_23
REMARK   11  A    between atoms: C_28  and  C_31
REMARK   12  A    between atoms: C_31  and  C_32
REMARK                            x       y       z     vdW  Elec       q    Type
REMARK                         _______ _______ _______ _____ _____    ______ ____
ROOT
ATOM      1  C   UNL     1      -1.567  -4.213   1.735  0.00  0.00    +0.102 C 
ENDROOT
BRANCH   1   2
ATOM      2  N   UNL     1      -3.022  -4.040   1.632  0.00  0.00    -0.297 NA
ATOM      3  C   UNL     1      -3.494  -2.991   2.546  0.00  0.00    +0.066 C 
ATOM      4  C   UNL     1      -5.002  -2.801   2.364  0.00  0.00    -0.067 C 
ATOM      5  N   UNL     1      -5.692  -4.067   2.646  0.00  0.00    +0.383 N 
ATOM      6  C   UNL     1      -5.228  -5.098   1.709  0.00  0.00    -0.053 C 
ATOM      7  C   UNL     1      -3.722  -5.307   1.885  0.00  0.00    +0.069 C 
ATOM      8  H   UNL     1      -5.491  -4.356   3.592  0.00  0.00    -0.085 HD
ATOM      9  H   UNL     1      -6.687  -3.938   2.538  0.00  0.00    -0.085 HD
BRANCH   6  10
ATOM     10  C   UNL     1      -5.961  -6.411   1.992  0.00  0.00    +0.020 C 
BRANCH  10  11
ATOM     11  C   UNL     1      -7.429  -6.239   1.701  0.00  0.00    -0.049 A 
ATOM     12  C   UNL     1      -8.286  -5.808   2.696  0.00  0.00    +0.003 A 
ATOM     13  C   UNL     1      -9.633  -5.651   2.429  0.00  0.00    +0.000 A 
ATOM     14  C   UNL     1     -10.123  -5.923   1.165  0.00  0.00    +0.000 A 
ATOM     15  C   UNL     1      -9.266  -6.354   0.169  0.00  0.00    +0.000 A 
ATOM     16  C   UNL     1      -7.919  -6.507   0.436  0.00  0.00    +0.003 A 
ENDBRANCH  10  11
ENDBRANCH   6  10
ENDBRANCH   1   2
BRANCH   1  17
ATOM     17  C   UNL     1      -1.207  -4.611   3.144  0.00  0.00    -0.029 A 
ATOM     18  C   UNL     1      -0.781  -5.900   3.409  0.00  0.00    +0.006 A 
ATOM     19  C   UNL     1      -0.451  -6.269   4.697  0.00  0.00    +0.009 A 
ATOM     20  C   UNL     1      -0.547  -5.341   5.731  0.00  0.00    -0.014 A 
ATOM     21  C   UNL     1      -0.976  -4.043   5.459  0.00  0.00    +0.009 A 
ATOM     22  C   UNL     1      -1.299  -3.683   4.166  0.00  0.00    +0.006 A 
BRANCH  20  23
ATOM     23  C   UNL     1      -0.194  -5.733   7.118  0.00  0.00    +0.024 A 
ATOM     24  C   UNL     1      -0.728  -6.893   7.675  0.00  0.00    +0.012 A 
ATOM     25  C   UNL     1      -0.397  -7.253   8.965  0.00  0.00    +0.001 A 
ATOM     26  C   UNL     1       0.465  -6.465   9.709  0.00  0.00    +0.004 A 
ATOM     27  C   UNL     1       1.000  -5.312   9.166  0.00  0.00    +0.046 A 
ATOM     28  C   UNL     1       0.680  -4.942   7.870  0.00  0.00    +0.125 A 
BRANCH  28  29
ATOM     29  O   UNL     1       1.210  -3.812   7.333  0.00  0.00    -0.506 OA
ATOM     30  H   UNL     1       0.679  -3.019   7.484  0.00  0.00    +0.292 HD
ENDBRANCH  28  29
ENDBRANCH  20  23
ENDBRANCH   1  17
BRANCH   1  31
ATOM     31  C   UNL     1      -0.870  -2.897   1.383  0.00  0.00    +0.129 C 
BRANCH  31  32
ATOM     32  N   UNL     1      -1.312  -2.449   0.061  0.00  0.00    -0.192 NA
ATOM     33  H   UNL     1      -1.779  -3.063  -0.528  0.00  0.00    +0.148 HD
BRANCH  32  34
ATOM     34  S   UNL     1      -1.017  -0.895  -0.429  0.00  0.00    +0.032 S 
ATOM     35  O   UNL     1      -1.555  -0.081   0.603  0.00  0.00    -0.158 OA
ATOM     36  O   UNL     1      -1.534  -0.826  -1.751  0.00  0.00    -0.158 OA
BRANCH  34  38
ATOM     37  C   UNL     1       1.374  -1.832  -1.372  0.00  0.00    +0.033 C 
ATOM     38  C   UNL     1       0.792  -0.752  -0.458  0.00  0.00    +0.142 C 
ATOM     39  C   UNL     1       1.185   0.629  -0.986  0.00  0.00    +0.033 C 
ENDBRANCH  34  38
ENDBRANCH  32  34
ENDBRANCH  31  32
ENDBRANCH   1  31
TORSDOF 10
