REMARK  Name = ZINC11898497
REMARK  7 active torsions:
REMARK  status: ('A' for Active; 'I' for Inactive)
REMARK    1  A    between atoms: C_1  and  N_2
REMARK    2  A    between atoms: C_6  and  C_7
REMARK    3  A    between atoms: C_7  and  C_9
REMARK    4  A    between atoms: C_7  and  N_56
REMARK    5  A    between atoms: C_9  and  N_10
REMARK    6  A    between atoms: C_11  and  C_13
REMARK    7  A    between atoms: N_15  and  C_16
REMARK                            x       y       z     vdW  Elec       q    Type
REMARK                         _______ _______ _______ _____ _____    ______ ____
ROOT
ATOM      1  C   UNL     1       5.784   4.250   0.070  0.00  0.00    -0.003 C 
ENDROOT
BRANCH   1  11
ATOM      2  C   UNL     1       3.717   4.558  -1.157  0.00  0.00    -0.073 C 
ATOM      3  C   UNL     1       2.594   3.762  -1.823  0.00  0.00    +0.017 C 
ATOM      4  C   UNL     1       1.848   2.960  -0.787  0.00  0.00    -0.048 A 
ATOM      5  C   UNL     1       0.599   2.457  -1.115  0.00  0.00    +0.004 A 
ATOM      6  C   UNL     1      -0.119   1.718  -0.195  0.00  0.00    +0.000 A 
ATOM      7  C   UNL     1       0.417   1.469   1.055  0.00  0.00    +0.000 A 
ATOM      8  C   UNL     1       1.661   1.970   1.382  0.00  0.00    +0.002 A 
ATOM      9  C   UNL     1       2.380   2.719   0.461  0.00  0.00    -0.061 A 
ATOM     10  C   UNL     1       3.730   3.249   0.867  0.00  0.00    -0.042 C 
ATOM     11  N   UNL     1       4.504   3.622  -0.330  0.00  0.00    +0.389 N 
ATOM     12  H   UNL     1       4.704   2.776  -0.877  0.00  0.00    -0.080 HD
ENDBRANCH   1  11
BRANCH   1  18
ATOM     13  C   UNL     1       7.923   6.220   1.146  0.00  0.00    +0.148 C 
ATOM     14  N   UNL     1       6.475   6.379   1.306  0.00  0.00    -0.355 N 
ATOM     15  C   UNL     1       5.855   7.412   1.945  0.00  0.00    +0.085 A 
ATOM     16  C   UNL     1       4.524   7.203   1.890  0.00  0.00    +0.019 A 
ATOM     17  C   UNL     1       4.314   6.001   1.187  0.00  0.00    +0.021 A 
ATOM     18  C   UNL     1       5.525   5.520   0.839  0.00  0.00    +0.006 A 
ENDBRANCH   1  18
BRANCH   1  19
ATOM     19  C   UNL     1       6.567   3.273   0.950  0.00  0.00    +0.095 C 
BRANCH  19  20
ATOM     20  N   UNL     1       6.673   1.980   0.269  0.00  0.00    -0.309 N 
ATOM     21  C   UNL     1       7.236   0.930   0.899  0.00  0.00    +0.299 C 
ATOM     22  O   UNL     1       7.655   1.056   2.031  0.00  0.00    -0.265 OA
ATOM     23  H   UNL     1       6.338   1.879  -0.636  0.00  0.00    +0.149 HD
BRANCH  21  24
ATOM     24  C   UNL     1       7.343  -0.388   0.205  0.00  0.00    +0.303 C 
ATOM     25  O   UNL     1       6.923  -0.514  -0.926  0.00  0.00    -0.265 OA
ATOM     26  N   UNL     1       7.906  -1.438   0.836  0.00  0.00    -0.276 N 
ATOM     27  H   UNL     1       8.168  -1.361   1.767  0.00  0.00    +0.155 HD
BRANCH  26  28
ATOM     28  C   UNL     1       8.112  -2.637   0.149  0.00  0.00    +0.052 A 
ATOM     29  C   UNL     1       8.137  -2.648  -1.240  0.00  0.00    +0.025 A 
ATOM     30  C   UNL     1       8.347  -3.834  -1.916  0.00  0.00    +0.002 A 
ATOM     31  C   UNL     1       8.521  -5.012  -1.212  0.00  0.00    +0.002 A 
ATOM     32  C   UNL     1       8.491  -5.007   0.170  0.00  0.00    +0.022 A 
ATOM     33  C   UNL     1       8.287  -3.823   0.854  0.00  0.00    +0.062 A 
ATOM     34 CL   UNL     1       8.249  -3.816   2.589  0.00  0.00    -0.082 Cl
ENDBRANCH  26  28
ENDBRANCH  21  24
ENDBRANCH  19  20
ENDBRANCH   1  19
TORSDOF 6
