REMARK  Name = ZINC22531476
REMARK  8 active torsions:
REMARK  status: ('A' for Active; 'I' for Inactive)
REMARK    1  A    between atoms: C_1  and  C_2
REMARK    2  A    between atoms: C_2  and  C_3
REMARK    3  A    between atoms: C_2  and  O_4
REMARK    4  A    between atoms: O_4  and  C_5
REMARK    5  A    between atoms: C_8  and  C_11
REMARK    6  A    between atoms: C_18  and  N_31
REMARK    7  A    between atoms: C_19  and  C_29
REMARK    8  A    between atoms: C_20  and  C_22
REMARK                            x       y       z     vdW  Elec       q    Type
REMARK                         _______ _______ _______ _____ _____    ______ ____
ROOT
ATOM      1  C   UNL     1      -2.339  -5.209  -2.872  0.00  0.00    +0.100 A 
ATOM      2  C   UNL     1      -3.318  -6.162  -2.577  0.00  0.00    +0.054 A 
ATOM      3  C   UNL     1      -3.240  -7.152  -3.514  0.00  0.00    +0.223 A 
ATOM      4  N   UNL     1      -2.245  -6.832  -4.367  0.00  0.00    -0.246 N 
ATOM      5  H   UNL     1      -1.962  -7.354  -5.134  0.00  0.00    +0.192 HD
ATOM      6  N   UNL     1      -1.696  -5.609  -3.953  0.00  0.00    -0.171 NA
ATOM      7  O   UNL     1      -4.062  -8.231  -3.509  0.00  0.00    -0.423 OA
ATOM      8  C   UNL     1      -5.152  -8.183  -2.716  0.00  0.00    +0.200 C 
ATOM      9  C   UNL     1      -5.336  -7.259  -1.747  0.00  0.00    +0.098 C 
ATOM     10  C   UNL     1      -4.321  -6.182  -1.453  0.00  0.00    +0.103 C 
ENDROOT
BRANCH  10  11
ATOM     11  C   UNL     1      -3.621  -6.483  -0.152  0.00  0.00    -0.021 A 
ATOM     12  C   UNL     1      -2.924  -7.667  -0.000  0.00  0.00    +0.005 A 
ATOM     13  C   UNL     1      -2.282  -7.943   1.192  0.00  0.00    +0.000 A 
ATOM     14  C   UNL     1      -2.337  -7.035   2.234  0.00  0.00    +0.001 A 
ATOM     15  C   UNL     1      -3.034  -5.851   2.082  0.00  0.00    +0.015 A 
ATOM     16  C   UNL     1      -3.672  -5.572   0.887  0.00  0.00    +0.022 A 
ATOM     17 BR   UNL     1      -4.620  -3.949   0.677  0.00  0.00    -0.050 Br
ENDBRANCH  10  11
BRANCH   1  21
ATOM     18  C   UNL     1      -1.581  -1.639  -0.686  0.00  0.00    +0.121 A 
ATOM     19  C   UNL     1      -0.529  -2.327  -1.275  0.00  0.00    +0.046 A 
ATOM     20  C   UNL     1      -0.772  -3.485  -1.985  0.00  0.00    +0.013 A 
ATOM     21  C   UNL     1      -2.074  -3.964  -2.109  0.00  0.00    +0.003 A 
ATOM     22  C   UNL     1      -3.128  -3.271  -1.516  0.00  0.00    +0.013 A 
ATOM     23  C   UNL     1      -2.879  -2.116  -0.804  0.00  0.00    +0.046 A 
BRANCH  18  24
ATOM     24  O   UNL     1      -1.339  -0.499   0.012  0.00  0.00    -0.489 OA
BRANCH  24  26
ATOM     25  C   UNL     1      -0.014   1.508   0.257  0.00  0.00    +0.051 C 
ATOM     26  C   UNL     1       0.000   0.001  -0.005  0.00  0.00    +0.167 C 
ATOM     27  C   UNL     1       0.819  -0.698   1.082  0.00  0.00    +0.051 C 
ENDBRANCH  24  26
ENDBRANCH  18  24
ENDBRANCH   1  21
BRANCH   8  28
ATOM     28  N   UNL     1      -6.131  -9.126  -2.905  0.00  0.00    -0.328 N 
ATOM     29  H   UNL     1      -6.027  -9.802  -3.593  0.00  0.00    +0.145 HD
ATOM     30  H   UNL     1      -6.926  -9.117  -2.350  0.00  0.00    +0.145 HD
ENDBRANCH   8  28
BRANCH   9  31
ATOM     31  C   UNL     1      -6.538  -7.304  -0.970  0.00  0.00    +0.101 C 
ATOM     32  N   UNL     1      -7.492  -7.340  -0.354  0.00  0.00    -0.191 NA
ENDBRANCH   9  31
TORSDOF 6
