REMARK  Name = ZINC66856624
REMARK  8 active torsions:
REMARK  status: ('A' for Active; 'I' for Inactive)
REMARK    1  A    between atoms: C_1  and  S_2
REMARK    2  A    between atoms: S_2  and  C_3
REMARK    3  A    between atoms: C_3  and  C_4
REMARK    4  A    between atoms: C_4  and  C_5
REMARK    5  A    between atoms: C_5  and  C_7
REMARK    6  A    between atoms: C_5  and  N_25
REMARK    7  A    between atoms: N_9  and  C_10
REMARK    8  A    between atoms: C_13  and  C_16
REMARK                            x       y       z     vdW  Elec       q    Type
REMARK                         _______ _______ _______ _____ _____    ______ ____
ROOT
ATOM      1  C   UNL     1      -2.934  -3.924  -0.164  0.00  0.00    +0.238 C 
ATOM      2  O   UNL     1      -2.634  -4.644   0.764  0.00  0.00    -0.273 OA
ATOM      3  N   UNL     1      -3.373  -4.460  -1.320  0.00  0.00    -0.284 N 
ATOM      4  H   UNL     1      -3.676  -3.883  -2.038  0.00  0.00    +0.155 HD
ENDROOT
BRANCH   3   5
ATOM      5  C   UNL     1      -3.393  -5.848  -1.483  0.00  0.00    +0.033 A 
ATOM      6  C   UNL     1      -3.694  -6.669  -0.402  0.00  0.00    +0.024 A 
ATOM      7  C   UNL     1      -3.714  -8.038  -0.559  0.00  0.00    +0.013 A 
ATOM      8  C   UNL     1      -3.432  -8.600  -1.805  0.00  0.00    +0.019 A 
ATOM      9  C   UNL     1      -3.130  -7.773  -2.889  0.00  0.00    +0.013 A 
ATOM     10  C   UNL     1      -3.117  -6.405  -2.726  0.00  0.00    +0.024 A 
BRANCH   8  11
ATOM     11  C   UNL     1      -3.452 -10.069  -1.978  0.00  0.00    +0.164 A 
ATOM     12  N   UNL     1      -2.913 -10.752  -2.967  0.00  0.00    -0.129 NA
ATOM     13  N   UNL     1      -3.124 -12.012  -2.793  0.00  0.00    -0.134 NA
ATOM     14  C   UNL     1      -3.798 -12.200  -1.699  0.00  0.00    +0.134 A 
ATOM     15  N   UNL     1      -4.026 -10.976  -1.142  0.00  0.00    -0.311 N 
ATOM     16  C   UNL     1      -4.753 -10.748   0.105  0.00  0.00    +0.125 C 
ATOM     17  C   UNL     1      -5.556 -12.010   0.444  0.00  0.00    +0.022 C 
ATOM     18  C   UNL     1      -4.641 -13.236   0.372  0.00  0.00    +0.009 C 
ATOM     19  C   UNL     1      -4.267 -13.500  -1.095  0.00  0.00    +0.076 C 
ENDBRANCH   8  11
ENDBRANCH   3   5
BRANCH   1  20
ATOM     20  C   UNL     1      -2.815  -2.428  -0.026  0.00  0.00    +0.161 C 
BRANCH  20  21
ATOM     21  N   UNL     1      -2.791  -2.069   1.395  0.00  0.00    -0.288 N 
ATOM     22  C   UNL     1      -1.818  -2.549   2.194  0.00  0.00    +0.298 C 
ATOM     23  O   UNL     1      -0.960  -3.278   1.737  0.00  0.00    -0.253 OA
ATOM     24  N   UNL     1      -1.796  -2.219   3.501  0.00  0.00    -0.313 N 
ATOM     25  H   UNL     1      -3.476  -1.487   1.760  0.00  0.00    +0.151 HD
ATOM     26  H   UNL     1      -2.481  -1.637   3.866  0.00  0.00    +0.146 HD
ATOM     27  H   UNL     1      -1.095  -2.564   4.076  0.00  0.00    +0.146 HD
ENDBRANCH  20  21
BRANCH  20  28
ATOM     28  C   UNL     1      -1.522  -1.954  -0.693  0.00  0.00    +0.042 C 
BRANCH  28  29
ATOM     29  C   UNL     1      -1.462  -0.426  -0.662  0.00  0.00    +0.071 C 
BRANCH  29  31
ATOM     30  C   UNL     1      -0.011   1.944  -1.335  0.00  0.00    +0.084 C 
ATOM     31  S   UNL     1       0.071   0.135  -1.453  0.00  0.00    -0.164 S 
ENDBRANCH  29  31
ENDBRANCH  28  29
ENDBRANCH  20  28
ENDBRANCH   1  20
TORSDOF 7
