REMARK  Name = ZINC64636562
REMARK  4 active torsions:
REMARK  status: ('A' for Active; 'I' for Inactive)
REMARK    1  A    between atoms: C_6  and  C_11
REMARK    2  A    between atoms: C_11  and  N_12
REMARK    3  A    between atoms: C_15  and  N_18
REMARK    4  A    between atoms: C_20  and  C_23
REMARK                            x       y       z     vdW  Elec       q    Type
REMARK                         _______ _______ _______ _____ _____    ______ ____
ROOT
ATOM      1  N   UNL     1       5.120  -2.530  -1.336  0.00  0.00    -0.300 NA
ATOM      2  C   UNL     1       5.786  -3.297  -0.275  0.00  0.00    +0.086 C 
ATOM      3  C   UNL     1       7.292  -3.029  -0.317  0.00  0.00    +0.039 C 
ATOM      4  C   UNL     1       7.839  -3.437  -1.688  0.00  0.00    +0.094 C 
ATOM      5  C   UNL     1       7.096  -2.659  -2.778  0.00  0.00    +0.039 C 
ATOM      6  C   UNL     1       5.596  -2.938  -2.664  0.00  0.00    +0.086 C 
ENDROOT
BRANCH   4   7
ATOM      7  N   UNL     1       9.270  -3.128  -1.755  0.00  0.00    -0.253 N 
ATOM      8  C   UNL     1      10.275  -4.038  -1.974  0.00  0.00    +0.119 C 
ATOM      9  C   UNL     1      11.454  -3.381  -1.969  0.00  0.00    +0.120 C 
ATOM     10  N   UNL     1      11.179  -2.014  -1.739  0.00  0.00    -0.259 N 
ATOM     11  N   UNL     1       9.823  -1.888  -1.616  0.00  0.00    -0.160 NA
ATOM     12  H   UNL     1      11.831  -1.298  -1.682  0.00  0.00    +0.168 HD
ATOM     13  H   UNL     1       9.454  -1.248  -2.304  0.00  0.00    +0.168 HD
BRANCH   9  14
ATOM     14  C   UNL     1      12.775  -3.975  -2.165  0.00  0.00    +0.263 C 
ATOM     15  O   UNL     1      13.018  -5.080  -1.715  0.00  0.00    -0.269 OA
ATOM     16  N   UNL     1      13.723  -3.300  -2.844  0.00  0.00    -0.292 N 
ATOM     17  C   UNL     1      15.032  -3.910  -3.127  0.00  0.00    +0.136 C 
ATOM     18  C   UNL     1      15.326  -3.750  -4.623  0.00  0.00    +0.179 C 
ATOM     19  O   UNL     1      15.175  -2.376  -4.988  0.00  0.00    -0.377 OA
ATOM     20  C   UNL     1      13.851  -1.865  -4.810  0.00  0.00    +0.179 C 
ATOM     21  C   UNL     1      13.479  -1.932  -3.328  0.00  0.00    +0.136 C 
ENDBRANCH   9  14
ENDBRANCH   4   7
BRANCH   1  22
ATOM     22  C   UNL     1       3.660  -2.654  -1.238  0.00  0.00    +0.113 C 
BRANCH  22  28
ATOM     23  C   UNL     1       0.071   1.452   0.251  0.00  0.00    +0.001 A 
ATOM     24  C   UNL     1       1.265   2.187   0.273  0.00  0.00    +0.002 A 
ATOM     25  C   UNL     1       2.481   1.603   0.233  0.00  0.00    +0.026 A 
ATOM     26  C   UNL     1       2.597   0.187   0.164  0.00  0.00    +0.043 A 
ATOM     27  N   UNL     1       3.642  -0.603   0.115  0.00  0.00    -0.377 N 
ATOM     28  C   UNL     1       3.177  -1.992   0.054  0.00  0.00    +0.117 C 
ATOM     29  C   UNL     1       1.666  -1.925   0.073  0.00  0.00    +0.008 C 
ATOM     30  C   UNL     1       1.350  -0.612   0.140  0.00  0.00    -0.004 A 
ATOM     31  C   UNL     1       0.068   0.102   0.187  0.00  0.00    +0.010 A 
ATOM     32  H   UNL     1       4.569  -0.316   0.118  0.00  0.00    +0.160 HD
ENDBRANCH  22  28
ENDBRANCH   1  22
TORSDOF 4
