REMARK  Name = ZINC12293332
REMARK  6 active torsions:
REMARK  status: ('A' for Active; 'I' for Inactive)
REMARK    1  A    between atoms: C_1  and  C_2
REMARK    2  A    between atoms: C_8  and  O_27
REMARK    3  A    between atoms: C_17  and  C_18
REMARK    4  A    between atoms: C_17  and  N_53
REMARK    5  A    between atoms: C_18  and  C_20
REMARK    6  A    between atoms: C_18  and  O_26
REMARK                            x       y       z     vdW  Elec       q    Type
REMARK                         _______ _______ _______ _____ _____    ______ ____
ROOT
ATOM      1  C   UNL     1       1.230   0.318   4.176  0.00  0.00    +0.044 C 
ATOM      2  C   UNL     1       0.330   0.578   2.995  0.00  0.00    -0.050 A 
ATOM      3  C   UNL     1      -0.884   1.214   3.178  0.00  0.00    +0.007 A 
ATOM      4  C   UNL     1      -1.706   1.453   2.096  0.00  0.00    +0.046 A 
ATOM      5  C   UNL     1      -1.317   1.058   0.820  0.00  0.00    +0.127 A 
ATOM      6  C   UNL     1      -0.103   0.419   0.641  0.00  0.00    +0.023 A 
ATOM      7  C   UNL     1       0.718   0.182   1.730  0.00  0.00    +0.013 A 
ATOM      8  C   UNL     1       0.354  -0.032  -0.724  0.00  0.00    +0.152 C 
ATOM      9  C   UNL     1      -0.443   0.707  -1.802  0.00  0.00    +0.084 C 
ATOM     10  C   UNL     1      -1.931   0.624  -1.446  0.00  0.00    +0.110 C 
ATOM     11  O   UNL     1      -2.148   1.323  -0.222  0.00  0.00    -0.485 OA
ATOM     12  C   UNL     1      -2.758   1.263  -2.563  0.00  0.00    +0.029 C 
ATOM     13  C   UNL     1      -4.247   1.121  -2.235  0.00  0.00    -0.075 C 
ATOM     14  C   UNL     1      -3.839  -0.922  -0.996  0.00  0.00    -0.075 C 
ATOM     15  C   UNL     1      -2.338  -0.842  -1.286  0.00  0.00    +0.029 C 
ATOM     16  N   UNL     1      -4.578  -0.316  -2.123  0.00  0.00    +0.382 N 
ATOM     17  H   UNL     1      -4.305  -0.789  -2.993  0.00  0.00    -0.082 HD
ENDROOT
BRANCH   8  18
ATOM     18  O   UNL     1       1.745   0.258  -0.879  0.00  0.00    -0.387 OA
ATOM     19  H   UNL     1       2.312  -0.178  -0.228  0.00  0.00    +0.210 HD
ENDBRANCH   8  18
BRANCH  16  20
ATOM     20  C   UNL     1      -6.032  -0.484  -1.922  0.00  0.00    -0.042 C 
BRANCH  20  21
ATOM     21  C   UNL     1      -6.778   0.253  -3.036  0.00  0.00    +0.128 C 
BRANCH  21  22
ATOM     22  C   UNL     1      -8.261   0.041  -2.873  0.00  0.00    -0.021 A 
ATOM     23  C   UNL     1      -8.844  -1.132  -3.313  0.00  0.00    +0.006 A 
ATOM     24  C   UNL     1     -10.204  -1.329  -3.159  0.00  0.00    +0.000 A 
ATOM     25  C   UNL     1     -10.982  -0.347  -2.574  0.00  0.00    +0.000 A 
ATOM     26  C   UNL     1     -10.400   0.828  -2.138  0.00  0.00    +0.000 A 
ATOM     27  C   UNL     1      -9.040   1.022  -2.287  0.00  0.00    +0.006 A 
ENDBRANCH  21  22
BRANCH  21  28
ATOM     28  O   UNL     1      -6.361  -0.253  -4.305  0.00  0.00    -0.389 OA
ATOM     29  H   UNL     1      -6.529  -1.198  -4.426  0.00  0.00    +0.210 HD
ENDBRANCH  21  28
ENDBRANCH  20  21
ENDBRANCH  16  20
TORSDOF 5
