REMARK  Name = ZINC36899494
REMARK  3 active torsions:
REMARK  status: ('A' for Active; 'I' for Inactive)
REMARK    1  A    between atoms: C_1  and  C_2
REMARK    2  A    between atoms: C_4  and  C_19
REMARK    3  A    between atoms: C_6  and  N_8
REMARK                            x       y       z     vdW  Elec       q    Type
REMARK                         _______ _______ _______ _____ _____    ______ ____
ROOT
ATOM      1  N   UNL     1       0.052  -2.798   2.395  0.00  0.00    -0.281 N 
ATOM      2  C   UNL     1      -0.957  -2.826   3.346  0.00  0.00    +0.075 A 
ATOM      3  C   UNL     1      -2.206  -2.231   3.440  0.00  0.00    +0.029 A 
ATOM      4  C   UNL     1      -2.996  -2.463   4.547  0.00  0.00    +0.017 A 
ATOM      5  C   UNL     1      -2.549  -3.289   5.568  0.00  0.00    +0.020 A 
ATOM      6  C   UNL     1      -1.311  -3.888   5.491  0.00  0.00    +0.045 A 
ATOM      7  C   UNL     1      -0.499  -3.663   4.377  0.00  0.00    +0.092 A 
ATOM      8  N   UNL     1       0.738  -4.098   4.020  0.00  0.00    -0.214 NA
ATOM      9  C   UNL     1       1.063  -3.597   2.854  0.00  0.00    +0.199 A 
ATOM     10  N   UNL     1       2.248  -3.837   2.191  0.00  0.00    -0.329 N 
ATOM     11 BR   UNL     1      -3.647  -3.594   7.077  0.00  0.00    -0.050 Br
ATOM     12  H   UNL     1       2.413  -3.423   1.329  0.00  0.00    +0.145 HD
ATOM     13  H   UNL     1       2.916  -4.418   2.586  0.00  0.00    +0.145 HD
ENDROOT
BRANCH   1  19
ATOM     14  C   UNL     1      -0.018   1.503   0.010  0.00  0.00    +0.044 C 
ATOM     15  C   UNL     1       0.002  -0.004   0.002  0.00  0.00    -0.048 A 
ATOM     16  C   UNL     1       0.006  -0.688  -1.200  0.00  0.00    +0.006 A 
ATOM     17  C   UNL     1       0.025  -2.071  -1.211  0.00  0.00    -0.048 A 
ATOM     18  C   UNL     1       0.040  -2.773  -0.022  0.00  0.00    +0.029 A 
ATOM     19  C   UNL     1       0.037  -2.089   1.186  0.00  0.00    +0.050 A 
ATOM     20  C   UNL     1       0.023  -0.700   1.195  0.00  0.00    +0.029 A 
ATOM     21  C   UNL     1       0.028  -2.812  -2.523  0.00  0.00    +0.044 C 
ENDBRANCH   1  19
TORSDOF 1
