REMARK  Name = ZINC36590034
REMARK  15 active torsions:
REMARK  status: ('A' for Active; 'I' for Inactive)
REMARK    1  A    between atoms: C_1  and  C_2
REMARK    2  A    between atoms: C_2  and  C_3
REMARK    3  A    between atoms: C_3  and  C_4
REMARK    4  A    between atoms: C_4  and  N_5
REMARK    5  A    between atoms: C_6  and  C_8
REMARK    6  A    between atoms: C_8  and  C_10
REMARK    7  A    between atoms: C_8  and  N_19
REMARK    8  A    between atoms: C_11  and  O_18
REMARK    9  A    between atoms: C_13  and  O_17
REMARK   10  A    between atoms: C_15  and  O_16
REMARK   11  A    between atoms: N_19  and  C_24
REMARK   12  A    between atoms: C_20  and  C_22
REMARK   13  A    between atoms: C_24  and  C_25
REMARK   14  A    between atoms: C_24  and  C_26
REMARK   15  A    between atoms: C_24  and  C_27
REMARK                            x       y       z     vdW  Elec       q    Type
REMARK                         _______ _______ _______ _____ _____    ______ ____
ROOT
ATOM      1  C   UNL     1       2.263  -4.787   3.477  0.00  0.00    +0.200 C 
ENDROOT
BRANCH   1   2
ATOM      2  C   UNL     1       0.825  -4.382   3.673  0.00  0.00    +0.065 A 
ATOM      3  C   UNL     1      -0.175  -4.995   2.934  0.00  0.00    +0.129 A 
ATOM      4  C   UNL     1      -1.499  -4.623   3.114  0.00  0.00    +0.091 A 
ATOM      5  C   UNL     1      -1.822  -3.637   4.035  0.00  0.00    +0.124 A 
ATOM      6  C   UNL     1      -0.822  -3.025   4.775  0.00  0.00    +0.091 A 
ATOM      7  C   UNL     1       0.501  -3.401   4.598  0.00  0.00    +0.129 A 
BRANCH   7   8
ATOM      8  O   UNL     1       1.480  -2.804   5.326  0.00  0.00    -0.506 OA
ATOM      9  H   UNL     1       1.852  -2.013   4.912  0.00  0.00    +0.292 HD
ENDBRANCH   7   8
BRANCH   5  10
ATOM     10  O   UNL     1      -3.119  -3.272   4.212  0.00  0.00    -0.507 OA
ATOM     11  H   UNL     1      -3.583  -3.781   4.890  0.00  0.00    +0.292 HD
ENDBRANCH   5  10
BRANCH   3  12
ATOM     12  O   UNL     1       0.142  -5.961   2.031  0.00  0.00    -0.506 OA
ATOM     13  H   UNL     1       0.179  -6.852   2.406  0.00  0.00    +0.292 HD
ENDBRANCH   3  12
ENDBRANCH   1   2
BRANCH   1  15
ATOM     14  N   UNL     1       4.255  -3.731   2.459  0.00  0.00    -0.313 N 
ATOM     15  C   UNL     1       2.914  -3.862   2.481  0.00  0.00    +0.238 C 
ATOM     16  O   UNL     1       2.231  -3.236   1.698  0.00  0.00    -0.273 OA
ATOM     17  H   UNL     1       4.801  -4.231   3.085  0.00  0.00    +0.149 HD
BRANCH  14  18
ATOM     18  C   UNL     1       4.888  -2.831   1.491  0.00  0.00    +0.104 C 
BRANCH  18  19
ATOM     19  C   UNL     1       6.406  -2.867   1.678  0.00  0.00    +0.018 C 
BRANCH  19  21
ATOM     20  C   UNL     1       8.584  -1.964   0.854  0.00  0.00    +0.004 C 
ATOM     21  C   UNL     1       7.066  -1.928   0.667  0.00  0.00    -0.002 C 
ENDBRANCH  19  21
ENDBRANCH  18  19
ENDBRANCH  14  18
ENDBRANCH   1  15
BRANCH   1  22
ATOM     22  N   UNL     1       2.319  -6.162   2.975  0.00  0.00    -0.280 N 
ATOM     23  C   UNL     1       2.113  -6.411   1.667  0.00  0.00    +0.232 C 
ATOM     24  O   UNL     1       2.152  -7.550   1.252  0.00  0.00    -0.274 OA
BRANCH  22  25
ATOM     25  C   UNL     1       2.600  -7.267   3.895  0.00  0.00    +0.030 C 
ATOM     26  C   UNL     1       2.691  -6.729   5.325  0.00  0.00    +0.031 C 
ATOM     27  C   UNL     1       1.474  -8.300   3.810  0.00  0.00    +0.031 C 
ATOM     28  C   UNL     1       3.926  -7.926   3.512  0.00  0.00    +0.031 C 
ENDBRANCH  22  25
BRANCH  23  29
ATOM     29  C   UNL     1       1.832  -5.274   0.718  0.00  0.00    +0.204 C 
ATOM     30 CL   UNL     1       1.396  -5.936  -0.901  0.00  0.00    -0.116 Cl
ENDBRANCH  23  29
ENDBRANCH   1  22
TORSDOF 11
