REMARK  Name = ZINC59640078
REMARK  8 active torsions:
REMARK  status: ('A' for Active; 'I' for Inactive)
REMARK    1  A    between atoms: C_1  and  C_2
REMARK    2  A    between atoms: C_2  and  O_3
REMARK    3  A    between atoms: O_3  and  C_4
REMARK    4  A    between atoms: C_6  and  C_12
REMARK    5  A    between atoms: C_9  and  O_10
REMARK    6  A    between atoms: N_13  and  N_14
REMARK    7  A    between atoms: C_19  and  N_21
REMARK    8  A    between atoms: N_21  and  C_22
REMARK                            x       y       z     vdW  Elec       q    Type
REMARK                         _______ _______ _______ _____ _____    ______ ____
ROOT
ATOM      1  C   UNL     1      -0.201  -4.958  -0.505  0.00  0.00    +0.138 C 
ATOM      2  N   UNL     1      -0.094  -6.244  -0.361  0.00  0.00    -0.188 NA
ENDROOT
BRANCH   2   3
ATOM      3  N   UNL     1      -0.641  -7.104  -1.323  0.00  0.00    -0.205 N 
ATOM      4  C   UNL     1      -0.528  -8.476  -1.169  0.00  0.00    +0.237 A 
ATOM      5  N   UNL     1       0.097  -8.957  -0.105  0.00  0.00    -0.219 NA
ATOM      6  C   UNL     1       0.225 -10.264   0.078  0.00  0.00    +0.156 A 
ATOM      7  C   UNL     1      -0.302 -11.132  -0.860  0.00  0.00    +0.181 A 
ATOM      8  C   UNL     1      -0.955 -10.594  -1.973  0.00  0.00    +0.159 A 
ATOM      9  N   UNL     1      -1.051  -9.274  -2.089  0.00  0.00    -0.195 NA
ATOM     10  F   UNL     1      -0.188 -12.469  -0.705  0.00  0.00    -0.200 F 
ATOM     11  H   UNL     1      -1.099  -6.739  -2.096  0.00  0.00    +0.177 HD
BRANCH   8  12
ATOM     12  N   UNL     1      -1.499 -11.426  -2.940  0.00  0.00    -0.330 N 
ATOM     13  C   UNL     1      -2.181 -10.851  -4.102  0.00  0.00    +0.127 C 
ATOM     14  H   UNL     1      -1.428 -12.389  -2.847  0.00  0.00    +0.147 HD
ENDBRANCH   8  12
ENDBRANCH   2   3
BRANCH   1  17
ATOM     15  C   UNL     1       0.802  -1.825   1.306  0.00  0.00    +0.163 A 
ATOM     16  C   UNL     1       0.261  -2.669   0.354  0.00  0.00    +0.059 A 
ATOM     17  C   UNL     1       0.375  -4.053   0.507  0.00  0.00    -0.001 A 
ATOM     18  C   UNL     1       1.034  -4.578   1.621  0.00  0.00    +0.027 A 
ATOM     19  C   UNL     1       1.572  -3.729   2.567  0.00  0.00    +0.059 A 
ATOM     20  C   UNL     1       1.463  -2.354   2.411  0.00  0.00    +0.172 A 
ATOM     21  I   UNL     1       2.560  -4.518   4.237  0.00  0.00    -0.040 I 
BRANCH  20  22
ATOM     22  O   UNL     1       1.999  -1.522   3.343  0.00  0.00    -0.503 OA
ATOM     23  H   UNL     1       1.394  -1.294   4.062  0.00  0.00    +0.292 HD
ENDBRANCH  20  22
BRANCH  15  24
ATOM     24  O   UNL     1       0.693  -0.477   1.160  0.00  0.00    -0.489 OA
BRANCH  24  26
ATOM     25  C   UNL     1      -0.019   1.526   0.010  0.00  0.00    +0.048 C 
ATOM     26  C   UNL     1       0.002  -0.004   0.002  0.00  0.00    +0.226 C 
ENDBRANCH  24  26
ENDBRANCH  15  24
ENDBRANCH   1  17
TORSDOF 6
