REMARK  Name = ZINC09308595
REMARK  7 active torsions:
REMARK  status: ('A' for Active; 'I' for Inactive)
REMARK    1  A    between atoms: C_4  and  C_7
REMARK    2  A    between atoms: C_7  and  O_8
REMARK    3  A    between atoms: O_8  and  C_9
REMARK    4  A    between atoms: C_12  and  C_15
REMARK    5  A    between atoms: C_22  and  N_34
REMARK    6  A    between atoms: C_23  and  C_32
REMARK    7  A    between atoms: C_24  and  C_26
REMARK                            x       y       z     vdW  Elec       q    Type
REMARK                         _______ _______ _______ _____ _____    ______ ____
ROOT
ATOM      1  C   UNL     1       8.934  -3.660   1.958  0.00  0.00    +0.074 A 
ATOM      2  C   UNL     1       9.234  -4.610   2.876  0.00  0.00    +0.054 A 
ATOM      3  C   UNL     1      10.572  -5.002   2.678  0.00  0.00    +0.245 A 
ATOM      4  N   UNL     1      11.057  -4.315   1.683  0.00  0.00    -0.135 NA
ATOM      5  N   UNL     1      10.053  -3.463   1.199  0.00  0.00    -0.273 N 
ATOM      6  H   UNL     1      10.138  -2.843   0.458  0.00  0.00    +0.189 HD
ATOM      7  O   UNL     1      11.167  -5.951   3.451  0.00  0.00    -0.421 OA
ATOM      8  C   UNL     1      10.370  -6.703   4.235  0.00  0.00    +0.201 C 
ATOM      9  C   UNL     1       9.078  -6.421   4.506  0.00  0.00    +0.098 C 
ATOM     10  C   UNL     1       8.370  -5.209   3.956  0.00  0.00    +0.103 C 
ENDROOT
BRANCH   1  14
ATOM     11  C   UNL     1       5.202  -1.676   1.509  0.00  0.00    +0.121 A 
ATOM     12  C   UNL     1       6.381  -0.942   1.512  0.00  0.00    +0.046 A 
ATOM     13  C   UNL     1       7.593  -1.582   1.658  0.00  0.00    +0.013 A 
ATOM     14  C   UNL     1       7.635  -2.969   1.802  0.00  0.00    +0.000 A 
ATOM     15  C   UNL     1       6.448  -3.704   1.798  0.00  0.00    +0.013 A 
ATOM     16  C   UNL     1       5.239  -3.056   1.657  0.00  0.00    +0.046 A 
BRANCH  11  17
ATOM     17  O   UNL     1       4.009  -1.041   1.365  0.00  0.00    -0.487 OA
BRANCH  17  18
ATOM     18  C   UNL     1       4.044   0.380   1.217  0.00  0.00    +0.264 C 
BRANCH  18  22
ATOM     19  C   UNL     1       0.061   1.868   0.804  0.00  0.00    +0.000 A 
ATOM     20  C   UNL     1       0.629   1.752   2.059  0.00  0.00    +0.000 A 
ATOM     21  C   UNL     1       1.918   1.270   2.193  0.00  0.00    +0.007 A 
ATOM     22  C   UNL     1       2.638   0.904   1.071  0.00  0.00    -0.010 A 
ATOM     23  C   UNL     1       2.070   1.019  -0.183  0.00  0.00    +0.007 A 
ATOM     24  C   UNL     1       0.782   1.502  -0.317  0.00  0.00    +0.000 A 
ENDBRANCH  18  22
ENDBRANCH  17  18
ENDBRANCH  11  17
ENDBRANCH   1  14
BRANCH  10  25
ATOM     25  C   UNL     1       8.158  -4.200   5.055  0.00  0.00    -0.016 A 
ATOM     26  C   UNL     1       6.875  -3.834   5.434  0.00  0.00    +0.007 A 
ATOM     27  C   UNL     1       6.728  -2.903   6.451  0.00  0.00    +0.020 A 
ATOM     28  C   UNL     1       7.857  -2.374   7.048  0.00  0.00    +0.111 A 
ATOM     29  N   UNL     1       9.062  -2.746   6.661  0.00  0.00    -0.263 NA
ATOM     30  C   UNL     1       9.239  -3.634   5.702  0.00  0.00    +0.115 A 
ENDBRANCH  10  25
BRANCH   8  31
ATOM     31  N   UNL     1      10.908  -7.833   4.797  0.00  0.00    -0.328 N 
ATOM     32  H   UNL     1      11.834  -8.067   4.624  0.00  0.00    +0.145 HD
ATOM     33  H   UNL     1      10.364  -8.399   5.367  0.00  0.00    +0.145 HD
ENDBRANCH   8  31
BRANCH   9  34
ATOM     34  C   UNL     1       8.347  -7.314   5.354  0.00  0.00    +0.101 C 
ATOM     35  N   UNL     1       7.767  -8.021   6.028  0.00  0.00    -0.191 NA
ENDBRANCH   9  34
TORSDOF 7
