REMARK  Name = ZINC06997391
REMARK  5 active torsions:
REMARK  status: ('A' for Active; 'I' for Inactive)
REMARK    1  A    between atoms: C_4  and  O_22
REMARK    2  A    between atoms: C_5  and  C_7
REMARK    3  A    between atoms: N_8  and  N_9
REMARK    4  A    between atoms: C_10  and  C_12
REMARK    5  A    between atoms: N_14  and  C_15
REMARK                            x       y       z     vdW  Elec       q    Type
REMARK                         _______ _______ _______ _____ _____    ______ ____
ROOT
ATOM      1  N   UNL     1       2.414  -4.185  -0.050  0.00  0.00    -0.199 N 
ATOM      2  C   UNL     1       3.594  -4.837  -0.067  0.00  0.00    +0.318 C 
ATOM      3  O   UNL     1       4.634  -4.210  -0.082  0.00  0.00    -0.263 OA
ATOM      4  H   UNL     1       1.584  -4.686  -0.037  0.00  0.00    +0.178 HD
ENDROOT
BRANCH   2   5
ATOM      5  C   UNL     1       3.622  -6.328  -0.067  0.00  0.00    +0.305 C 
ATOM      6  O   UNL     1       2.582  -6.954  -0.051  0.00  0.00    -0.265 OA
ATOM      7  N   UNL     1       4.801  -6.980  -0.084  0.00  0.00    -0.278 N 
ATOM      8  H   UNL     1       5.630  -6.481  -0.164  0.00  0.00    +0.155 HD
BRANCH   7   9
ATOM      9  C   UNL     1       4.831  -8.373   0.013  0.00  0.00    +0.037 A 
ATOM     10  C   UNL     1       5.862  -9.001   0.701  0.00  0.00    +0.023 A 
ATOM     11  C   UNL     1       5.889 -10.379   0.796  0.00  0.00    +0.005 A 
ATOM     12  C   UNL     1       4.893 -11.134   0.207  0.00  0.00    +0.038 A 
ATOM     13  C   UNL     1       3.863 -10.513  -0.480  0.00  0.00    +0.125 A 
ATOM     14  C   UNL     1       3.827  -9.133  -0.573  0.00  0.00    +0.061 A 
ATOM     15  F   UNL     1       2.891 -11.254  -1.055  0.00  0.00    -0.205 F 
ENDBRANCH   7   9
ENDBRANCH   2   5
BRANCH   1  17
ATOM     16  C   UNL     1       1.251  -2.156  -0.033  0.00  0.00    +0.142 C 
ATOM     17  N   UNL     1       2.388  -2.784  -0.049  0.00  0.00    -0.187 NA
BRANCH  16  22
ATOM     18  C   UNL     1      -0.016   1.375  -0.016  0.00  0.00    +0.001 A 
ATOM     19  C   UNL     1       1.170   2.090  -0.033  0.00  0.00    +0.004 A 
ATOM     20  C   UNL     1       2.384   1.429  -0.051  0.00  0.00    +0.046 A 
ATOM     21  C   UNL     1       2.422   0.044  -0.050  0.00  0.00    +0.125 A 
ATOM     22  C   UNL     1       1.223  -0.683  -0.033  0.00  0.00    +0.036 A 
ATOM     23  C   UNL     1       0.003  -0.003  -0.015  0.00  0.00    +0.013 A 
BRANCH  21  24
ATOM     24  O   UNL     1       3.614  -0.605  -0.068  0.00  0.00    -0.506 OA
ATOM     25  H   UNL     1       3.972  -0.793   0.810  0.00  0.00    +0.292 HD
ENDBRANCH  21  24
ENDBRANCH  16  22
ENDBRANCH   1  17
TORSDOF 5
