REMARK  Name = ZINC39467577
REMARK  6 active torsions:
REMARK  status: ('A' for Active; 'I' for Inactive)
REMARK    1  A    between atoms: C_1  and  N_2
REMARK    2  A    between atoms: N_2  and  C_3
REMARK    3  A    between atoms: C_3  and  C_4
REMARK    4  A    between atoms: C_14  and  C_16
REMARK    5  A    between atoms: C_16  and  C_17
REMARK    6  A    between atoms: N_24  and  C_25
REMARK                            x       y       z     vdW  Elec       q    Type
REMARK                         _______ _______ _______ _____ _____    ______ ____
ROOT
ATOM      1  C   UNL     1      -0.775  -1.323  -3.813  0.00  0.00    +0.028 C 
ATOM      2  C   UNL     1      -0.517  -0.674  -5.144  0.00  0.00    +0.200 C 
ATOM      3  O   UNL     1       0.497  -0.025  -5.288  0.00  0.00    -0.278 OA
ATOM      4  N   UNL     1      -1.362  -0.783  -6.176  0.00  0.00    -0.318 N 
ATOM      5  C   UNL     1      -2.620  -1.520  -6.089  0.00  0.00    +0.085 C 
ATOM      6  C   UNL     1      -2.594  -2.453  -4.878  0.00  0.00    -0.058 C 
ATOM      7  N   UNL     1      -2.195  -1.678  -3.694  0.00  0.00    +0.391 N 
ATOM      8  H   UNL     1      -1.129  -0.355  -7.015  0.00  0.00    +0.149 HD
ATOM      9  H   UNL     1      -2.749  -0.837  -3.636  0.00  0.00    -0.080 HD
ENDROOT
BRANCH   7  10
ATOM     10  C   UNL     1      -2.399  -2.489  -2.486  0.00  0.00    -0.059 C 
ATOM     11  C   UNL     1      -3.874  -2.923  -2.360  0.00  0.00    +0.020 C 
ATOM     12  C   UNL     1      -4.166  -2.909  -0.874  0.00  0.00    -0.046 A 
ATOM     13  C   UNL     1      -5.195  -3.494  -0.156  0.00  0.00    +0.004 A 
ATOM     14  C   UNL     1      -5.259  -3.344   1.216  0.00  0.00    +0.000 A 
ATOM     15  C   UNL     1      -4.293  -2.606   1.874  0.00  0.00    +0.000 A 
ATOM     16  C   UNL     1      -3.266  -2.021   1.159  0.00  0.00    +0.004 A 
ATOM     17  C   UNL     1      -3.200  -2.171  -0.216  0.00  0.00    -0.046 A 
ATOM     18  C   UNL     1      -2.193  -1.640  -1.214  0.00  0.00    +0.020 C 
ENDBRANCH   7  10
BRANCH   1  19
ATOM     19  C   UNL     1      -0.399  -0.351  -2.693  0.00  0.00    +0.090 C 
BRANCH  19  22
ATOM     20  C   UNL     1      -0.261   1.659  -0.697  0.00  0.00    +0.132 C 
ATOM     21  N   UNL     1      -1.272   1.763  -1.752  0.00  0.00    -0.302 N 
ATOM     22  C   UNL     1      -1.315   0.845  -2.737  0.00  0.00    +0.214 C 
ATOM     23  O   UNL     1      -2.091   0.980  -3.659  0.00  0.00    -0.276 OA
BRANCH  21  24
ATOM     24  C   UNL     1      -2.236   2.866  -1.735  0.00  0.00    +0.140 C 
BRANCH  24  25
ATOM     25  C   UNL     1      -1.615   4.096  -2.399  0.00  0.00    +0.173 C 
ATOM     26  C   UNL     1      -2.654   5.165  -2.623  0.00  0.00    -0.019 C 
ATOM     27  C   UNL     1      -2.694   5.333  -3.949  0.00  0.00    +0.065 C 
ATOM     28  C   UNL     1      -3.615   6.324  -4.626  0.00  0.00    +0.057 C 
ATOM     29  C   UNL     1      -4.715   6.722  -3.635  0.00  0.00    +0.006 C 
ATOM     30  C   UNL     1      -4.083   7.143  -2.305  0.00  0.00    +0.005 C 
ATOM     31  C   UNL     1      -3.483   5.907  -1.618  0.00  0.00    +0.035 C 
ATOM     32  N   UNL     1      -1.812   4.502  -4.548  0.00  0.00    -0.158 NA
ATOM     33  N   UNL     1      -1.168   3.782  -3.770  0.00  0.00    -0.178 NA
ENDBRANCH  24  25
ENDBRANCH  21  24
ENDBRANCH  19  22
ENDBRANCH   1  19
TORSDOF 5
