REMARK  Name = ZINC56159565
REMARK  13 active torsions:
REMARK  status: ('A' for Active; 'I' for Inactive)
REMARK    1  A    between atoms: C_1  and  C_2
REMARK    2  A    between atoms: C_2  and  N_3
REMARK    3  A    between atoms: N_3  and  C_4
REMARK    4  A    between atoms: C_4  and  C_5
REMARK    5  A    between atoms: N_8  and  C_9
REMARK    6  A    between atoms: C_12  and  C_15
REMARK    7  A    between atoms: C_15  and  C_17
REMARK    8  A    between atoms: C_15  and  N_18
REMARK    9  A    between atoms: N_18  and  C_19
REMARK   10  A    between atoms: C_19  and  C_21
REMARK   11  A    between atoms: C_19  and  C_22
REMARK   12  A    between atoms: N_24  and  C_25
REMARK   13  A    between atoms: C_29  and  C_31
REMARK                            x       y       z     vdW  Elec       q    Type
REMARK                         _______ _______ _______ _____ _____    ______ ____
ROOT
ATOM      1  C   UNL     1      -4.109  -1.871  -7.242  0.00  0.00    -0.043 C 
ATOM      2  C   UNL     1      -4.777  -3.246  -7.172  0.00  0.00    -0.009 C 
ENDROOT
BRANCH   1   6
ATOM      3  C   UNL     1      -1.888  -1.179  -3.657  0.00  0.00    +0.035 A 
ATOM      4  C   UNL     1      -1.236  -1.594  -4.811  0.00  0.00    +0.023 A 
ATOM      5  C   UNL     1      -1.956  -1.817  -5.968  0.00  0.00    +0.004 A 
ATOM      6  C   UNL     1      -3.326  -1.627  -5.978  0.00  0.00    -0.062 A 
ATOM      7  C   UNL     1      -3.978  -1.213  -4.831  0.00  0.00    +0.004 A 
ATOM      8  C   UNL     1      -3.264  -0.995  -3.670  0.00  0.00    +0.023 A 
BRANCH   3  12
ATOM      9  N   UNL     1      -0.971  -1.121  -0.163  0.00  0.00    -0.286 N 
ATOM     10  C   UNL     1      -1.704  -1.251  -1.286  0.00  0.00    +0.306 C 
ATOM     11  O   UNL     1      -2.854  -1.638  -1.220  0.00  0.00    -0.252 OA
ATOM     12  N   UNL     1      -1.161  -0.953  -2.483  0.00  0.00    -0.269 N 
ATOM     13  H   UNL     1      -0.266  -0.582  -2.531  0.00  0.00    +0.156 HD
BRANCH   9  15
ATOM     14  C   UNL     1       1.349  -1.857  -0.406  0.00  0.00    +0.024 C 
ATOM     15  C   UNL     1       0.416  -0.656  -0.243  0.00  0.00    +0.106 C 
ENDBRANCH   9  15
BRANCH   9  16
ATOM     16  C   UNL     1      -1.561  -1.445   1.138  0.00  0.00    +0.106 C 
ATOM     17  C   UNL     1      -2.216  -0.194   1.727  0.00  0.00    +0.024 C 
ENDBRANCH   9  16
ENDBRANCH   3  12
ENDBRANCH   1   6
BRANCH   1  18
ATOM     18  N   UNL     1      -5.140  -0.834  -7.388  0.00  0.00    +0.391 N 
ATOM     19  H   UNL     1      -5.704  -1.032  -8.200  0.00  0.00    -0.084 HD
ATOM     20  H   UNL     1      -5.725  -0.823  -6.566  0.00  0.00    -0.084 HD
BRANCH  18  21
ATOM     21  C   UNL     1      -4.496   0.477  -7.548  0.00  0.00    +0.014 C 
ATOM     22  C   UNL     1      -3.720   0.507  -8.866  0.00  0.00    -0.004 C 
BRANCH  21  23
ATOM     23  C   UNL     1      -5.548   1.556  -7.560  0.00  0.00    +0.203 C 
ATOM     24  O   UNL     1      -6.719   1.262  -7.447  0.00  0.00    -0.277 OA
ATOM     25  N   UNL     1      -5.188   2.847  -7.697  0.00  0.00    -0.287 N 
ATOM     26  H   UNL     1      -4.259   3.077  -7.858  0.00  0.00    +0.155 HD
BRANCH  25  27
ATOM     27  C   UNL     1      -6.153   3.856  -7.606  0.00  0.00    +0.034 A 
ATOM     28  C   UNL     1      -6.041   4.999  -8.388  0.00  0.00    +0.023 A 
ATOM     29  C   UNL     1      -6.995   5.993  -8.296  0.00  0.00    +0.002 A 
ATOM     30  C   UNL     1      -8.061   5.851  -7.427  0.00  0.00    +0.003 A 
ATOM     31  C   UNL     1      -8.176   4.715  -6.647  0.00  0.00    -0.049 A 
ATOM     32  C   UNL     1      -7.228   3.715  -6.739  0.00  0.00    +0.026 A 
ATOM     33  C   UNL     1      -9.339   4.566  -5.701  0.00  0.00    +0.044 C 
ENDBRANCH  25  27
ENDBRANCH  21  23
ENDBRANCH  18  21
ENDBRANCH   1  18
TORSDOF 8
