REMARK  Name = ZINC35409460
REMARK  7 active torsions:
REMARK  status: ('A' for Active; 'I' for Inactive)
REMARK    1  A    between atoms: C_1  and  N_2
REMARK    2  A    between atoms: N_2  and  C_3
REMARK    3  A    between atoms: N_2  and  C_4
REMARK    4  A    between atoms: C_7  and  C_11
REMARK    5  A    between atoms: N_12  and  N_13
REMARK    6  A    between atoms: C_14  and  C_16
REMARK    7  A    between atoms: C_25  and  O_26
REMARK                            x       y       z     vdW  Elec       q    Type
REMARK                         _______ _______ _______ _____ _____    ______ ____
ROOT
ATOM      1  N   UNL     1      -2.340  -2.883  -4.793  0.00  0.00    -0.203 N 
ATOM      2  C   UNL     1      -3.494  -3.398  -5.261  0.00  0.00    +0.267 C 
ATOM      3  O   UNL     1      -3.481  -4.152  -6.215  0.00  0.00    -0.268 OA
ATOM      4  H   UNL     1      -2.350  -2.281  -4.032  0.00  0.00    +0.178 HD
ENDROOT
BRANCH   2   5
ATOM      5  C   UNL     1      -4.773  -3.048  -4.614  0.00  0.00    +0.080 A 
ATOM      6  C   UNL     1      -4.784  -2.184  -3.531  0.00  0.00    +0.025 A 
ATOM      7  C   UNL     1      -6.002  -1.855  -2.921  0.00  0.00    -0.017 A 
ATOM      8  C   UNL     1      -6.050  -0.981  -1.820  0.00  0.00    +0.008 A 
ATOM      9  C   UNL     1      -7.248  -0.679  -1.250  0.00  0.00    +0.001 A 
ATOM     10  C   UNL     1      -8.433  -1.225  -1.741  0.00  0.00    +0.001 A 
ATOM     11  C   UNL     1      -8.427  -2.075  -2.804  0.00  0.00    +0.008 A 
ATOM     12  C   UNL     1      -7.209  -2.409  -3.421  0.00  0.00    -0.014 A 
ATOM     13  C   UNL     1      -7.171  -3.283  -4.521  0.00  0.00    +0.054 A 
ATOM     14  C   UNL     1      -5.979  -3.590  -5.107  0.00  0.00    +0.130 A 
BRANCH  14  15
ATOM     15  O   UNL     1      -5.952  -4.430  -6.173  0.00  0.00    -0.506 OA
ATOM     16  H   UNL     1      -5.857  -5.363  -5.936  0.00  0.00    +0.292 HD
ENDBRANCH  14  15
ENDBRANCH   2   5
BRANCH   1  18
ATOM     17  C   UNL     1      -0.004  -2.823  -4.883  0.00  0.00    +0.138 C 
ATOM     18  N   UNL     1      -1.125  -3.215  -5.407  0.00  0.00    -0.187 NA
BRANCH  17  22
ATOM     19  C   UNL     1       0.230  -2.036  -0.717  0.00  0.00    +0.043 A 
ATOM     20  C   UNL     1      -0.854  -2.740  -1.230  0.00  0.00    +0.025 A 
ATOM     21  C   UNL     1      -0.933  -2.997  -2.581  0.00  0.00    +0.011 A 
ATOM     22  C   UNL     1       0.077  -2.549  -3.437  0.00  0.00    -0.004 A 
ATOM     23  C   UNL     1       1.165  -1.842  -2.918  0.00  0.00    +0.026 A 
ATOM     24  C   UNL     1       1.235  -1.583  -1.566  0.00  0.00    +0.039 A 
ATOM     25 BR   UNL     1       2.702  -0.619  -0.863  0.00  0.00    -0.048 Br
BRANCH  19  27
ATOM     26  C   UNL     1       0.979  -2.728   1.541  0.00  0.00    +0.129 C 
ATOM     27  N   UNL     1       0.306  -1.777   0.652  0.00  0.00    -0.335 N 
ATOM     28  C   UNL     1      -0.286  -0.555   1.201  0.00  0.00    +0.129 C 
ENDBRANCH  19  27
ENDBRANCH  17  22
ENDBRANCH   1  18
TORSDOF 5
