REMARK  Name = ZINC05735911
REMARK  5 active torsions:
REMARK  status: ('A' for Active; 'I' for Inactive)
REMARK    1  A    between atoms: C_1  and  C_2
REMARK    2  A    between atoms: C_5  and  C_16
REMARK    3  A    between atoms: C_8  and  C_10
REMARK    4  A    between atoms: C_8  and  O_12
REMARK    5  A    between atoms: O_12  and  C_13
REMARK                            x       y       z     vdW  Elec       q    Type
REMARK                         _______ _______ _______ _____ _____    ______ ____
ROOT
ATOM      1  C   UNL     1      -2.149  -0.098   1.271  0.00  0.00    +0.007 C 
ATOM      2  C   UNL     1      -2.169   1.432   1.280  0.00  0.00    -0.009 C 
ATOM      3  C   UNL     1      -3.201   1.933   0.268  0.00  0.00    +0.007 C 
ATOM      4  C   UNL     1      -2.828   1.436  -1.130  0.00  0.00    -0.009 C 
ATOM      5  C   UNL     1      -1.444   1.967  -1.508  0.00  0.00    +0.065 C 
ATOM      6  C   UNL     1      -0.412   1.465  -0.496  0.00  0.00    +0.175 C 
ATOM      7  C   UNL     1      -0.785   1.962   0.902  0.00  0.00    +0.065 C 
ATOM      8  C   UNL     1      -3.860   1.938  -2.142  0.00  0.00    +0.007 C 
ENDROOT
BRANCH   6   9
ATOM      9  C   UNL     1      -0.392  -0.007  -0.504  0.00  0.00    -0.058 C 
ATOM     10  C   UNL     1      -0.376  -1.181  -0.510  0.00  0.00    +0.008 C 
ENDBRANCH   6   9
BRANCH   6  11
ATOM     11  O   UNL     1       0.902   1.969  -0.854  0.00  0.00    -0.431 OA
BRANCH  11  12
ATOM     12  C   UNL     1       1.929   1.617  -0.058  0.00  0.00    +0.399 C 
ATOM     13  O   UNL     1       1.734   0.908   0.909  0.00  0.00    -0.227 OA
ATOM     14  N   UNL     1       3.175   2.051  -0.335  0.00  0.00    -0.295 N 
ATOM     15  H   UNL     1       3.332   2.617  -1.107  0.00  0.00    +0.148 HD
ATOM     16  H   UNL     1       3.916   1.797   0.238  0.00  0.00    +0.148 HD
ENDBRANCH  11  12
ENDBRANCH   6  11
TORSDOF 3
