REMARK  Name = ZINC08323931
REMARK  10 active torsions:
REMARK  status: ('A' for Active; 'I' for Inactive)
REMARK    1  A    between atoms: C_1  and  C_2
REMARK    2  A    between atoms: C_2  and  O_3
REMARK    3  A    between atoms: O_3  and  C_4
REMARK    4  A    between atoms: C_7  and  C_10
REMARK    5  A    between atoms: C_11  and  C_12
REMARK    6  A    between atoms: C_14  and  C_27
REMARK    7  A    between atoms: C_15  and  N_17
REMARK    8  A    between atoms: N_17  and  C_18
REMARK    9  A    between atoms: C_18  and  C_20
REMARK   10  A    between atoms: C_18  and  C_21
REMARK                            x       y       z     vdW  Elec       q    Type
REMARK                         _______ _______ _______ _____ _____    ______ ____
ROOT
ATOM      1  C   UNL     1       1.895  -7.992   2.991  0.00  0.00    +0.224 A 
ATOM      2  N   UNL     1       1.427  -8.886   2.151  0.00  0.00    -0.197 NA
ATOM      3  C   UNL     1       1.724 -10.123   2.626  0.00  0.00    +0.201 A 
ATOM      4  C   UNL     1       2.410  -9.945   3.819  0.00  0.00    +0.225 A 
ATOM      5  O   UNL     1       2.506  -8.617   4.017  0.00  0.00    -0.421 OA
ENDROOT
BRANCH   1   7
ATOM      6  C   UNL     1       1.142  -6.029   1.761  0.00  0.00    +0.013 C 
ATOM      7  C   UNL     1       1.778  -6.541   2.833  0.00  0.00    +0.068 C 
BRANCH   6  11
ATOM      8  C   UNL     1       0.802  -1.824   1.306  0.00  0.00    +0.121 A 
ATOM      9  C   UNL     1       0.258  -2.670   0.348  0.00  0.00    +0.046 A 
ATOM     10  C   UNL     1       0.365  -4.036   0.491  0.00  0.00    +0.011 A 
ATOM     11  C   UNL     1       1.024  -4.570   1.603  0.00  0.00    -0.025 A 
ATOM     12  C   UNL     1       1.571  -3.714   2.564  0.00  0.00    +0.011 A 
ATOM     13  C   UNL     1       1.462  -2.349   2.409  0.00  0.00    +0.046 A 
BRANCH   8  14
ATOM     14  O   UNL     1       0.693  -0.477   1.160  0.00  0.00    -0.492 OA
BRANCH  14  16
ATOM     15  C   UNL     1      -0.019   1.526   0.010  0.00  0.00    +0.048 C 
ATOM     16  C   UNL     1       0.002  -0.004   0.002  0.00  0.00    +0.225 C 
ENDBRANCH  14  16
ENDBRANCH   8  14
ENDBRANCH   6  11
ENDBRANCH   1   7
BRANCH   4  17
ATOM     17  N   UNL     1       2.902 -10.935   4.639  0.00  0.00    -0.306 N 
ATOM     18  H   UNL     1       2.781 -11.868   4.400  0.00  0.00    +0.150 HD
BRANCH  17  19
ATOM     19  C   UNL     1       3.608 -10.582   5.873  0.00  0.00    +0.100 C 
ATOM     20  C   UNL     1       2.592 -10.359   6.996  0.00  0.00    +0.033 C 
BRANCH  19  21
ATOM     21  C   UNL     1       4.543 -11.700   6.255  0.00  0.00    -0.027 A 
ATOM     22  C   UNL     1       4.146 -13.015   6.103  0.00  0.00    +0.005 A 
ATOM     23  C   UNL     1       5.003 -14.041   6.453  0.00  0.00    +0.000 A 
ATOM     24  C   UNL     1       6.258 -13.752   6.956  0.00  0.00    +0.000 A 
ATOM     25  C   UNL     1       6.655 -12.436   7.108  0.00  0.00    +0.000 A 
ATOM     26  C   UNL     1       5.799 -11.410   6.753  0.00  0.00    +0.005 A 
ENDBRANCH  19  21
ENDBRANCH  17  19
ENDBRANCH   4  17
BRANCH   3  27
ATOM     27  C   UNL     1       1.392 -11.373   2.012  0.00  0.00    +0.124 C 
ATOM     28  N   UNL     1       1.129 -12.365   1.524  0.00  0.00    -0.189 NA
ENDBRANCH   3  27
TORSDOF 8
