REMARK  Name = ZINC59502117
REMARK  7 active torsions:
REMARK  status: ('A' for Active; 'I' for Inactive)
REMARK    1  A    between atoms: C_1  and  C_2
REMARK    2  A    between atoms: C_2  and  N_3
REMARK    3  A    between atoms: N_3  and  N_4
REMARK    4  A    between atoms: C_5  and  C_7
REMARK    5  A    between atoms: C_11  and  N_13
REMARK    6  A    between atoms: C_16  and  C_17
REMARK    7  A    between atoms: N_19  and  C_20
REMARK                            x       y       z     vdW  Elec       q    Type
REMARK                         _______ _______ _______ _____ _____    ______ ____
ROOT
ATOM      1  N   UNL     1      -0.085   1.535  -2.457  0.00  0.00    -0.268 N 
ATOM      2  H   UNL     1       0.885   1.523  -2.464  0.00  0.00    +0.170 HD
ENDROOT
BRANCH   1   3
ATOM      3  N   UNL     1      -0.794   1.582  -3.664  0.00  0.00    -0.233 N 
ATOM      4  C   UNL     1      -0.129   1.610  -4.836  0.00  0.00    +0.260 C 
ATOM      5  O   UNL     1       1.087   1.595  -4.845  0.00  0.00    -0.269 OA
ATOM      6  H   UNL     1      -1.764   1.594  -3.657  0.00  0.00    +0.173 HD
BRANCH   4   7
ATOM      7  C   UNL     1      -0.877   1.660  -6.110  0.00  0.00    +0.040 A 
ATOM      8  C   UNL     1      -2.272   1.683  -6.103  0.00  0.00    +0.013 A 
ATOM      9  C   UNL     1      -2.964   1.730  -7.296  0.00  0.00    +0.003 A 
ATOM     10  C   UNL     1      -2.278   1.753  -8.497  0.00  0.00    +0.033 A 
ATOM     11  C   UNL     1      -0.895   1.730  -8.511  0.00  0.00    +0.127 A 
ATOM     12  C   UNL     1      -0.191   1.689  -7.325  0.00  0.00    +0.045 A 
BRANCH  11  13
ATOM     13  N   UNL     1      -0.169   1.755  -9.801  0.00  0.00    +0.056 N 
ATOM     14  O   UNL     1      -0.784   1.795 -10.840  0.00  0.00    -0.126 OA
ATOM     15  O   UNL     1       1.040   1.735  -9.814  0.00  0.00    -0.126 OA
ENDBRANCH  11  13
ENDBRANCH   4   7
ENDBRANCH   1   3
BRANCH   1  17
ATOM     16  C   UNL     1       0.002   1.456   0.030  0.00  0.00    +0.062 C 
ATOM     17  C   UNL     1      -0.760   1.506  -1.269  0.00  0.00    +0.024 C 
ATOM     18  C   UNL     1      -2.109   1.523  -1.259  0.00  0.00    +0.087 C 
BRANCH  18  19
ATOM     19  C   UNL     1      -2.810   1.318  -0.048  0.00  0.00    +0.243 C 
ATOM     20  O   UNL     1      -2.203   1.016   0.964  0.00  0.00    -0.270 OA
ATOM     21  N   UNL     1      -4.150   1.456  -0.013  0.00  0.00    -0.281 N 
ATOM     22  H   UNL     1      -4.623   1.799  -0.788  0.00  0.00    +0.155 HD
BRANCH  21  23
ATOM     23  C   UNL     1      -4.860   1.106   1.141  0.00  0.00    +0.052 A 
ATOM     24  C   UNL     1      -4.278   0.278   2.091  0.00  0.00    +0.025 A 
ATOM     25  C   UNL     1      -4.981  -0.066   3.229  0.00  0.00    +0.002 A 
ATOM     26  C   UNL     1      -6.264   0.412   3.423  0.00  0.00    +0.002 A 
ATOM     27  C   UNL     1      -6.848   1.236   2.479  0.00  0.00    +0.022 A 
ATOM     28  C   UNL     1      -6.147   1.590   1.341  0.00  0.00    +0.062 A 
ATOM     29 CL   UNL     1      -6.877   2.631   0.159  0.00  0.00    -0.082 Cl
ENDBRANCH  21  23
ENDBRANCH  18  19
ENDBRANCH   1  17
TORSDOF 6
