REMARK  Name = ZINC05795140
REMARK  12 active torsions:
REMARK  status: ('A' for Active; 'I' for Inactive)
REMARK    1  A    between atoms: C_1  and  C_2
REMARK    2  A    between atoms: C_5  and  N_9
REMARK    3  A    between atoms: C_7  and  C_8
REMARK    4  A    between atoms: C_10  and  C_12
REMARK    5  A    between atoms: C_12  and  O_13
REMARK    6  A    between atoms: O_13  and  C_14
REMARK    7  A    between atoms: C_17  and  C_20
REMARK    8  A    between atoms: N_21  and  N_22
REMARK    9  A    between atoms: C_23  and  C_25
REMARK   10  A    between atoms: N_27  and  C_28
REMARK   11  A    between atoms: C_28  and  C_29
REMARK   12  A    between atoms: C_28  and  C_30
REMARK                            x       y       z     vdW  Elec       q    Type
REMARK                         _______ _______ _______ _____ _____    ______ ____
ROOT
ATOM      1  C   UNL     1      -0.431   0.917  -2.344  0.00  0.00    +0.121 A 
ATOM      2  C   UNL     1       0.798   0.276  -2.434  0.00  0.00    +0.046 A 
ATOM      3  C   UNL     1       1.295  -0.097  -3.664  0.00  0.00    +0.013 A 
ATOM      4  C   UNL     1       0.564   0.180  -4.823  0.00  0.00    -0.005 A 
ATOM      5  C   UNL     1      -0.670   0.830  -4.728  0.00  0.00    +0.013 A 
ATOM      6  C   UNL     1      -1.161   1.194  -3.494  0.00  0.00    +0.046 A 
ENDROOT
BRANCH   4   7
ATOM      7  C   UNL     1       1.093  -0.213  -6.141  0.00  0.00    +0.138 C 
ATOM      8  N   UNL     1       2.240  -0.817  -6.227  0.00  0.00    -0.187 NA
BRANCH   8   9
ATOM      9  N   UNL     1       2.743  -1.190  -7.480  0.00  0.00    -0.199 N 
ATOM     10  C   UNL     1       3.933  -1.817  -7.569  0.00  0.00    +0.318 C 
ATOM     11  O   UNL     1       4.569  -2.058  -6.563  0.00  0.00    -0.263 OA
ATOM     12  H   UNL     1       2.235  -0.997  -8.284  0.00  0.00    +0.178 HD
BRANCH  10  13
ATOM     13  C   UNL     1       4.469  -2.214  -8.904  0.00  0.00    +0.301 C 
ATOM     14  O   UNL     1       3.833  -1.973  -9.909  0.00  0.00    -0.265 OA
ATOM     15  N   UNL     1       5.659  -2.841  -8.993  0.00  0.00    -0.305 N 
ATOM     16  H   UNL     1       6.167  -3.033  -8.189  0.00  0.00    +0.149 HD
BRANCH  15  17
ATOM     17  C   UNL     1       6.185  -3.231 -10.303  0.00  0.00    +0.067 C 
ATOM     18  C   UNL     1       7.710  -3.328 -10.232  0.00  0.00    +0.027 C 
ATOM     19  C   UNL     1       5.605  -4.589 -10.702  0.00  0.00    +0.027 C 
ENDBRANCH  15  17
ENDBRANCH  10  13
ENDBRANCH   8   9
ENDBRANCH   4   7
BRANCH   1  20
ATOM     20  O   UNL     1      -0.919   1.279  -1.129  0.00  0.00    -0.483 OA
BRANCH  20  21
ATOM     21  C   UNL     1      -0.118   0.963   0.011  0.00  0.00    +0.324 C 
BRANCH  21  23
ATOM     22  N   UNL     1      -0.242   1.246   2.466  0.00  0.00    -0.283 N 
ATOM     23  C   UNL     1      -0.815   1.437   1.261  0.00  0.00    +0.255 C 
ATOM     24  O   UNL     1      -1.891   1.990   1.182  0.00  0.00    -0.272 OA
ATOM     25  H   UNL     1       0.581   0.737   2.536  0.00  0.00    +0.155 HD
BRANCH  22  30
ATOM     26  C   UNL     1      -2.642   3.418   7.125  0.00  0.00    +0.044 C 
ATOM     27  C   UNL     1      -2.004   2.841   5.887  0.00  0.00    -0.047 A 
ATOM     28  C   UNL     1      -2.103   3.514   4.683  0.00  0.00    +0.005 A 
ATOM     29  C   UNL     1      -1.514   2.991   3.548  0.00  0.00    +0.023 A 
ATOM     30  C   UNL     1      -0.833   1.782   3.615  0.00  0.00    +0.034 A 
ATOM     31  C   UNL     1      -0.736   1.109   4.826  0.00  0.00    +0.027 A 
ATOM     32  C   UNL     1      -1.322   1.641   5.958  0.00  0.00    -0.046 A 
ATOM     33  C   UNL     1      -1.217   0.911   7.273  0.00  0.00    +0.044 C 
ENDBRANCH  22  30
ENDBRANCH  21  23
ENDBRANCH  20  21
ENDBRANCH   1  20
TORSDOF 8
