REMARK  Name = ZINC44714347
REMARK  9 active torsions:
REMARK  status: ('A' for Active; 'I' for Inactive)
REMARK    1  A    between atoms: C_1  and  C_2
REMARK    2  A    between atoms: C_4  and  C_8
REMARK    3  A    between atoms: N_6  and  C_7
REMARK    4  A    between atoms: C_12  and  C_21
REMARK    5  A    between atoms: N_23  and  C_24
REMARK    6  A    between atoms: C_24  and  C_26
REMARK    7  A    between atoms: C_24  and  C_27
REMARK    8  A    between atoms: C_28  and  C_34
REMARK    9  A    between atoms: C_32  and  C_33
REMARK                            x       y       z     vdW  Elec       q    Type
REMARK                         _______ _______ _______ _____ _____    ______ ____
ROOT
ATOM      1  C   UNL     1       0.000  -3.444  -1.480  0.00  0.00    +0.267 C 
ATOM      2  O   UNL     1      -0.010  -3.402  -2.695  0.00  0.00    -0.268 OA
ATOM      3  N   UNL     1       0.028  -4.633  -0.847  0.00  0.00    -0.295 N 
ATOM      4  C   UNL     1       0.038  -4.885   0.613  0.00  0.00    +0.121 C 
ATOM      5  C   UNL     1      -0.882  -6.112   0.804  0.00  0.00    +0.100 C 
ATOM      6  C   UNL     1      -0.864  -6.831  -0.555  0.00  0.00    -0.004 C 
ATOM      7  C   UNL     1       0.050  -5.985  -1.454  0.00  0.00    +0.115 C 
ATOM      8  C   UNL     1      -2.270  -6.883  -1.144  0.00  0.00    -0.010 C 
ATOM      9  C   UNL     1      -2.236  -7.652  -2.468  0.00  0.00    -0.082 C 
ATOM     10  N   UNL     1      -1.731  -9.010  -2.234  0.00  0.00    +0.379 N 
ATOM     11  C   UNL     1      -0.344  -8.954  -1.755  0.00  0.00    -0.082 C 
ATOM     12  C   UNL     1      -0.298  -8.239  -0.402  0.00  0.00    -0.010 C 
ATOM     13  H   UNL     1      -2.306  -9.467  -1.542  0.00  0.00    -0.086 HD
ATOM     14  H   UNL     1      -1.767  -9.534  -3.095  0.00  0.00    -0.086 HD
ENDROOT
BRANCH   1  18
ATOM     15  C   UNL     1      -0.086   1.447  -0.151  0.00  0.00    +0.065 C 
ATOM     16  C   UNL     1      -0.057  -0.060  -0.135  0.00  0.00    +0.037 A 
ATOM     17  C   UNL     1      -0.048  -0.875  -1.216  0.00  0.00    +0.057 A 
ATOM     18  C   UNL     1      -0.019  -2.191  -0.698  0.00  0.00    +0.147 A 
ATOM     19  N   UNL     1      -0.011  -2.087   0.616  0.00  0.00    -0.167 NA
ATOM     20  N   UNL     1      -0.028  -0.849   0.960  0.00  0.00    -0.271 N 
ATOM     21  C   UNL     1      -0.021  -0.363   2.343  0.00  0.00    +0.172 C 
ENDBRANCH   1  18
BRANCH   5  22
ATOM     22  C   UNL     1      -0.338  -7.012   1.883  0.00  0.00    +0.219 C 
ATOM     23  O   UNL     1       0.860  -7.136   2.023  0.00  0.00    -0.275 OA
ATOM     24  N   UNL     1      -1.184  -7.680   2.693  0.00  0.00    -0.308 N 
ATOM     25  H   UNL     1      -2.142  -7.581   2.581  0.00  0.00    +0.149 HD
BRANCH  24  26
ATOM     26  C   UNL     1      -0.655  -8.555   3.742  0.00  0.00    +0.104 C 
ATOM     27  C   UNL     1      -0.238  -9.893   3.128  0.00  0.00    +0.033 C 
BRANCH  26  28
ATOM     28  C   UNL     1      -1.719  -8.790   4.783  0.00  0.00    +0.015 A 
ATOM     29  C   UNL     1      -1.565  -8.664   6.122  0.00  0.00    +0.038 A 
ATOM     30  N   UNL     1      -2.747  -8.961   6.701  0.00  0.00    -0.281 N 
ATOM     31  H   UNL     1      -2.934  -8.954   7.653  0.00  0.00    +0.189 HD
ATOM     32  N   UNL     1      -3.658  -9.281   5.686  0.00  0.00    -0.179 NA
ATOM     33  C   UNL     1      -3.042  -9.172   4.536  0.00  0.00    +0.065 A 
ATOM     34  C   UNL     1      -3.652  -9.420   3.180  0.00  0.00    +0.068 C 
ATOM     35  C   UNL     1      -0.301  -8.263   6.837  0.00  0.00    +0.065 C 
ENDBRANCH  26  28
ENDBRANCH  24  26
ENDBRANCH   5  22
TORSDOF 4
