REMARK  Name = ZINC07189150
REMARK  10 active torsions:
REMARK  status: ('A' for Active; 'I' for Inactive)
REMARK    1  A    between atoms: C_1  and  C_2
REMARK    2  A    between atoms: C_5  and  N_9
REMARK    3  A    between atoms: C_13  and  S_14
REMARK    4  A    between atoms: S_14  and  C_15
REMARK    5  A    between atoms: C_15  and  C_17
REMARK    6  A    between atoms: C_15  and  C_18
REMARK    7  A    between atoms: N_23  and  C_24
REMARK    8  A    between atoms: C_24  and  C_25
REMARK    9  A    between atoms: C_24  and  C_26
REMARK   10  A    between atoms: C_24  and  C_27
REMARK                            x       y       z     vdW  Elec       q    Type
REMARK                         _______ _______ _______ _____ _____    ______ ____
ROOT
ATOM      1  S   UNL     1       2.203  -4.488   1.752  0.00  0.00    -0.073 S 
ENDROOT
BRANCH   1   6
ATOM      2  N   UNL     1       0.059  -4.174  -0.022  0.00  0.00    -0.277 N 
ATOM      3  C   UNL     1      -0.766  -5.008  -0.729  0.00  0.00    +0.230 A 
ATOM      4  N   UNL     1      -0.411  -6.231  -0.452  0.00  0.00    -0.137 NA
ATOM      5  N   UNL     1       0.574  -6.229   0.375  0.00  0.00    -0.122 NA
ATOM      6  C   UNL     1       0.908  -4.993   0.669  0.00  0.00    +0.197 A 
BRANCH   2  11
ATOM      7  C   UNL     1      -0.018   1.503   0.010  0.00  0.00    +0.045 C 
ATOM      8  C   UNL     1       0.002  -0.004   0.002  0.00  0.00    -0.032 A 
ATOM      9  C   UNL     1       0.006  -0.688  -1.200  0.00  0.00    +0.007 A 
ATOM     10  C   UNL     1       0.025  -2.069  -1.211  0.00  0.00    +0.026 A 
ATOM     11  C   UNL     1       0.040  -2.771  -0.013  0.00  0.00    +0.051 A 
ATOM     12  C   UNL     1       0.037  -2.084   1.192  0.00  0.00    +0.046 A 
ATOM     13  C   UNL     1       0.023  -0.701   1.197  0.00  0.00    +0.046 A 
ATOM     14 CL   UNL     1       0.025   0.161   2.704  0.00  0.00    -0.083 Cl
ENDBRANCH   2  11
ENDBRANCH   1   6
BRANCH   1  15
ATOM     15  C   UNL     1       2.928  -6.048   2.327  0.00  0.00    +0.137 C 
ATOM     16  C   UNL     1       3.566  -6.781   1.145  0.00  0.00    +0.029 C 
BRANCH  15  17
ATOM     17  C   UNL     1       3.981  -5.759   3.366  0.00  0.00    +0.233 C 
ATOM     18  O   UNL     1       4.479  -4.656   3.435  0.00  0.00    -0.274 OA
ATOM     19  N   UNL     1       4.369  -6.728   4.219  0.00  0.00    -0.239 N 
ATOM     20  C   UNL     1       5.310  -6.470   5.149  0.00  0.00    +0.306 C 
ATOM     21  O   UNL     1       5.809  -5.364   5.217  0.00  0.00    -0.252 OA
ATOM     22  N   UNL     1       5.698  -7.439   6.002  0.00  0.00    -0.294 N 
ATOM     23  H   UNL     1       3.971  -7.611   4.165  0.00  0.00    +0.159 HD
ATOM     24  H   UNL     1       5.300  -8.321   5.947  0.00  0.00    +0.151 HD
BRANCH  22  25
ATOM     25  C   UNL     1       6.722  -7.158   7.012  0.00  0.00    +0.028 C 
ATOM     26  C   UNL     1       6.239  -6.031   7.927  0.00  0.00    +0.031 C 
ATOM     27  C   UNL     1       6.976  -8.417   7.844  0.00  0.00    +0.031 C 
ATOM     28  C   UNL     1       8.019  -6.734   6.320  0.00  0.00    +0.031 C 
ENDBRANCH  22  25
ENDBRANCH  15  17
ENDBRANCH   1  15
TORSDOF 5
