REMARK  Name = ZINC66454836
REMARK  5 active torsions:
REMARK  status: ('A' for Active; 'I' for Inactive)
REMARK    1  A    between atoms: C_1  and  N_2
REMARK    2  A    between atoms: C_3  and  C_5
REMARK    3  A    between atoms: C_5  and  C_7
REMARK    4  A    between atoms: C_5  and  N_15
REMARK    5  A    between atoms: C_21  and  N_25
REMARK                            x       y       z     vdW  Elec       q    Type
REMARK                         _______ _______ _______ _____ _____    ______ ____
ROOT
ATOM      1  C   UNL     1       0.606  -2.171  -1.026  0.00  0.00    +0.189 C 
ENDROOT
BRANCH   1   2
ATOM      2  N   UNL     1       1.291  -2.644  -2.232  0.00  0.00    -0.309 N 
ATOM      3  C   UNL     1       2.667  -2.757  -2.244  0.00  0.00    +0.160 A 
ATOM      4  N   UNL     1       3.523  -2.497  -1.282  0.00  0.00    -0.225 NA
ATOM      5  C   UNL     1       4.856  -2.656  -1.435  0.00  0.00    +0.080 A 
ATOM      6  C   UNL     1       5.878  -2.414  -0.489  0.00  0.00    +0.031 A 
ATOM      7  C   UNL     1       7.194  -2.628  -0.809  0.00  0.00    +0.035 A 
ATOM      8  C   UNL     1       7.569  -3.085  -2.064  0.00  0.00    +0.127 A 
ATOM      9  C   UNL     1       6.595  -3.332  -3.014  0.00  0.00    +0.050 A 
ATOM     10  C   UNL     1       5.276  -3.121  -2.702  0.00  0.00    +0.043 A 
ATOM     11  S   UNL     1       3.735  -3.301  -3.569  0.00  0.00    -0.052 S 
ATOM     12  H   UNL     1       0.779  -2.877  -3.021  0.00  0.00    +0.149 HD
BRANCH   8  13
ATOM     13  N   UNL     1       8.998  -3.307  -2.382  0.00  0.00    +0.056 N 
ATOM     14  O   UNL     1       9.844  -3.088  -1.547  0.00  0.00    -0.126 OA
ATOM     15  O   UNL     1       9.318  -3.705  -3.478  0.00  0.00    -0.126 OA
ENDBRANCH   8  13
ENDBRANCH   1   2
BRANCH   1  16
ATOM     16  C   UNL     1      -0.808  -2.693  -1.016  0.00  0.00    -0.016 A 
ATOM     17  C   UNL     1      -1.537  -2.736  -2.189  0.00  0.00    +0.009 A 
ATOM     18  C   UNL     1      -2.834  -3.214  -2.182  0.00  0.00    +0.041 A 
ATOM     19  C   UNL     1      -3.404  -3.651  -0.999  0.00  0.00    +0.158 A 
ATOM     20  C   UNL     1      -2.673  -3.608   0.178  0.00  0.00    +0.159 A 
ATOM     21  C   UNL     1      -1.373  -3.133   0.167  0.00  0.00    +0.047 A 
ATOM     22  F   UNL     1      -3.227  -4.033   1.335  0.00  0.00    -0.202 F 
ATOM     23  F   UNL     1      -4.672  -4.118  -0.991  0.00  0.00    -0.202 F 
ENDBRANCH   1  16
BRANCH   1  26
ATOM     24  C   UNL     1      -0.018   1.461   0.010  0.00  0.00    +0.128 C 
ATOM     25  N   UNL     1       0.002  -0.004   0.002  0.00  0.00    -0.317 N 
ATOM     26  C   UNL     1       0.585  -0.664  -1.018  0.00  0.00    +0.238 C 
ATOM     27  O   UNL     1       1.093  -0.046  -1.929  0.00  0.00    -0.273 OA
ATOM     28  H   UNL     1      -0.404  -0.499   0.731  0.00  0.00    +0.148 HD
ENDBRANCH   1  26
TORSDOF 4
