REMARK  Name = ZINC42438944
REMARK  5 active torsions:
REMARK  status: ('A' for Active; 'I' for Inactive)
REMARK    1  A    between atoms: C_1  and  C_2
REMARK    2  A    between atoms: C_6  and  C_20
REMARK    3  A    between atoms: N_9  and  C_10
REMARK    4  A    between atoms: C_13  and  C_17
REMARK    5  A    between atoms: C_17  and  N_19
REMARK                            x       y       z     vdW  Elec       q    Type
REMARK                         _______ _______ _______ _____ _____    ______ ____
ROOT
ATOM      1  C   UNL     1      -0.019   1.526   0.010  0.00  0.00    +0.028 C 
ATOM      2  C   UNL     1       0.002  -0.004   0.002  0.00  0.00    +0.071 C 
ATOM      3  C   UNL     1      -1.434  -0.537   0.020  0.00  0.00    +0.023 C 
ATOM      4  C   UNL     1      -2.101  -0.151   1.343  0.00  0.00    +0.016 C 
ATOM      5  C   UNL     1      -1.335  -0.786   2.506  0.00  0.00    +0.092 C 
ATOM      6  C   UNL     1       0.102  -0.256   2.516  0.00  0.00    +0.118 C 
ATOM      7  N   UNL     1       0.706  -0.494   1.195  0.00  0.00    -0.324 N 
ENDROOT
BRANCH   7   8
ATOM      8  C   UNL     1       1.918  -1.171   1.076  0.00  0.00    +0.066 A 
ATOM      9  C   UNL     1       3.114  -0.462   1.102  0.00  0.00    +0.026 A 
ATOM     10  C   UNL     1       4.314  -1.127   0.985  0.00  0.00    +0.012 A 
ATOM     11  C   UNL     1       4.330  -2.518   0.840  0.00  0.00    +0.006 A 
ATOM     12  C   UNL     1       3.126  -3.229   0.814  0.00  0.00    +0.050 A 
ATOM     13  C   UNL     1       1.929  -2.557   0.937  0.00  0.00    +0.145 A 
ATOM     14  F   UNL     1       0.765  -3.243   0.917  0.00  0.00    -0.204 F 
BRANCH  11  15
ATOM     15  C   UNL     1       5.612  -3.232   0.714  0.00  0.00    +0.077 C 
ATOM     16  S   UNL     1       6.987  -2.681   1.572  0.00  0.00    -0.035 S 
BRANCH  15  17
ATOM     17  N   UNL     1       5.702  -4.320  -0.076  0.00  0.00    -0.352 N 
ATOM     18  H   UNL     1       4.923  -4.633  -0.562  0.00  0.00    +0.143 HD
ATOM     19  H   UNL     1       6.547  -4.791  -0.159  0.00  0.00    +0.143 HD
ENDBRANCH  15  17
ENDBRANCH  11  15
ENDBRANCH   7   8
BRANCH   5  20
ATOM     20  C   UNL     1      -2.011  -0.433   3.805  0.00  0.00    +0.215 C 
ATOM     21  O   UNL     1      -1.405   0.180   4.658  0.00  0.00    -0.276 OA
ATOM     22  N   UNL     1      -3.291  -0.798   4.020  0.00  0.00    -0.329 N 
ATOM     23  H   UNL     1      -3.776  -1.288   3.338  0.00  0.00    +0.145 HD
ATOM     24  H   UNL     1      -3.726  -0.571   4.856  0.00  0.00    +0.145 HD
ENDBRANCH   5  20
TORSDOF 4
