REMARK  Name = ZINC13006276
REMARK  8 active torsions:
REMARK  status: ('A' for Active; 'I' for Inactive)
REMARK    1  A    between atoms: C_1  and  C_2
REMARK    2  A    between atoms: C_6  and  C_8
REMARK    3  A    between atoms: C_9  and  C_10
REMARK    4  A    between atoms: N_12  and  N_13
REMARK    5  A    between atoms: C_14  and  C_16
REMARK    6  A    between atoms: N_25  and  C_27
REMARK    7  A    between atoms: C_27  and  C_28
REMARK    8  A    between atoms: C_27  and  C_29
REMARK                            x       y       z     vdW  Elec       q    Type
REMARK                         _______ _______ _______ _____ _____    ______ ____
ROOT
ATOM      1  N   UNL     1      -6.074  -0.926   0.053  0.00  0.00    -0.229 N 
ATOM      2  C   UNL     1      -7.252  -0.271   0.067  0.00  0.00    +0.281 C 
ATOM      3  O   UNL     1      -7.272   0.945   0.074  0.00  0.00    -0.267 OA
ATOM      4  H   UNL     1      -6.058  -1.895   0.047  0.00  0.00    +0.173 HD
ENDROOT
BRANCH   2   5
ATOM      5  C   UNL     1      -8.518  -1.030   0.075  0.00  0.00    +0.155 A 
ATOM      6  C   UNL     1      -9.810  -0.325   0.096  0.00  0.00    +0.020 A 
ATOM      7  C   UNL     1      -9.910   1.062   0.100  0.00  0.00    +0.011 A 
ATOM      8  C   UNL     1     -11.157   1.651   0.115  0.00  0.00    +0.001 A 
ATOM      9  C   UNL     1     -12.309   0.875   0.121  0.00  0.00    +0.001 A 
ATOM     10  C   UNL     1     -12.232  -0.501   0.113  0.00  0.00    +0.014 A 
ATOM     11  C   UNL     1     -10.983  -1.114   0.098  0.00  0.00    +0.050 A 
ATOM     12  C   UNL     1     -10.810  -2.573   0.088  0.00  0.00    +0.275 A 
ATOM     13  O   UNL     1     -11.775  -3.315   0.093  0.00  0.00    -0.266 OA
ATOM     14  N   UNL     1      -9.556  -3.072   0.074  0.00  0.00    -0.226 N 
ATOM     15  N   UNL     1      -8.506  -2.341   0.067  0.00  0.00    -0.163 NA
BRANCH  14  16
ATOM     16  C   UNL     1      -9.389  -4.527   0.065  0.00  0.00    +0.105 C 
ATOM     17  C   UNL     1      -8.626  -4.945  -1.194  0.00  0.00    +0.032 C 
ATOM     18  C   UNL     1      -8.602  -4.957   1.304  0.00  0.00    +0.032 C 
ENDBRANCH  14  16
ENDBRANCH   2   5
BRANCH   1  21
ATOM     19  C   UNL     1      -3.695  -0.860   0.031  0.00  0.00    +0.253 C 
ATOM     20  O   UNL     1      -3.675  -2.076   0.025  0.00  0.00    -0.269 OA
ATOM     21  N   UNL     1      -4.873  -0.205   0.046  0.00  0.00    -0.231 N 
ATOM     22  H   UNL     1      -4.889   0.765   0.051  0.00  0.00    +0.173 HD
BRANCH  19  24
ATOM     23  C   UNL     1      -1.260  -0.761   0.009  0.00  0.00    +0.013 C 
ATOM     24  C   UNL     1      -2.439  -0.106   0.024  0.00  0.00    +0.069 C 
BRANCH  23  30
ATOM     25  C   UNL     1       3.725  -0.689  -0.037  0.00  0.00    +0.044 C 
ATOM     26  C   UNL     1       2.405   0.036  -0.021  0.00  0.00    -0.050 A 
ATOM     27  C   UNL     1       2.378   1.421  -0.013  0.00  0.00    +0.003 A 
ATOM     28  C   UNL     1       1.170   2.096   0.002  0.00  0.00    +0.001 A 
ATOM     29  C   UNL     1      -0.017   1.394   0.010  0.00  0.00    +0.008 A 
ATOM     30  C   UNL     1       0.002  -0.004   0.002  0.00  0.00    -0.025 A 
ATOM     31  C   UNL     1       1.227  -0.680  -0.013  0.00  0.00    +0.011 A 
ENDBRANCH  23  30
ENDBRANCH  19  24
ENDBRANCH   1  21
TORSDOF 5
