REMARK  Name = ZINC40511382
REMARK  7 active torsions:
REMARK  status: ('A' for Active; 'I' for Inactive)
REMARK    1  A    between atoms: C_1  and  C_2
REMARK    2  A    between atoms: N_7  and  S_9
REMARK    3  A    between atoms: S_9  and  N_12
REMARK    4  A    between atoms: N_12  and  C_13
REMARK    5  A    between atoms: C_13  and  C_15
REMARK    6  A    between atoms: C_13  and  C_16
REMARK    7  A    between atoms: C_16  and  C_17
REMARK                            x       y       z     vdW  Elec       q    Type
REMARK                         _______ _______ _______ _____ _____    ______ ____
ROOT
ATOM      1  S   UNL     1       0.350  -2.942   2.392  0.00  0.00    +0.097 S 
ATOM      2  O   UNL     1      -0.630  -2.199   3.104  0.00  0.00    -0.141 OA
ATOM      3  O   UNL     1       0.077  -4.216   1.825  0.00  0.00    -0.141 OA
ENDROOT
BRANCH   1   9
ATOM      4  C   UNL     1      -0.019   1.526   0.010  0.00  0.00    +0.009 C 
ATOM      5  C   UNL     1       0.002  -0.004   0.002  0.00  0.00    +0.002 C 
ATOM      6  C   UNL     1       0.720  -0.498  -1.256  0.00  0.00    +0.006 C 
ATOM      7  C   UNL     1       0.712  -2.028  -1.282  0.00  0.00    +0.017 C 
ATOM      8  C   UNL     1       1.463  -2.559  -0.057  0.00  0.00    +0.110 C 
ATOM      9  N   UNL     1       0.869  -1.973   1.153  0.00  0.00    -0.166 NA
ATOM     10  C   UNL     1       0.744  -0.512   1.242  0.00  0.00    +0.113 C 
ENDBRANCH   1   9
BRANCH   1  11
ATOM     11  N   UNL     1       1.630  -3.146   3.422  0.00  0.00    -0.177 NA
ATOM     12  H   UNL     1       2.019  -4.026   3.543  0.00  0.00    +0.149 HD
BRANCH  11  13
ATOM     13  C   UNL     1       2.174  -1.998   4.152  0.00  0.00    +0.082 C 
ATOM     14  C   UNL     1       1.537  -1.929   5.542  0.00  0.00    +0.026 C 
BRANCH  13  15
ATOM     15  C   UNL     1       3.689  -2.155   4.293  0.00  0.00    +0.094 C 
BRANCH  15  16
ATOM     16  C   UNL     1       4.329  -2.100   2.930  0.00  0.00    +0.106 A 
ATOM     17  C   UNL     1       4.771  -0.990   2.312  0.00  0.00    +0.044 A 
ATOM     18  C   UNL     1       5.293  -1.396   1.063  0.00  0.00    +0.041 A 
ATOM     19  C   UNL     1       5.139  -2.731   0.992  0.00  0.00    +0.195 A 
ATOM     20  O   UNL     1       4.559  -3.152   2.127  0.00  0.00    -0.468 OA
ENDBRANCH  15  16
ENDBRANCH  13  15
ENDBRANCH  11  13
ENDBRANCH   1  11
TORSDOF 5
