REMARK  Name = ZINC08570203
REMARK  5 active torsions:
REMARK  status: ('A' for Active; 'I' for Inactive)
REMARK    1  A    between atoms: C_1  and  C_2
REMARK    2  A    between atoms: C_7  and  C_20
REMARK    3  A    between atoms: C_10  and  C_12
REMARK    4  A    between atoms: C_15  and  O_18
REMARK    5  A    between atoms: O_18  and  C_19
REMARK                            x       y       z     vdW  Elec       q    Type
REMARK                         _______ _______ _______ _____ _____    ______ ____
ROOT
ATOM      1  C   UNL     1       3.394  -7.073  -8.075  0.00  0.00    +0.090 C 
ATOM      2  C   UNL     1       3.317  -5.805  -7.265  0.00  0.00    +0.150 A 
ATOM      3  N   UNL     1       2.837  -5.709  -6.021  0.00  0.00    -0.198 NA
ATOM      4  C   UNL     1       2.915  -4.470  -5.618  0.00  0.00    +0.219 A 
ATOM      5  N   UNL     1       3.464  -3.737  -6.619  0.00  0.00    -0.218 N 
ATOM      6  N   UNL     1       3.709  -4.622  -7.668  0.00  0.00    -0.153 NA
ATOM      7  C   UNL     1       3.720  -2.303  -6.527  0.00  0.00    +0.201 C 
ATOM      8  C   UNL     1       3.019  -1.740  -5.321  0.00  0.00    +0.031 C 
ATOM      9  C   UNL     1       2.493  -2.493  -4.364  0.00  0.00    +0.039 C 
ATOM     10  N   UNL     1       2.537  -3.893  -4.415  0.00  0.00    -0.283 N 
ATOM     11  H   UNL     1       2.313  -4.434  -3.642  0.00  0.00    +0.155 HD
ENDROOT
BRANCH   9  12
ATOM     12  C   UNL     1       1.835  -1.836  -3.212  0.00  0.00    -0.004 A 
ATOM     13  C   UNL     1       1.270  -2.608  -2.196  0.00  0.00    +0.013 A 
ATOM     14  C   UNL     1       0.659  -1.993  -1.125  0.00  0.00    +0.046 A 
ATOM     15  C   UNL     1       0.606  -0.607  -1.055  0.00  0.00    +0.120 A 
ATOM     16  C   UNL     1       1.162   0.164  -2.067  0.00  0.00    +0.046 A 
ATOM     17  C   UNL     1       1.780  -0.444  -3.139  0.00  0.00    +0.013 A 
BRANCH  15  18
ATOM     18  O   UNL     1       0.002  -0.004   0.002  0.00  0.00    -0.495 OA
ATOM     19  C   UNL     1      -0.017   1.425   0.010  0.00  0.00    +0.277 C 
ENDBRANCH  15  18
ENDBRANCH   9  12
BRANCH   7  20
ATOM     20  C   UNL     1       5.203  -2.065  -6.407  0.00  0.00    +0.133 A 
ATOM     21  C   UNL     1       5.957  -1.354  -7.264  0.00  0.00    +0.047 A 
ATOM     22  C   UNL     1       7.282  -1.389  -6.771  0.00  0.00    +0.041 A 
ATOM     23  C   UNL     1       7.258  -2.119  -5.641  0.00  0.00    +0.195 A 
ATOM     24  O   UNL     1       5.995  -2.521  -5.423  0.00  0.00    -0.465 OA
ENDBRANCH   7  20
TORSDOF 3
