REMARK  Name = ZINC40549848
REMARK  9 active torsions:
REMARK  status: ('A' for Active; 'I' for Inactive)
REMARK    1  A    between atoms: C_1  and  C_2
REMARK    2  A    between atoms: C_4  and  C_10
REMARK    3  A    between atoms: C_5  and  O_9
REMARK    4  A    between atoms: C_7  and  C_8
REMARK    5  A    between atoms: C_12  and  C_16
REMARK    6  A    between atoms: N_18  and  C_19
REMARK    7  A    between atoms: C_20  and  C_27
REMARK    8  A    between atoms: N_29  and  C_30
REMARK    9  A    between atoms: C_30  and  C_31
REMARK                            x       y       z     vdW  Elec       q    Type
REMARK                         _______ _______ _______ _____ _____    ______ ____
ROOT
ATOM      1  C   UNL     1       0.051  -5.726  -4.708  0.00  0.00    +0.266 C 
ATOM      2  O   UNL     1       0.063  -6.756  -4.062  0.00  0.00    -0.268 OA
ATOM      3  N   UNL     1       0.048  -5.775  -6.055  0.00  0.00    -0.274 N 
ATOM      4  H   UNL     1       0.038  -4.953  -6.570  0.00  0.00    +0.156 HD
ENDROOT
BRANCH   3   5
ATOM      5  C   UNL     1       0.058  -6.999  -6.703  0.00  0.00    +0.085 A 
ATOM      6  C   UNL     1       0.062  -7.240  -8.065  0.00  0.00    +0.069 A 
ATOM      7  C   UNL     1       0.074  -8.636  -8.498  0.00  0.00    -0.023 A 
ATOM      8  C   UNL     1       0.078  -9.524  -7.487  0.00  0.00    -0.004 A 
ATOM      9  S   UNL     1       0.076  -8.529  -6.018  0.00  0.00    -0.077 S 
ATOM     10  C   UNL     1       0.086 -10.943  -7.988  0.00  0.00    +0.043 C 
ATOM     11  C   UNL     1      -0.347 -10.838  -9.467  0.00  0.00    +0.010 C 
ATOM     12  C   UNL     1       0.086  -9.400  -9.820  0.00  0.00    +0.037 C 
BRANCH   6  13
ATOM     13  C   UNL     1       0.055  -6.140  -9.035  0.00  0.00    +0.247 C 
ATOM     14  O   UNL     1       1.106  -5.675  -9.436  0.00  0.00    -0.270 OA
ATOM     15  N   UNL     1      -1.116  -5.644  -9.482  0.00  0.00    -0.309 N 
ATOM     16  H   UNL     1      -1.953  -6.014  -9.162  0.00  0.00    +0.149 HD
BRANCH  15  17
ATOM     17  C   UNL     1      -1.123  -4.545 -10.451  0.00  0.00    +0.136 C 
BRANCH  17  18
ATOM     18  C   UNL     1      -2.568  -4.174 -10.790  0.00  0.00    +0.135 C 
ATOM     19  C   UNL     1      -2.587  -3.101 -11.899  0.00  0.00    +0.035 C 
ATOM     20  C   UNL     1      -3.747  -2.175 -11.443  0.00  0.00    +0.031 C 
ATOM     21  C   UNL     1      -3.603  -2.261  -9.902  0.00  0.00    +0.160 C 
ATOM     22  O   UNL     1      -3.211  -3.619  -9.637  0.00  0.00    -0.375 OA
ENDBRANCH  17  18
ENDBRANCH  15  17
ENDBRANCH   6  13
ENDBRANCH   3   5
BRANCH   1  25
ATOM     23  C   UNL     1       0.029  -2.815  -2.496  0.00  0.00    +0.097 A 
ATOM     24  C   UNL     1       0.042  -4.213  -2.653  0.00  0.00    +0.062 A 
ATOM     25  C   UNL     1       0.040  -4.426  -4.019  0.00  0.00    +0.121 A 
ATOM     26  N   UNL     1       0.026  -3.190  -4.604  0.00  0.00    -0.272 N 
ATOM     27  H   UNL     1       0.022  -3.026  -5.559  0.00  0.00    +0.189 HD
ATOM     28  N   UNL     1       0.014  -2.279  -3.698  0.00  0.00    -0.173 NA
BRANCH  23  32
ATOM     29  C   UNL     1      -0.018   1.503   0.010  0.00  0.00    +0.044 C 
ATOM     30  C   UNL     1       0.002  -0.004   0.002  0.00  0.00    -0.047 A 
ATOM     31  C   UNL     1       0.006  -0.685  -1.199  0.00  0.00    +0.017 A 
ATOM     32  C   UNL     1       0.025  -2.077  -1.208  0.00  0.00    +0.044 A 
ATOM     33  C   UNL     1       0.041  -2.778   0.002  0.00  0.00    +0.126 A 
ATOM     34  C   UNL     1       0.037  -2.082   1.200  0.00  0.00    +0.049 A 
ATOM     35  C   UNL     1       0.023  -0.700   1.198  0.00  0.00    -0.044 A 
ATOM     36  C   UNL     1       0.025   0.053   2.503  0.00  0.00    +0.044 C 
BRANCH  33  37
ATOM     37  O   UNL     1       0.059  -4.136   0.003  0.00  0.00    -0.506 OA
ATOM     38  H   UNL     1       0.948  -4.518  -0.001  0.00  0.00    +0.292 HD
ENDBRANCH  33  37
ENDBRANCH  23  32
ENDBRANCH   1  25
TORSDOF 7
