REMARK  Name = ZINC57791066
REMARK  10 active torsions:
REMARK  status: ('A' for Active; 'I' for Inactive)
REMARK    1  A    between atoms: C_1  and  C_2
REMARK    2  A    between atoms: C_2  and  C_3
REMARK    3  A    between atoms: N_7  and  C_18
REMARK    4  A    between atoms: C_10  and  C_15
REMARK    5  A    between atoms: C_15  and  C_16
REMARK    6  A    between atoms: C_15  and  C_17
REMARK    7  A    between atoms: C_18  and  C_19
REMARK    8  A    between atoms: C_19  and  C_20
REMARK    9  A    between atoms: C_19  and  C_21
REMARK   10  A    between atoms: C_19  and  N_22
REMARK                            x       y       z     vdW  Elec       q    Type
REMARK                         _______ _______ _______ _____ _____    ______ ____
ROOT
ATOM      1  C   UNL     1       0.718  -0.497  -1.257  0.00  0.00    +0.259 C 
ATOM      2  C   UNL     1       0.629  -2.001  -1.328  0.00  0.00    +0.261 C 
ATOM      3  O   UNL     1      -0.274  -2.529  -1.942  0.00  0.00    -0.271 OA
ATOM      4  N   UNL     1       1.559  -2.756  -0.706  0.00  0.00    -0.267 N 
ATOM      5  C   UNL     1       2.663  -2.130  -0.111  0.00  0.00    +0.079 A 
ATOM      6  C   UNL     1       3.510  -2.841   0.724  0.00  0.00    +0.031 A 
ATOM      7  C   UNL     1       4.587  -2.205   1.314  0.00  0.00    -0.043 A 
ATOM      8  C   UNL     1       4.819  -0.863   1.074  0.00  0.00    +0.007 A 
ATOM      9  C   UNL     1       3.980  -0.150   0.237  0.00  0.00    +0.048 A 
ATOM     10  C   UNL     1       2.904  -0.781  -0.362  0.00  0.00    +0.143 A 
ATOM     11  O   UNL     1       2.090  -0.099  -1.211  0.00  0.00    -0.478 OA
ENDROOT
BRANCH   7  12
ATOM     12  C   UNL     1       5.510  -2.977   2.222  0.00  0.00    +0.013 C 
ATOM     13  C   UNL     1       6.930  -2.942   1.654  0.00  0.00    +0.012 C 
ATOM     14  C   UNL     1       5.502  -2.343   3.615  0.00  0.00    +0.012 C 
ENDBRANCH   7  12
BRANCH   1  16
ATOM     15  C   UNL     1      -0.019   1.526   0.010  0.00  0.00    +0.008 C 
ATOM     16  C   UNL     1       0.002  -0.004   0.002  0.00  0.00    +0.051 C 
ENDBRANCH   1  16
BRANCH   4  17
ATOM     17  C   UNL     1       1.416  -4.213  -0.653  0.00  0.00    +0.100 C 
BRANCH  17  18
ATOM     18  C   UNL     1       2.099  -4.838  -1.872  0.00  0.00    -0.060 C 
ATOM     19  C   UNL     1       1.949  -6.359  -1.817  0.00  0.00    -0.009 C 
ATOM     20  C   UNL     1       1.446  -4.307  -3.150  0.00  0.00    -0.009 C 
BRANCH  18  21
ATOM     21  N   UNL     1       3.525  -4.485  -1.868  0.00  0.00    +0.382 N 
ATOM     22  H   UNL     1       3.955  -4.835  -1.025  0.00  0.00    -0.089 HD
ATOM     23  H   UNL     1       3.975  -4.897  -2.672  0.00  0.00    -0.089 HD
ATOM     24  H   UNL     1       3.623  -3.482  -1.904  0.00  0.00    -0.089 HD
ENDBRANCH  18  21
ENDBRANCH  17  18
ENDBRANCH   4  17
TORSDOF 5
