REMARK  Name = ZINC20701364
REMARK  4 active torsions:
REMARK  status: ('A' for Active; 'I' for Inactive)
REMARK    1  A    between atoms: C_6  and  S_7
REMARK    2  A    between atoms: S_7  and  N_10
REMARK    3  A    between atoms: C_23  and  C_26
REMARK    4  A    between atoms: C_31  and  O_32
REMARK                            x       y       z     vdW  Elec       q    Type
REMARK                         _______ _______ _______ _____ _____    ______ ____
ROOT
ATOM      1  C   UNL     1      -1.126  -0.732  -0.485  0.00  0.00    +0.030 A 
ATOM      2  C   UNL     1      -1.104  -2.112  -0.493  0.00  0.00    +0.025 A 
ATOM      3  C   UNL     1       0.010  -2.799  -0.028  0.00  0.00    +0.031 A 
ATOM      4  C   UNL     1       1.108  -2.075   0.452  0.00  0.00    -0.018 A 
ATOM      5  C   UNL     1       1.082  -0.697   0.443  0.00  0.00    +0.034 A 
ATOM      6  C   UNL     1      -0.035  -0.023  -0.018  0.00  0.00    +0.106 A 
ATOM      7  C   UNL     1       2.264  -2.844   0.960  0.00  0.00    +0.049 C 
ATOM      8  C   UNL     1       3.659  -2.307   0.971  0.00  0.00    -0.023 C 
ATOM      9  C   UNL     1       4.514  -3.306   0.787  0.00  0.00    -0.030 C 
ATOM     10  C   UNL     1       3.752  -4.623   0.625  0.00  0.00    +0.033 C 
ATOM     11  C   UNL     1       2.398  -4.133   0.094  0.00  0.00    +0.029 C 
ATOM     12  C   UNL     1       1.178  -4.972   0.427  0.00  0.00    +0.109 C 
ATOM     13  N   UNL     1       0.016  -4.199  -0.063  0.00  0.00    -0.336 N 
ATOM     14  H   UNL     1      -0.864  -4.723  -0.464  0.00  0.00    +0.147 HD
ENDROOT
BRANCH  12  15
ATOM     15  C   UNL     1       1.077  -5.176   1.917  0.00  0.00    +0.017 A 
ATOM     16  C   UNL     1       0.348  -4.291   2.688  0.00  0.00    +0.029 A 
ATOM     17  C   UNL     1       0.255  -4.477   4.055  0.00  0.00    +0.043 A 
ATOM     18  C   UNL     1       0.891  -5.549   4.655  0.00  0.00    +0.043 A 
ATOM     19  C   UNL     1       1.621  -6.437   3.888  0.00  0.00    +0.084 A 
ATOM     20  C   UNL     1       1.711  -6.255   2.514  0.00  0.00    +0.140 A 
ATOM     21 CL   UNL     1       2.419  -7.783   4.639  0.00  0.00    -0.080 Cl
ATOM     22 CL   UNL     1      -0.662  -3.362   5.021  0.00  0.00    -0.083 Cl
BRANCH  20  23
ATOM     23  O   UNL     1       2.424  -7.130   1.756  0.00  0.00    -0.505 OA
ATOM     24  H   UNL     1       2.926  -7.986   2.231  0.00  0.00    +0.292 HD
ENDBRANCH  20  23
ENDBRANCH  12  15
BRANCH   6  25
ATOM     25  S   UNL     1      -0.063   1.738  -0.017  0.00  0.00    +0.061 S 
ATOM     26  O   UNL     1       1.291   2.167  -0.039  0.00  0.00    -0.153 OA
ATOM     27  O   UNL     1      -1.002   2.130  -1.009  0.00  0.00    -0.153 OA
BRANCH  25  28
ATOM     28  N   UNL     1      -0.688   2.217   1.440  0.00  0.00    -0.172 NA
ATOM     29  C   UNL     1      -2.134   2.424   1.614  0.00  0.00    +0.137 C 
ATOM     30  C   UNL     1      -2.583   1.645   2.861  0.00  0.00    +0.177 C 
ATOM     31  O   UNL     1      -1.753   2.012   3.966  0.00  0.00    -0.377 OA
ATOM     32  C   UNL     1      -0.372   1.680   3.796  0.00  0.00    +0.177 C 
ATOM     33  C   UNL     1       0.189   2.455   2.598  0.00  0.00    +0.137 C 
ENDBRANCH  25  28
ENDBRANCH   6  25
TORSDOF 4
