REMARK  Name = ZINC40144203
REMARK  10 active torsions:
REMARK  status: ('A' for Active; 'I' for Inactive)
REMARK    1  A    between atoms: C_1  and  O_2
REMARK    2  A    between atoms: O_2  and  C_3
REMARK    3  A    between atoms: C_6  and  C_11
REMARK    4  A    between atoms: C_8  and  O_9
REMARK    5  A    between atoms: O_9  and  C_10
REMARK    6  A    between atoms: C_11  and  C_13
REMARK    7  A    between atoms: C_11  and  N_26
REMARK    8  A    between atoms: C_13  and  C_15
REMARK    9  A    between atoms: C_13  and  C_17
REMARK   10  A    between atoms: C_27  and  N_28
REMARK                            x       y       z     vdW  Elec       q    Type
REMARK                         _______ _______ _______ _____ _____    ______ ____
ROOT
ATOM      1  C   UNL     1       2.507  -2.501  -4.386  0.00  0.00    +0.160 C 
ENDROOT
BRANCH   1   2
ATOM      2  N   UNL     1       3.656  -1.697  -4.813  0.00  0.00    -0.261 N 
ATOM      3  C   UNL     1       4.947  -2.142  -4.944  0.00  0.00    +0.117 A 
ATOM      4  C   UNL     1       5.714  -1.092  -5.361  0.00  0.00    +0.114 A 
ATOM      5  C   UNL     1       4.882   0.029  -5.492  0.00  0.00    +0.266 A 
ATOM      6  O   UNL     1       5.230   1.143  -5.845  0.00  0.00    -0.266 OA
ATOM      7  N   UNL     1       3.628  -0.341  -5.163  0.00  0.00    -0.261 N 
ATOM      8  H   UNL     1       2.845   0.231  -5.167  0.00  0.00    +0.190 HD
BRANCH   3   9
ATOM      9  N   UNL     1       5.389  -3.417  -4.701  0.00  0.00    -0.343 N 
ATOM     10  H   UNL     1       4.765  -4.098  -4.407  0.00  0.00    +0.144 HD
ATOM     11  H   UNL     1       6.326  -3.637  -4.823  0.00  0.00    +0.144 HD
ENDBRANCH   3   9
ENDBRANCH   1   2
BRANCH   1  15
ATOM     12  C   UNL     1       1.046  -1.021  -0.650  0.00  0.00    +0.162 A 
ATOM     13  C   UNL     1       1.361  -0.140  -1.672  0.00  0.00    +0.050 A 
ATOM     14  C   UNL     1       1.833  -0.622  -2.878  0.00  0.00    +0.009 A 
ATOM     15  C   UNL     1       1.992  -1.982  -3.069  0.00  0.00    -0.018 A 
ATOM     16  C   UNL     1       1.680  -2.866  -2.054  0.00  0.00    +0.055 A 
ATOM     17  C   UNL     1       1.211  -2.390  -0.840  0.00  0.00    +0.162 A 
BRANCH  12  19
ATOM     18  C   UNL     1       0.436   0.867   0.661  0.00  0.00    +0.277 C 
ATOM     19  O   UNL     1       0.581  -0.549   0.538  0.00  0.00    -0.491 OA
ENDBRANCH  12  19
BRANCH  17  20
ATOM     20  O   UNL     1       0.909  -3.258   0.162  0.00  0.00    -0.491 OA
ATOM     21  C   UNL     1       1.104  -4.649  -0.104  0.00  0.00    +0.277 C 
ENDBRANCH  17  20
ENDBRANCH   1  15
BRANCH   1  22
ATOM     22  C   UNL     1       1.401  -2.408  -5.439  0.00  0.00    +0.176 C 
BRANCH  22  23
ATOM     23  C   UNL     1       1.875  -3.039  -6.723  0.00  0.00    +0.099 A 
ATOM     24  N   UNL     1       2.901  -2.700  -7.447  0.00  0.00    -0.243 NA
ATOM     25  C   UNL     1       3.224  -3.349  -8.585  0.00  0.00    +0.079 A 
ATOM     26  C   UNL     1       4.286  -3.123  -9.485  0.00  0.00    +0.029 A 
ATOM     27  C   UNL     1       4.434  -3.904 -10.591  0.00  0.00    +0.002 A 
ATOM     28  C   UNL     1       3.555  -4.941 -10.871  0.00  0.00    +0.001 A 
ATOM     29  C   UNL     1       2.502  -5.194 -10.012  0.00  0.00    +0.017 A 
ATOM     30  C   UNL     1       2.344  -4.411  -8.893  0.00  0.00    +0.039 A 
ATOM     31  S   UNL     1       1.200  -4.346  -7.540  0.00  0.00    -0.071 S 
ENDBRANCH  22  23
BRANCH  22  32
ATOM     32  C   UNL     1       1.071  -0.994  -5.680  0.00  0.00    +0.075 C 
ATOM     33  N   UNL     1       0.816   0.098  -5.866  0.00  0.00    -0.196 NA
ENDBRANCH  22  32
ENDBRANCH   1  22
TORSDOF 8
