REMARK  Name = ZINC36775534
REMARK  10 active torsions:
REMARK  status: ('A' for Active; 'I' for Inactive)
REMARK    1  A    between atoms: C_1  and  C_2
REMARK    2  A    between atoms: C_5  and  N_9
REMARK    3  A    between atoms: C_7  and  C_8
REMARK    4  A    between atoms: C_10  and  S_14
REMARK    5  A    between atoms: S_14  and  C_15
REMARK    6  A    between atoms: C_15  and  C_17
REMARK    7  A    between atoms: C_15  and  C_18
REMARK    8  A    between atoms: N_20  and  C_21
REMARK    9  A    between atoms: C_26  and  C_31
REMARK   10  A    between atoms: C_28  and  C_30
REMARK                            x       y       z     vdW  Elec       q    Type
REMARK                         _______ _______ _______ _____ _____    ______ ____
ROOT
ATOM      1  S   UNL     1      -1.529  -4.516  -2.292  0.00  0.00    -0.072 S 
ENDROOT
BRANCH   1   3
ATOM      2  N   UNL     1       0.057  -4.173  -0.021  0.00  0.00    -0.187 N 
ATOM      3  C   UNL     1      -0.550  -5.000  -0.908  0.00  0.00    +0.215 A 
ATOM      4  N   UNL     1      -0.271  -6.232  -0.540  0.00  0.00    -0.101 NA
ATOM      5  N   UNL     1       0.466  -6.231   0.511  0.00  0.00    -0.022 NA
ATOM      6  N   UNL     1       0.714  -5.023   0.886  0.00  0.00    -0.038 NA
BRANCH   2  11
ATOM      7  C   UNL     1      -0.018   1.503   0.010  0.00  0.00    +0.044 C 
ATOM      8  C   UNL     1       0.002  -0.004   0.002  0.00  0.00    -0.047 A 
ATOM      9  C   UNL     1       0.006  -0.688  -1.200  0.00  0.00    +0.006 A 
ATOM     10  C   UNL     1       0.024  -2.068  -1.211  0.00  0.00    +0.028 A 
ATOM     11  C   UNL     1       0.039  -2.771  -0.013  0.00  0.00    +0.070 A 
ATOM     12  C   UNL     1       0.036  -2.082   1.192  0.00  0.00    +0.031 A 
ATOM     13  C   UNL     1       0.023  -0.700   1.196  0.00  0.00    -0.046 A 
ATOM     14  C   UNL     1       0.026   0.048   2.504  0.00  0.00    +0.044 C 
ENDBRANCH   2  11
ENDBRANCH   1   3
BRANCH   1  15
ATOM     15  C   UNL     1      -2.030  -6.088  -3.046  0.00  0.00    +0.137 C 
ATOM     16  C   UNL     1      -2.934  -6.853  -2.078  0.00  0.00    +0.029 C 
BRANCH  15  17
ATOM     17  C   UNL     1      -2.780  -5.814  -4.324  0.00  0.00    +0.226 C 
ATOM     18  O   UNL     1      -3.275  -4.724  -4.516  0.00  0.00    -0.275 OA
ATOM     19  N   UNL     1      -2.901  -6.782  -5.255  0.00  0.00    -0.311 N 
ATOM     20  H   UNL     1      -2.505  -7.654  -5.101  0.00  0.00    +0.149 HD
BRANCH  19  21
ATOM     21  C   UNL     1      -3.630  -6.517  -6.497  0.00  0.00    +0.076 C 
ATOM     22  C   UNL     1      -2.688  -5.863  -7.511  0.00  0.00    +0.022 C 
ATOM     23  C   UNL     1      -3.450  -5.586  -8.809  0.00  0.00    +0.002 C 
ATOM     24  C   UNL     1      -3.980  -6.902  -9.380  0.00  0.00    +0.003 C 
ATOM     25  C   UNL     1      -4.921  -7.556  -8.367  0.00  0.00    -0.009 C 
ATOM     26  C   UNL     1      -4.160  -7.833  -7.069  0.00  0.00    +0.009 C 
ATOM     27  C   UNL     1      -5.101  -8.487  -6.055  0.00  0.00    +0.009 C 
ATOM     28  C   UNL     1      -6.093  -6.616  -8.079  0.00  0.00    +0.008 C 
ENDBRANCH  19  21
ENDBRANCH  15  17
ENDBRANCH   1  15
TORSDOF 5
