REMARK  Name = ZINC12698570
REMARK  4 active torsions:
REMARK  status: ('A' for Active; 'I' for Inactive)
REMARK    1  A    between atoms: C_4  and  N_7
REMARK    2  A    between atoms: C_8  and  C_14
REMARK    3  A    between atoms: N_16  and  N_17
REMARK    4  A    between atoms: C_18  and  C_20
REMARK                            x       y       z     vdW  Elec       q    Type
REMARK                         _______ _______ _______ _____ _____    ______ ____
ROOT
ATOM      1  C   UNL     1      -4.773  -0.966   0.581  0.00  0.00    +0.278 C 
ATOM      2  O   UNL     1      -4.977   0.232   0.640  0.00  0.00    -0.267 OA
ATOM      3  N   UNL     1      -3.538  -1.452   0.817  0.00  0.00    -0.229 N 
ATOM      4  H   UNL     1      -3.391  -2.411   0.843  0.00  0.00    +0.173 HD
ENDROOT
BRANCH   1   6
ATOM      5  N   UNL     1      -5.766  -3.260   0.038  0.00  0.00    -0.284 N 
ATOM      6  C   UNL     1      -5.871  -1.881   0.253  0.00  0.00    +0.128 A 
ATOM      7  C   UNL     1      -7.174  -1.551   0.108  0.00  0.00    +0.116 A 
ATOM      8  N   UNL     1      -7.865  -2.693  -0.199  0.00  0.00    -0.339 N 
ATOM      9  H   UNL     1      -8.820  -2.750  -0.359  0.00  0.00    +0.167 HD
ATOM     10  C   UNL     1      -7.001  -3.725  -0.235  0.00  0.00    +0.163 A 
ATOM     11  S   UNL     1      -7.403  -5.354  -0.574  0.00  0.00    -0.013 S 
BRANCH   5  15
ATOM     12  C   UNL     1      -2.268  -5.518   0.210  0.00  0.00    +0.000 A 
ATOM     13  C   UNL     1      -3.233  -5.664   1.191  0.00  0.00    +0.002 A 
ATOM     14  C   UNL     1      -4.393  -4.917   1.137  0.00  0.00    +0.026 A 
ATOM     15  C   UNL     1      -4.591  -4.019   0.096  0.00  0.00    +0.049 A 
ATOM     16  C   UNL     1      -3.623  -3.879  -0.890  0.00  0.00    +0.026 A 
ATOM     17  C   UNL     1      -2.462  -4.625  -0.827  0.00  0.00    +0.002 A 
ENDBRANCH   5  15
ENDBRANCH   1   6
BRANCH   3  18
ATOM     18  N   UNL     1      -2.467  -0.573   1.026  0.00  0.00    -0.230 N 
ATOM     19  C   UNL     1      -1.233  -1.059   1.262  0.00  0.00    +0.267 C 
ATOM     20  O   UNL     1      -1.048  -2.261   1.294  0.00  0.00    -0.268 OA
ATOM     21  H   UNL     1      -2.615   0.385   1.000  0.00  0.00    +0.173 HD
BRANCH  19  22
ATOM     22  C   UNL     1      -0.112  -0.139   1.480  0.00  0.00    +0.076 A 
ATOM     23  C   UNL     1       1.211  -0.424   1.733  0.00  0.00    +0.024 A 
ATOM     24  C   UNL     1       2.099   0.643   1.894  0.00  0.00    -0.036 A 
ATOM     25  C   UNL     1       1.580   1.886   1.846  0.00  0.00    -0.006 A 
ATOM     26  S   UNL     1      -0.102   1.642   1.487  0.00  0.00    -0.088 S 
ATOM     27  C   UNL     1       2.164   3.250   2.102  0.00  0.00    +0.043 C 
ATOM     28  C   UNL     1       3.637   3.184   2.509  0.00  0.00    +0.005 C 
ATOM     29  C   UNL     1       4.526   2.998   1.290  0.00  0.00    +0.000 C 
ATOM     30  C   UNL     1       3.914   2.078   0.253  0.00  0.00    +0.000 C 
ATOM     31  C   UNL     1       4.255   0.644   0.669  0.00  0.00    +0.005 C 
ATOM     32  C   UNL     1       3.587   0.345   2.011  0.00  0.00    +0.036 C 
ENDBRANCH  19  22
ENDBRANCH   3  18
TORSDOF 4
