REMARK  Name = ZINC62450220
REMARK  12 active torsions:
REMARK  status: ('A' for Active; 'I' for Inactive)
REMARK    1  A    between atoms: C_1  and  C_2
REMARK    2  A    between atoms: C_4  and  C_22
REMARK    3  A    between atoms: C_5  and  O_11
REMARK    4  A    between atoms: C_6  and  N_8
REMARK    5  A    between atoms: O_11  and  C_12
REMARK    6  A    between atoms: C_12  and  C_13
REMARK    7  A    between atoms: C_13  and  C_14
REMARK    8  A    between atoms: C_14  and  C_16
REMARK    9  A    between atoms: C_14  and  N_18
REMARK   10  A    between atoms: N_18  and  C_19
REMARK   11  A    between atoms: C_19  and  C_20
REMARK   12  A    between atoms: C_19  and  C_21
REMARK                            x       y       z     vdW  Elec       q    Type
REMARK                         _______ _______ _______ _____ _____    ______ ____
ROOT
ATOM      1  C   UNL     1      -0.018   1.503   0.010  0.00  0.00    +0.044 C 
ATOM      2  C   UNL     1       0.002  -0.004   0.002  0.00  0.00    -0.048 A 
ATOM      3  C   UNL     1       0.006  -0.688  -1.200  0.00  0.00    +0.010 A 
ATOM      4  C   UNL     1       0.025  -2.069  -1.210  0.00  0.00    -0.006 A 
ATOM      5  C   UNL     1       0.040  -2.770  -0.013  0.00  0.00    +0.153 A 
ATOM      6  C   UNL     1       0.037  -2.082   1.191  0.00  0.00    +0.168 A 
ATOM      7  C   UNL     1       0.023  -0.701   1.196  0.00  0.00    +0.039 A 
ATOM      8  C   UNL     1       0.028  -2.813  -2.521  0.00  0.00    +0.047 C 
ENDROOT
BRANCH   6   9
ATOM      9  N   UNL     1       0.053  -2.827   2.470  0.00  0.00    +0.060 N 
ATOM     10  O   UNL     1       0.050  -2.227   3.519  0.00  0.00    -0.126 OA
ATOM     11  O   UNL     1       0.069  -4.036   2.465  0.00  0.00    -0.126 OA
ENDBRANCH   6   9
BRANCH   5  12
ATOM     12  O   UNL     1       0.058  -4.129  -0.021  0.00  0.00    -0.489 OA
BRANCH  12  13
ATOM     13  C   UNL     1       1.340  -4.761  -0.031  0.00  0.00    +0.232 C 
BRANCH  13  14
ATOM     14  C   UNL     1       1.159  -6.280  -0.038  0.00  0.00    +0.075 C 
BRANCH  14  15
ATOM     15  C   UNL     1       2.532  -6.957  -0.049  0.00  0.00    +0.161 C 
BRANCH  15  16
ATOM     16  C   UNL     1       2.360  -8.413  -0.177  0.00  0.00    +0.081 C 
ATOM     17  N   UNL     1       2.227  -9.537  -0.276  0.00  0.00    -0.195 NA
ENDBRANCH  15  16
BRANCH  15  18
ATOM     18  N   UNL     1       3.236  -6.655   1.204  0.00  0.00    -0.299 NA
ATOM     19  H   UNL     1       2.972  -5.748   1.558  0.00  0.00    +0.123 HD
BRANCH  18  20
ATOM     20  C   UNL     1       4.691  -6.747   1.025  0.00  0.00    +0.049 C 
ATOM     21  C   UNL     1       5.390  -5.870   2.066  0.00  0.00    +0.023 C 
ATOM     22  C   UNL     1       5.136  -8.201   1.202  0.00  0.00    +0.023 C 
ENDBRANCH  18  20
ENDBRANCH  15  18
ENDBRANCH  14  15
ENDBRANCH  13  14
ENDBRANCH  12  13
ENDBRANCH   5  12
TORSDOF 8
