REMARK  Name = ZINC05856270
REMARK  10 active torsions:
REMARK  status: ('A' for Active; 'I' for Inactive)
REMARK    1  A    between atoms: C_1  and  C_2
REMARK    2  A    between atoms: C_4  and  S_28
REMARK    3  A    between atoms: C_5  and  S_9
REMARK    4  A    between atoms: S_9  and  C_10
REMARK    5  A    between atoms: C_10  and  C_12
REMARK    6  A    between atoms: C_10  and  C_13
REMARK    7  A    between atoms: C_20  and  C_25
REMARK    8  A    between atoms: C_20  and  C_26
REMARK    9  A    between atoms: C_22  and  C_24
REMARK   10  A    between atoms: S_28  and  N_31
REMARK                            x       y       z     vdW  Elec       q    Type
REMARK                         _______ _______ _______ _____ _____    ______ ____
ROOT
ATOM      1  C   UNL     1      -1.274   2.297   0.240  0.00  0.00    +0.116 C 
ATOM      2  C   UNL     1      -1.468   3.102   1.526  0.00  0.00    +0.027 C 
ENDROOT
BRANCH   1   3
ATOM      3  C   UNL     1       0.137   1.771   0.184  0.00  0.00    +0.149 A 
ATOM      4  N   UNL     1       1.133   2.588  -0.112  0.00  0.00    -0.198 NA
ATOM      5  C   UNL     1       2.380   2.127  -0.167  0.00  0.00    +0.217 A 
ATOM      6  N   UNL     1       2.623   0.843   0.075  0.00  0.00    -0.180 NA
ATOM      7  C   UNL     1       1.619   0.025   0.372  0.00  0.00    +0.243 A 
ATOM      8  N   UNL     1       0.374   0.494   0.426  0.00  0.00    -0.197 NA
ATOM      9  N   UNL     1       1.867  -1.310   0.625  0.00  0.00    -0.185 N 
ATOM     10  C   UNL     1       3.188  -1.958   0.594  0.00  0.00    +0.060 C 
ATOM     11  C   UNL     1       2.871  -3.425   0.951  0.00  0.00    +0.079 C 
ATOM     12  C   UNL     1       1.370  -3.434   1.137  0.00  0.00    +0.036 C 
ATOM     13  N   UNL     1       0.907  -2.267   0.946  0.00  0.00    -0.186 NA
ATOM     14  C   UNL     1       0.548  -4.645   1.496  0.00  0.00    +0.062 C 
ATOM     15  C   UNL     1       3.805  -1.861  -0.803  0.00  0.00    +0.034 C 
ATOM     16  C   UNL     1       4.118  -1.340   1.640  0.00  0.00    +0.034 C 
ATOM     17  N   UNL     1       3.420   2.981  -0.476  0.00  0.00    -0.327 N 
ATOM     18  H   UNL     1       4.328   2.644  -0.516  0.00  0.00    +0.145 HD
ATOM     19  H   UNL     1       3.241   3.918  -0.653  0.00  0.00    +0.145 HD
ENDBRANCH   1   3
BRANCH   1  20
ATOM     20  S   UNL     1      -1.579   3.365  -1.194  0.00  0.00    -0.112 S 
BRANCH  20  25
ATOM     21  C   UNL     1      -7.536   4.335  -1.057  0.00  0.00    +0.045 C 
ATOM     22  C   UNL     1      -6.049   4.092  -1.091  0.00  0.00    -0.030 A 
ATOM     23  C   UNL     1      -5.262   4.758  -2.013  0.00  0.00    +0.034 A 
ATOM     24  C   UNL     1      -3.899   4.543  -2.044  0.00  0.00    +0.119 A 
ATOM     25  C   UNL     1      -3.318   3.647  -1.154  0.00  0.00    +0.036 A 
ATOM     26  C   UNL     1      -4.110   2.979  -0.228  0.00  0.00    +0.037 A 
ATOM     27  C   UNL     1      -5.474   3.204  -0.199  0.00  0.00    +0.045 A 
ATOM     28 CL   UNL     1      -6.465   2.370   0.956  0.00  0.00    -0.083 Cl
BRANCH  24  29
ATOM     29  S   UNL     1      -2.897   5.398  -3.215  0.00  0.00    +0.057 S 
ATOM     30  O   UNL     1      -2.079   4.419  -3.840  0.00  0.00    -0.153 OA
ATOM     31  O   UNL     1      -3.768   6.246  -3.951  0.00  0.00    -0.153 OA
BRANCH  29  32
ATOM     32  N   UNL     1      -1.882   6.388  -2.360  0.00  0.00    -0.203 NA
ATOM     33  H   UNL     1      -1.005   6.604  -2.713  0.00  0.00    +0.144 HD
ATOM     34  H   UNL     1      -2.164   6.751  -1.506  0.00  0.00    +0.144 HD
ENDBRANCH  29  32
ENDBRANCH  24  29
ENDBRANCH  20  25
ENDBRANCH   1  20
TORSDOF 5
