REMARK  Name = ZINC55185778
REMARK  6 active torsions:
REMARK  status: ('A' for Active; 'I' for Inactive)
REMARK    1  A    between atoms: C_1  and  C_2
REMARK    2  A    between atoms: C_3  and  C_8
REMARK    3  A    between atoms: N_6  and  C_7
REMARK    4  A    between atoms: C_8  and  C_10
REMARK    5  A    between atoms: C_8  and  N_11
REMARK    6  A    between atoms: C_12  and  C_14
REMARK                            x       y       z     vdW  Elec       q    Type
REMARK                         _______ _______ _______ _____ _____    ______ ____
ROOT
ATOM      1  N   UNL     1       0.478  -1.401  -3.398  0.00  0.00    -0.303 N 
ATOM      2  C   UNL     1       1.028  -1.105  -4.592  0.00  0.00    +0.263 C 
ATOM      3  O   UNL     1       1.123   0.055  -4.947  0.00  0.00    -0.268 OA
ATOM      4  H   UNL     1       0.402  -2.326  -3.115  0.00  0.00    +0.150 HD
ENDROOT
BRANCH   2   5
ATOM      5  C   UNL     1       1.514  -2.184  -5.467  0.00  0.00    +0.135 A 
ATOM      6  C   UNL     1       2.080  -1.894  -6.682  0.00  0.00    +0.081 A 
ATOM      7  S   UNL     1       2.463  -3.537  -7.273  0.00  0.00    -0.060 S 
ATOM      8  C   UNL     1       1.839  -4.438  -5.861  0.00  0.00    +0.156 A 
ATOM      9  N   UNL     1       1.414  -3.460  -5.087  0.00  0.00    -0.221 NA
ATOM     10  N   UNL     1       1.815  -5.804  -5.638  0.00  0.00    -0.338 N 
ATOM     11  H   UNL     1       2.172  -6.411  -6.304  0.00  0.00    +0.144 HD
ATOM     12  H   UNL     1       1.440  -6.154  -4.814  0.00  0.00    +0.144 HD
ENDBRANCH   2   5
BRANCH   1  13
ATOM     13  C   UNL     1      -0.006  -0.327  -2.527  0.00  0.00    +0.104 C 
ATOM     14  C   UNL     1      -1.434   0.050  -2.927  0.00  0.00    +0.033 C 
BRANCH  13  17
ATOM     15  C   UNL     1      -0.018   1.503   0.010  0.00  0.00    +0.065 C 
ATOM     16  C   UNL     1       0.002  -0.004   0.002  0.00  0.00    +0.041 A 
ATOM     17  C   UNL     1       0.008  -0.796  -1.095  0.00  0.00    +0.013 A 
ATOM     18  C   UNL     1       0.028  -2.127  -0.666  0.00  0.00    +0.140 A 
ATOM     19  N   UNL     1       0.035  -2.134   0.643  0.00  0.00    -0.179 NA
ATOM     20  N   UNL     1       0.024  -0.805   1.088  0.00  0.00    -0.271 N 
ATOM     21  C   UNL     1       0.031  -0.364   2.485  0.00  0.00    +0.172 C 
ENDBRANCH  13  17
ENDBRANCH   1  13
TORSDOF 3
