REMARK  Name = ZINC12809438
REMARK  6 active torsions:
REMARK  status: ('A' for Active; 'I' for Inactive)
REMARK    1  A    between atoms: C_1  and  C_2
REMARK    2  A    between atoms: C_2  and  C_4
REMARK    3  A    between atoms: C_9  and  N_10
REMARK    4  A    between atoms: C_11  and  C_13
REMARK    5  A    between atoms: C_13  and  N_53
REMARK    6  A    between atoms: C_21  and  C_23
REMARK                            x       y       z     vdW  Elec       q    Type
REMARK                         _______ _______ _______ _____ _____    ______ ____
ROOT
ATOM      1  C   UNL     1      -1.287   3.468   0.244  0.00  0.00    +0.020 C 
ENDROOT
BRANCH   1  10
ATOM      2  C   UNL     1      -3.355   3.660   1.490  0.00  0.00    -0.072 C 
ATOM      3  C   UNL     1      -4.839   4.019   1.304  0.00  0.00    +0.024 C 
ATOM      4  C   UNL     1      -4.908   5.435   0.834  0.00  0.00    -0.010 A 
ATOM      5  C   UNL     1      -3.876   6.185   0.355  0.00  0.00    -0.047 A 
ATOM      6  C   UNL     1      -4.179   7.491  -0.023  0.00  0.00    +0.010 A 
ATOM      7  C   UNL     1      -5.446   7.952   0.092  0.00  0.00    +0.045 A 
ATOM      8  S   UNL     1      -6.297   6.530   0.760  0.00  0.00    -0.101 S 
ATOM      9  C   UNL     1      -2.481   5.574   0.261  0.00  0.00    -0.005 C 
ATOM     10  N   UNL     1      -2.621   4.099   0.279  0.00  0.00    +0.393 N 
ATOM     11  H   UNL     1      -3.149   3.806  -0.552  0.00  0.00    -0.080 HD
BRANCH   9  12
ATOM     12  C   UNL     1      -1.836   5.984  -1.037  0.00  0.00    -0.057 A 
ATOM     13  C   UNL     1      -2.172   5.337  -2.211  0.00  0.00    +0.002 A 
ATOM     14  C   UNL     1      -1.583   5.716  -3.403  0.00  0.00    +0.000 A 
ATOM     15  C   UNL     1      -0.651   6.737  -3.419  0.00  0.00    +0.000 A 
ATOM     16  C   UNL     1      -0.311   7.381  -2.244  0.00  0.00    +0.000 A 
ATOM     17  C   UNL     1      -0.903   7.005  -1.054  0.00  0.00    +0.002 A 
ENDBRANCH   9  12
ENDBRANCH   1  10
BRANCH   1  19
ATOM     18  N   UNL     1       0.772   3.379   1.612  0.00  0.00    -0.286 N 
ATOM     19  C   UNL     1      -0.489   3.833   1.469  0.00  0.00    +0.201 C 
ATOM     20  O   UNL     1      -0.982   4.535   2.327  0.00  0.00    -0.278 OA
ATOM     21  H   UNL     1       1.192   2.880   0.894  0.00  0.00    +0.155 HD
BRANCH  18  27
ATOM     22  C   UNL     1       2.875   3.667   2.786  0.00  0.00    +0.042 A 
ATOM     23  C   UNL     1       3.568   3.917   3.979  0.00  0.00    +0.062 A 
ATOM     24  C   UNL     1       2.871   4.105   5.153  0.00  0.00    +0.167 A 
ATOM     25  C   UNL     1       1.474   4.053   5.157  0.00  0.00    +0.168 A 
ATOM     26  C   UNL     1       0.781   3.813   3.981  0.00  0.00    +0.073 A 
ATOM     27  C   UNL     1       1.470   3.621   2.793  0.00  0.00    +0.048 A 
ATOM     28  O   UNL     1       1.035   4.269   6.430  0.00  0.00    -0.453 OA
ATOM     29  C   UNL     1       2.148   4.859   7.127  0.00  0.00    +0.466 C 
ATOM     30  O   UNL     1       3.300   4.354   6.426  0.00  0.00    -0.453 OA
BRANCH  22  32
ATOM     31  C   UNL     1       5.117   3.385   1.553  0.00  0.00    +0.091 C 
ATOM     32  C   UNL     1       3.612   3.460   1.537  0.00  0.00    +0.162 C 
ATOM     33  O   UNL     1       3.010   3.348   0.489  0.00  0.00    -0.292 OA
ENDBRANCH  22  32
ENDBRANCH  18  27
ENDBRANCH   1  19
TORSDOF 5
