REMARK  Name = ZINC00643964
REMARK  10 active torsions:
REMARK  status: ('A' for Active; 'I' for Inactive)
REMARK    1  A    between atoms: C_1  and  C_2
REMARK    2  A    between atoms: C_2  and  O_3
REMARK    3  A    between atoms: O_3  and  C_4
REMARK    4  A    between atoms: C_4  and  C_6
REMARK    5  A    between atoms: C_10  and  N_11
REMARK    6  A    between atoms: C_12  and  C_14
REMARK    7  A    between atoms: C_20  and  C_24
REMARK    8  A    between atoms: C_24  and  C_25
REMARK    9  A    between atoms: C_24  and  C_26
REMARK   10  A    between atoms: C_24  and  C_27
REMARK                            x       y       z     vdW  Elec       q    Type
REMARK                         _______ _______ _______ _____ _____    ______ ____
ROOT
ATOM      1  C   UNL     1       1.233   3.539   0.009  0.00  0.00    +0.091 A 
ATOM      2  C   UNL     1       1.268   4.287   1.256  0.00  0.00    -0.021 A 
ATOM      3  C   UNL     1       1.324   5.629   1.120  0.00  0.00    -0.004 A 
ATOM      4  S   UNL     1       1.317   5.909  -0.628  0.00  0.00    -0.077 S 
ATOM      5  C   UNL     1       1.249   4.266  -1.175  0.00  0.00    +0.087 A 
ATOM      6  C   UNL     1       1.376   6.646   2.218  0.00  0.00    +0.046 C 
ATOM      7  C   UNL     1       1.725   5.929   3.527  0.00  0.00    -0.000 C 
ATOM      8  C   UNL     1       0.841   4.687   3.668  0.00  0.00    +0.009 C 
ATOM      9  C   UNL     1       1.250   3.637   2.634  0.00  0.00    +0.037 C 
ENDROOT
BRANCH   5  10
ATOM     10  N   UNL     1       1.218   3.793  -2.475  0.00  0.00    -0.273 N 
ATOM     11  C   UNL     1       1.241   4.658  -3.508  0.00  0.00    +0.284 C 
ATOM     12  O   UNL     1       1.288   5.856  -3.297  0.00  0.00    -0.266 OA
ATOM     13  H   UNL     1       1.180   2.838  -2.643  0.00  0.00    +0.156 HD
BRANCH  11  14
ATOM     14  C   UNL     1       1.208   4.157  -4.885  0.00  0.00    +0.189 A 
ATOM     15  C   UNL     1       1.221   4.920  -6.018  0.00  0.00    +0.054 A 
ATOM     16  C   UNL     1       1.182   4.032  -7.104  0.00  0.00    +0.042 A 
ATOM     17  C   UNL     1       1.139   2.781  -6.593  0.00  0.00    +0.196 A 
ATOM     18  O   UNL     1       1.155   2.861  -5.256  0.00  0.00    -0.458 OA
ENDBRANCH  11  14
ENDBRANCH   5  10
BRANCH   7  19
ATOM     19  C   UNL     1       1.482   6.868   4.710  0.00  0.00    -0.035 C 
ATOM     20  C   UNL     1       1.824   6.145   6.015  0.00  0.00    +0.011 C 
ATOM     21  C   UNL     1       2.368   8.108   4.567  0.00  0.00    +0.011 C 
ATOM     22  C   UNL     1       0.012   7.291   4.732  0.00  0.00    +0.011 C 
ENDBRANCH   7  19
BRANCH   1  23
ATOM     23  C   UNL     1       1.176   2.076   0.002  0.00  0.00    +0.342 C 
ATOM     24  O   UNL     1       2.205   1.428  -0.011  0.00  0.00    -0.245 OA
BRANCH  23  25
ATOM     25  O   UNL     1      -0.018   1.448   0.010  0.00  0.00    -0.461 OA
BRANCH  25  27
ATOM     26  C   UNL     1      -1.433  -0.534   0.013  0.00  0.00    +0.048 C 
ATOM     27  C   UNL     1       0.002  -0.004   0.002  0.00  0.00    +0.229 C 
ENDBRANCH  25  27
ENDBRANCH  23  25
ENDBRANCH   1  23
TORSDOF 6
