REMARK  Name = ZINC64173271
REMARK  7 active torsions:
REMARK  status: ('A' for Active; 'I' for Inactive)
REMARK    1  A    between atoms: C_1  and  C_2
REMARK    2  A    between atoms: C_4  and  C_30
REMARK    3  A    between atoms: C_12  and  C_14
REMARK    4  A    between atoms: C_14  and  C_16
REMARK    5  A    between atoms: C_14  and  N_26
REMARK    6  A    between atoms: C_16  and  C_17
REMARK    7  A    between atoms: C_27  and  C_29
REMARK                            x       y       z     vdW  Elec       q    Type
REMARK                         _______ _______ _______ _____ _____    ______ ____
ROOT
ATOM      1  C   UNL     1       0.125  -7.989   3.172  0.00  0.00    +0.163 C 
ENDROOT
BRANCH   1  13
ATOM      2  C   UNL     1      -0.018   1.503   0.010  0.00  0.00    +0.044 C 
ATOM      3  C   UNL     1       0.002  -0.004   0.002  0.00  0.00    -0.049 A 
ATOM      4  C   UNL     1       0.006  -0.698  -1.199  0.00  0.00    +0.009 A 
ATOM      5  C   UNL     1       0.024  -2.068  -1.235  0.00  0.00    -0.024 A 
ATOM      6  C   UNL     1       0.040  -2.822  -0.038  0.00  0.00    +0.083 A 
ATOM      7  C   UNL     1       0.036  -2.081   1.166  0.00  0.00    +0.041 A 
ATOM      8  C   UNL     1       0.023  -0.709   1.191  0.00  0.00    +0.020 A 
ATOM      9  S   UNL     1       0.059  -3.361   2.397  0.00  0.00    -0.052 S 
ATOM     10  C   UNL     1       0.073  -4.752   1.275  0.00  0.00    +0.166 A 
ATOM     11  N   UNL     1       0.059  -4.165   0.101  0.00  0.00    -0.224 NA
ATOM     12  N   UNL     1       0.093  -6.106   1.569  0.00  0.00    -0.263 N 
ATOM     13  C   UNL     1       0.104  -6.517   2.853  0.00  0.00    +0.239 C 
ATOM     14  O   UNL     1       0.097  -5.701   3.750  0.00  0.00    -0.273 OA
ATOM     15  C   UNL     1       0.027  -2.779  -2.563  0.00  0.00    +0.046 C 
ATOM     16  H   UNL     1       0.099  -6.758   0.851  0.00  0.00    +0.157 HD
ENDBRANCH   1  13
BRANCH   1  17
ATOM     17  N   UNL     1      -0.339  -8.197   4.546  0.00  0.00    -0.304 N 
ATOM     18  C   UNL     1       0.324  -7.631   5.574  0.00  0.00    +0.211 C 
ATOM     19  O   UNL     1       1.304  -6.949   5.362  0.00  0.00    -0.276 OA
ATOM     20  C   UNL     1      -0.153  -7.845   6.988  0.00  0.00    +0.109 C 
ATOM     21  H   UNL     1      -1.123  -8.743   4.716  0.00  0.00    +0.149 HD
ENDBRANCH   1  17
BRANCH   1  22
ATOM     22  C   UNL     1       1.553  -8.521   3.030  0.00  0.00    +0.065 C 
BRANCH  22  23
ATOM     23  C   UNL     1       1.554 -10.015   3.229  0.00  0.00    -0.039 C 
ATOM     24  C   UNL     1       1.496 -10.964   2.267  0.00  0.00    -0.001 A 
ATOM     25  C   UNL     1       1.415 -10.892   0.803  0.00  0.00    +0.010 A 
ATOM     26  C   UNL     1       1.369 -12.041   0.092  0.00  0.00    +0.001 A 
ATOM     27  C   UNL     1       1.395 -13.296   0.716  0.00  0.00    +0.002 A 
ATOM     28  C   UNL     1       1.468 -13.443   2.055  0.00  0.00    +0.026 A 
ATOM     29  C   UNL     1       1.523 -12.301   2.902  0.00  0.00    +0.043 A 
ATOM     30  N   UNL     1       1.595 -12.184   4.205  0.00  0.00    -0.380 N 
ATOM     31  C   UNL     1       1.628 -10.757   4.545  0.00  0.00    +0.144 C 
ATOM     32  H   UNL     1       1.625 -12.917   4.839  0.00  0.00    +0.160 HD
ENDBRANCH  22  23
ENDBRANCH   1  22
TORSDOF 4
