REMARK  Name = ZINC03241072
REMARK  9 active torsions:
REMARK  status: ('A' for Active; 'I' for Inactive)
REMARK    1  A    between atoms: C_1  and  N_2
REMARK    2  A    between atoms: C_3  and  N_33
REMARK    3  A    between atoms: C_4  and  C_11
REMARK    4  A    between atoms: N_7  and  C_10
REMARK    5  A    between atoms: C_11  and  C_13
REMARK    6  A    between atoms: C_13  and  O_14
REMARK    7  A    between atoms: O_14  and  C_15
REMARK    8  A    between atoms: C_15  and  C_17
REMARK    9  A    between atoms: C_19  and  C_27
REMARK                            x       y       z     vdW  Elec       q    Type
REMARK                         _______ _______ _______ _____ _____    ______ ____
ROOT
ATOM      1  C   UNL     1      -4.352  -5.362   0.205  0.00  0.00    +0.340 C 
ATOM      2  O   UNL     1      -3.487  -6.212   0.276  0.00  0.00    -0.245 OA
ENDROOT
BRANCH   1   3
ATOM      3  C   UNL     1      -5.777  -5.756   0.202  0.00  0.00    +0.070 A 
ATOM      4  C   UNL     1      -6.784  -4.821   0.005  0.00  0.00    +0.044 A 
ATOM      5  C   UNL     1      -8.123  -5.240   0.010  0.00  0.00    +0.072 A 
ATOM      6  N   UNL     1      -8.466  -6.497   0.195  0.00  0.00    -0.247 NA
ATOM      7  C   UNL     1      -7.565  -7.460   0.391  0.00  0.00    +0.072 A 
ATOM      8  C   UNL     1      -6.182  -7.147   0.400  0.00  0.00    +0.014 A 
ATOM      9  C   UNL     1      -5.240  -8.162   0.600  0.00  0.00    +0.011 A 
ATOM     10  C   UNL     1      -5.662  -9.446   0.781  0.00  0.00    +0.001 A 
ATOM     11  C   UNL     1      -7.019  -9.761   0.768  0.00  0.00    +0.002 A 
ATOM     12  C   UNL     1      -7.962  -8.797   0.587  0.00  0.00    +0.028 A 
BRANCH   5  13
ATOM     13  C   UNL     1      -9.189  -4.231  -0.201  0.00  0.00    +0.000 A 
ATOM     14  C   UNL     1      -8.856  -2.893  -0.405  0.00  0.00    +0.010 A 
ATOM     15  C   UNL     1      -9.852  -1.958  -0.600  0.00  0.00    +0.001 A 
ATOM     16  C   UNL     1     -11.180  -2.347  -0.593  0.00  0.00    +0.000 A 
ATOM     17  C   UNL     1     -11.516  -3.673  -0.391  0.00  0.00    +0.001 A 
ATOM     18  C   UNL     1     -10.528  -4.618  -0.201  0.00  0.00    +0.010 A 
ENDBRANCH   5  13
ENDBRANCH   1   3
BRANCH   1  19
ATOM     19  O   UNL     1      -4.013  -4.061   0.128  0.00  0.00    -0.453 OA
BRANCH  19  20
ATOM     20  C   UNL     1      -2.618  -3.752   0.135  0.00  0.00    +0.312 C 
BRANCH  20  21
ATOM     21  C   UNL     1      -2.432  -2.260   0.043  0.00  0.00    +0.209 C 
ATOM     22  O   UNL     1      -3.401  -1.530  -0.023  0.00  0.00    -0.288 OA
BRANCH  21  26
ATOM     23  C   UNL     1       0.560   1.615   0.100  0.00  0.00    +0.155 C 
ATOM     24  N   UNL     1       0.343   0.167   0.061  0.00  0.00    -0.284 N 
ATOM     25  C   UNL     1      -0.934  -0.318   0.071  0.00  0.00    +0.116 A 
ATOM     26  C   UNL     1      -1.133  -1.709   0.033  0.00  0.00    +0.123 A 
ATOM     27  C   UNL     1       0.055  -2.571  -0.017  0.00  0.00    +0.269 A 
ATOM     28  O   UNL     1      -0.057  -3.783  -0.051  0.00  0.00    -0.267 OA
ATOM     29  N   UNL     1       1.274  -1.992  -0.023  0.00  0.00    -0.263 N 
ATOM     30  C   UNL     1       1.401  -0.656   0.009  0.00  0.00    +0.333 A 
ATOM     31  O   UNL     1       2.517  -0.174  -0.003  0.00  0.00    -0.246 OA
ATOM     32  C   UNL     1       2.473  -2.832  -0.073  0.00  0.00    +0.157 C 
BRANCH  25  33
ATOM     33  N   UNL     1      -1.996   0.531   0.119  0.00  0.00    -0.344 N 
ATOM     34  H   UNL     1      -1.851   1.484   0.226  0.00  0.00    +0.144 HD
ATOM     35  H   UNL     1      -2.899   0.183   0.045  0.00  0.00    +0.144 HD
ENDBRANCH  25  33
ENDBRANCH  21  26
ENDBRANCH  20  21
ENDBRANCH  19  20
ENDBRANCH   1  19
TORSDOF 7
