REMARK  Name = ZINC05017596
REMARK  8 active torsions:
REMARK  status: ('A' for Active; 'I' for Inactive)
REMARK    1  A    between atoms: C_1  and  C_2
REMARK    2  A    between atoms: C_2  and  C_3
REMARK    3  A    between atoms: C_3  and  C_4
REMARK    4  A    between atoms: C_4  and  S_5
REMARK    5  A    between atoms: S_5  and  C_6
REMARK    6  A    between atoms: C_19  and  C_22
REMARK    7  A    between atoms: C_26  and  C_31
REMARK    8  A    between atoms: C_28  and  C_30
REMARK                            x       y       z     vdW  Elec       q    Type
REMARK                         _______ _______ _______ _____ _____    ______ ____
ROOT
ATOM      1  C   UNL     1       0.171  -8.217   1.975  0.00  0.00    +0.212 A 
ATOM      2  N   UNL     1      -0.078  -6.912   1.908  0.00  0.00    -0.184 NA
ATOM      3  C   UNL     1       0.825  -6.108   1.374  0.00  0.00    +0.248 A 
ATOM      4  C   UNL     1       2.027  -6.667   0.883  0.00  0.00    +0.156 A 
ATOM      5  N   UNL     1       2.215  -7.974   0.984  0.00  0.00    -0.141 NA
ATOM      6  N   UNL     1       1.310  -8.721   1.515  0.00  0.00    -0.122 NA
ATOM      7  C   UNL     1       3.042  -5.788   0.266  0.00  0.00    +0.028 A 
ATOM      8  C   UNL     1       4.384  -5.869   0.616  0.00  0.00    +0.012 A 
ATOM      9  C   UNL     1       5.304  -5.039   0.006  0.00  0.00    +0.001 A 
ATOM     10  C   UNL     1       4.897  -4.127  -0.953  0.00  0.00    +0.002 A 
ATOM     11  C   UNL     1       3.563  -4.032  -1.307  0.00  0.00    +0.023 A 
ATOM     12  C   UNL     1       2.630  -4.851  -0.700  0.00  0.00    +0.039 A 
ATOM     13  N   UNL     1       1.269  -4.758  -1.008  0.00  0.00    -0.309 N 
ATOM     14  C   UNL     1       0.354  -4.230   0.001  0.00  0.00    +0.266 C 
ATOM     15  O   UNL     1       0.620  -4.772   1.290  0.00  0.00    -0.453 OA
ATOM     16  H   UNL     1       0.938  -5.039  -1.876  0.00  0.00    +0.150 HD
ENDROOT
BRANCH  14  17
ATOM     17  C   UNL     1       0.502  -2.709   0.059  0.00  0.00    +0.055 C 
ATOM     18  C   UNL     1       0.363  -2.123  -1.348  0.00  0.00    +0.036 C 
ATOM     19  C   UNL     1       0.235  -0.630  -1.278  0.00  0.00    -0.027 C 
ATOM     20  C   UNL     1      -0.065   0.022  -0.201  0.00  0.00    -0.076 C 
ATOM     21  C   UNL     1      -0.329  -0.624   1.128  0.00  0.00    +0.034 C 
ATOM     22  C   UNL     1      -0.604  -2.117   0.942  0.00  0.00    -0.002 C 
ATOM     23  C   UNL     1      -0.608  -2.813   2.305  0.00  0.00    +0.008 C 
ATOM     24  C   UNL     1      -0.162   1.524  -0.288  0.00  0.00    +0.039 C 
ENDBRANCH  14  17
BRANCH   1  25
ATOM     25  S   UNL     1      -1.029  -9.293   2.686  0.00  0.00    -0.084 S 
BRANCH  25  26
ATOM     26  C   UNL     1      -0.173 -10.878   2.509  0.00  0.00    +0.077 C 
BRANCH  26  27
ATOM     27  C   UNL     1      -1.050 -11.997   3.075  0.00  0.00    +0.011 C 
BRANCH  27  29
ATOM     28  C   UNL     1      -1.203 -14.456   3.492  0.00  0.00    +0.004 C 
ATOM     29  C   UNL     1      -0.327 -13.337   2.926  0.00  0.00    -0.003 C 
ENDBRANCH  27  29
ENDBRANCH  26  27
ENDBRANCH  25  26
ENDBRANCH   1  25
TORSDOF 5
