REMARK  Name = ZINC66859808
REMARK  7 active torsions:
REMARK  status: ('A' for Active; 'I' for Inactive)
REMARK    1  A    between atoms: C_10  and  C_11
REMARK    2  A    between atoms: C_10  and  O_26
REMARK    3  A    between atoms: C_11  and  N_12
REMARK    4  A    between atoms: N_12  and  C_13
REMARK    5  A    between atoms: C_15  and  N_23
REMARK    6  A    between atoms: C_17  and  S_19
REMARK    7  A    between atoms: S_19  and  N_22
REMARK                            x       y       z     vdW  Elec       q    Type
REMARK                         _______ _______ _______ _____ _____    ______ ____
ROOT
ATOM      1  N   UNL     1       4.733   1.477  -0.622  0.00  0.00    -0.341 N 
ATOM      2  H   UNL     1       4.281   1.792   0.177  0.00  0.00    +0.146 HD
ENDROOT
BRANCH   1   3
ATOM      3  C   UNL     1       5.443   2.374  -1.423  0.00  0.00    +0.031 A 
ATOM      4  C   UNL     1       6.086   1.925  -2.569  0.00  0.00    +0.055 A 
ATOM      5  C   UNL     1       6.787   2.815  -3.359  0.00  0.00    +0.130 A 
ATOM      6  C   UNL     1       6.849   4.152  -3.010  0.00  0.00    +0.061 A 
ATOM      7  C   UNL     1       6.210   4.602  -1.869  0.00  0.00    +0.109 A 
ATOM      8  C   UNL     1       5.503   3.718  -1.077  0.00  0.00    +0.051 A 
BRANCH   7   9
ATOM      9  S   UNL     1       6.294   6.306  -1.427  0.00  0.00    +0.056 S 
ATOM     10  O   UNL     1       6.071   6.374  -0.026  0.00  0.00    -0.153 OA
ATOM     11  O   UNL     1       7.466   6.827  -2.038  0.00  0.00    -0.153 OA
BRANCH   9  12
ATOM     12  N   UNL     1       5.009   7.062  -2.148  0.00  0.00    -0.204 NA
ATOM     13  H   UNL     1       4.608   7.840  -1.731  0.00  0.00    +0.144 HD
ATOM     14  H   UNL     1       4.657   6.726  -2.988  0.00  0.00    +0.144 HD
ENDBRANCH   9  12
ENDBRANCH   7   9
BRANCH   5  15
ATOM     15  N   UNL     1       7.473   2.338  -4.581  0.00  0.00    +0.057 N 
ATOM     16  O   UNL     1       7.419   1.170  -4.887  0.00  0.00    -0.126 OA
ATOM     17  O   UNL     1       8.086   3.117  -5.273  0.00  0.00    -0.126 OA
ENDBRANCH   5  15
ENDBRANCH   1   3
BRANCH   1  18
ATOM     18  C   UNL     1       4.671   0.060  -0.987  0.00  0.00    +0.141 C 
BRANCH  18  28
ATOM     19  C   UNL     1       3.655  -4.802  -1.144  0.00  0.00    +0.000 A 
ATOM     20  C   UNL     1       3.617  -3.804  -2.100  0.00  0.00    +0.000 A 
ATOM     21  C   UNL     1       3.651  -2.481  -1.711  0.00  0.00    +0.007 A 
ATOM     22  C   UNL     1       3.726  -2.143  -0.366  0.00  0.00    -0.011 A 
ATOM     23  C   UNL     1       3.768  -3.136   0.586  0.00  0.00    -0.041 A 
ATOM     24  C   UNL     1       3.729  -4.468   0.193  0.00  0.00    +0.004 A 
ATOM     25  C   UNL     1       3.865  -2.843   2.060  0.00  0.00    +0.035 C 
ATOM     26  C   UNL     1       3.469  -1.396   2.348  0.00  0.00    +0.008 C 
ATOM     27  C   UNL     1       4.267  -0.481   1.413  0.00  0.00    +0.041 C 
ATOM     28  C   UNL     1       3.752  -0.679  -0.011  0.00  0.00    +0.106 C 
BRANCH  28  29
ATOM     29  O   UNL     1       2.431  -0.145  -0.113  0.00  0.00    -0.382 OA
ATOM     30  H   UNL     1       2.043  -0.220  -0.996  0.00  0.00    +0.211 HD
ENDBRANCH  28  29
ENDBRANCH  18  28
ENDBRANCH   1  18
TORSDOF 7
