REMARK  Name = ZINC20635870
REMARK  9 active torsions:
REMARK  status: ('A' for Active; 'I' for Inactive)
REMARK    1  A    between atoms: C_1  and  C_2
REMARK    2  A    between atoms: C_2  and  C_3
REMARK    3  A    between atoms: C_2  and  C_4
REMARK    4  A    between atoms: C_4  and  C_5
REMARK    5  A    between atoms: C_5  and  S_6
REMARK    6  A    between atoms: S_6  and  C_7
REMARK    7  A    between atoms: C_11  and  C_22
REMARK    8  A    between atoms: C_13  and  C_16
REMARK    9  A    between atoms: C_27  and  O_28
REMARK                            x       y       z     vdW  Elec       q    Type
REMARK                         _______ _______ _______ _____ _____    ______ ____
ROOT
ATOM      1  C   UNL     1      -1.606   4.240   2.770  0.00  0.00    +0.211 A 
ATOM      2  N   UNL     1      -2.095   3.360   3.641  0.00  0.00    -0.183 NA
ATOM      3  C   UNL     1      -2.669   4.003   4.654  0.00  0.00    +0.255 A 
ATOM      4  N   UNL     1      -3.288   3.570   5.756  0.00  0.00    -0.210 NA
ATOM      5  C   UNL     1      -3.794   4.423   6.635  0.00  0.00    +0.080 A 
ATOM      6  C   UNL     1      -3.686   5.808   6.419  0.00  0.00    +0.057 A 
ATOM      7  C   UNL     1      -3.052   6.257   5.291  0.00  0.00    +0.078 A 
ATOM      8  N   UNL     1      -2.544   5.342   4.409  0.00  0.00    -0.195 N 
ATOM      9  N   UNL     1      -1.858   5.462   3.193  0.00  0.00    -0.136 NA
ENDROOT
BRANCH   7  10
ATOM     10  C   UNL     1      -2.920   7.705   5.030  0.00  0.00    +0.001 A 
ATOM     11  C   UNL     1      -2.361   8.153   3.831  0.00  0.00    +0.010 A 
ATOM     12  C   UNL     1      -2.246   9.507   3.591  0.00  0.00    +0.001 A 
ATOM     13  C   UNL     1      -2.671  10.420   4.540  0.00  0.00    +0.000 A 
ATOM     14  C   UNL     1      -3.220   9.982   5.732  0.00  0.00    +0.001 A 
ATOM     15  C   UNL     1      -3.347   8.632   5.983  0.00  0.00    +0.010 A 
ENDBRANCH   7  10
BRANCH   5  16
ATOM     16  C   UNL     1      -4.474   3.916   7.848  0.00  0.00    +0.042 A 
ATOM     17  C   UNL     1      -5.008   4.808   8.777  0.00  0.00    +0.013 A 
ATOM     18  C   UNL     1      -5.641   4.330   9.905  0.00  0.00    +0.001 A 
ATOM     19  C   UNL     1      -5.749   2.967  10.120  0.00  0.00    +0.004 A 
ATOM     20  C   UNL     1      -5.224   2.073   9.207  0.00  0.00    +0.046 A 
ATOM     21  C   UNL     1      -4.590   2.538   8.065  0.00  0.00    +0.126 A 
BRANCH  21  22
ATOM     22  O   UNL     1      -4.078   1.660   7.165  0.00  0.00    -0.506 OA
ATOM     23  H   UNL     1      -4.170   0.578   7.338  0.00  0.00    +0.292 HD
ENDBRANCH  21  22
ENDBRANCH   5  16
BRANCH   1  24
ATOM     24  S   UNL     1      -0.759   3.833   1.279  0.00  0.00    -0.084 S 
BRANCH  24  25
ATOM     25  C   UNL     1      -0.735   2.019   1.269  0.00  0.00    +0.078 C 
BRANCH  25  26
ATOM     26  C   UNL     1      -0.019   1.526   0.010  0.00  0.00    +0.014 C 
BRANCH  26  28
ATOM     27  C   UNL     1       0.606  -0.499  -1.314  0.00  0.00    +0.007 C 
ATOM     28  C   UNL     1       0.002  -0.004   0.002  0.00  0.00    -0.016 C 
ATOM     29  C   UNL     1       0.848  -0.509   1.173  0.00  0.00    +0.007 C 
ENDBRANCH  26  28
ENDBRANCH  25  26
ENDBRANCH  24  25
ENDBRANCH   1  24
TORSDOF 7
