REMARK  Name = ZINC40802318
REMARK  5 active torsions:
REMARK  status: ('A' for Active; 'I' for Inactive)
REMARK    1  A    between atoms: C_1  and  C_2
REMARK    2  A    between atoms: C_4  and  C_26
REMARK    3  A    between atoms: C_8  and  N_25
REMARK    4  A    between atoms: C_9  and  N_13
REMARK    5  A    between atoms: C_17  and  C_20
REMARK                            x       y       z     vdW  Elec       q    Type
REMARK                         _______ _______ _______ _____ _____    ______ ____
ROOT
ATOM      1  C   UNL     1       1.389   1.132  -0.485  0.00  0.00    +0.067 C 
ATOM      2  C   UNL     1       0.682  -0.172  -0.224  0.00  0.00    +0.061 A 
ATOM      3  C   UNL     1      -0.411  -0.670  -0.942  0.00  0.00    +0.048 A 
ATOM      4  C   UNL     1      -0.756  -1.863  -0.404  0.00  0.00    +0.044 A 
ATOM      5  N   UNL     1       0.095  -2.111   0.625  0.00  0.00    -0.217 N 
ATOM      6  N   UNL     1       0.988  -1.035   0.711  0.00  0.00    -0.170 NA
ATOM      7  C   UNL     1       0.084  -3.240   1.449  0.00  0.00    +0.180 A 
ATOM      8  C   UNL     1       0.158  -3.106   2.835  0.00  0.00    +0.110 A 
ATOM      9  C   UNL     1       0.142  -4.268   3.612  0.00  0.00    +0.150 A 
ATOM     10  N   UNL     1       0.058  -5.448   3.004  0.00  0.00    -0.219 NA
ATOM     11  C   UNL     1      -0.010  -5.529   1.690  0.00  0.00    +0.225 A 
ATOM     12  N   UNL     1      -0.003  -4.458   0.923  0.00  0.00    -0.215 NA
ATOM     13  C   UNL     1      -1.881  -2.754  -0.863  0.00  0.00    +0.066 C 
ENDROOT
BRANCH   9  14
ATOM     14  N   UNL     1       0.214  -4.192   4.998  0.00  0.00    -0.282 N 
ATOM     15  C   UNL     1       0.198  -5.356   5.762  0.00  0.00    +0.142 A 
ATOM     16  C   UNL     1       0.265  -5.272   7.150  0.00  0.00    +0.081 A 
ATOM     17  C   UNL     1       0.248  -6.438   7.896  0.00  0.00    +0.037 A 
ATOM     18  C   UNL     1       0.164  -7.651   7.226  0.00  0.00    +0.074 A 
ATOM     19  C   UNL     1       0.101  -7.660   5.847  0.00  0.00    +0.125 A 
ATOM     20  N   UNL     1       0.114  -6.532   5.161  0.00  0.00    -0.238 NA
ATOM     21 CL   UNL     1       0.369  -3.727   7.934  0.00  0.00    -0.080 Cl
ATOM     22  H   UNL     1       0.276  -3.327   5.434  0.00  0.00    +0.155 HD
BRANCH  18  23
ATOM     23  C   UNL     1       0.143  -8.946   7.997  0.00  0.00    +0.419 C 
ATOM     24  F   UNL     1      -1.180  -9.289   8.296  0.00  0.00    -0.166 F 
ATOM     25  F   UNL     1       0.725  -9.958   7.225  0.00  0.00    -0.166 F 
ATOM     26  F   UNL     1       0.865  -8.793   9.185  0.00  0.00    -0.166 F 
ENDBRANCH  18  23
ENDBRANCH   9  14
BRANCH   8  27
ATOM     27  N   UNL     1       0.246  -1.841   3.432  0.00  0.00    -0.352 N 
ATOM     28  H   UNL     1       0.162  -1.042   2.889  0.00  0.00    +0.143 HD
ATOM     29  H   UNL     1       0.391  -1.765   4.388  0.00  0.00    +0.143 HD
ENDBRANCH   8  27
TORSDOF 3
