REMARK  Name = ZINC44608112
REMARK  6 active torsions:
REMARK  status: ('A' for Active; 'I' for Inactive)
REMARK    1  A    between atoms: C_1  and  C_2
REMARK    2  A    between atoms: C_2  and  N_3
REMARK    3  A    between atoms: N_3  and  C_4
REMARK    4  A    between atoms: C_4  and  C_5
REMARK    5  A    between atoms: C_6  and  C_8
REMARK    6  A    between atoms: N_11  and  C_27
REMARK                            x       y       z     vdW  Elec       q    Type
REMARK                         _______ _______ _______ _____ _____    ______ ____
ROOT
ATOM      1  C   UNL     1      -3.164  -1.707   1.283  0.00  0.00    +0.114 C 
ATOM      2  C   UNL     1      -3.586  -1.897   2.745  0.00  0.00    +0.112 C 
ATOM      3  N   UNL     1      -4.846  -2.643   2.774  0.00  0.00    -0.331 NA
ATOM      4  C   UNL     1      -5.935  -1.906   2.160  0.00  0.00    +0.099 C 
ATOM      5  C   UNL     1      -6.744  -1.141   3.215  0.00  0.00    +0.063 C 
ATOM      6  C   UNL     1      -7.840  -0.370   2.524  0.00  0.00    -0.020 A 
ATOM      7  C   UNL     1      -9.029   0.101   2.884  0.00  0.00    +0.087 A 
ATOM      8  N   UNL     1      -9.629   0.758   1.821  0.00  0.00    -0.360 N 
ATOM      9  H   UNL     1     -10.500   1.182   1.853  0.00  0.00    +0.165 HD
ATOM     10  C   UNL     1      -8.821   0.723   0.724  0.00  0.00    +0.047 A 
ATOM     11  C   UNL     1      -7.684   0.016   1.126  0.00  0.00    +0.010 A 
ATOM     12  C   UNL     1      -6.572  -0.279   0.309  0.00  0.00    -0.011 A 
ATOM     13  C   UNL     1      -6.639   0.191  -0.982  0.00  0.00    +0.009 A 
ATOM     14  C   UNL     1      -7.761   0.904  -1.400  0.00  0.00    +0.003 A 
ATOM     15  C   UNL     1      -8.856   1.185  -0.591  0.00  0.00    +0.026 A 
ATOM     16  C   UNL     1      -5.516  -1.041   1.003  0.00  0.00    -0.023 C 
ATOM     17  C   UNL     1      -4.268  -0.965   0.575  0.00  0.00    -0.007 C 
ATOM     18  H   UNL     1      -4.722  -3.514   2.281  0.00  0.00    +0.137 HD
ENDROOT
BRANCH   1  20
ATOM     19  N   UNL     1      -1.227  -0.782   0.053  0.00  0.00    -0.301 N 
ATOM     20  C   UNL     1      -1.889  -0.906   1.221  0.00  0.00    +0.224 C 
ATOM     21  O   UNL     1      -1.458  -0.372   2.221  0.00  0.00    -0.275 OA
BRANCH  19  23
ATOM     22  C   UNL     1      -0.134   1.386  -0.238  0.00  0.00    +0.024 C 
ATOM     23  C   UNL     1       0.073  -0.109   0.015  0.00  0.00    +0.104 C 
ENDBRANCH  19  23
BRANCH  19  24
ATOM     24  C   UNL     1      -1.808  -1.322  -1.179  0.00  0.00    +0.104 C 
ATOM     25  C   UNL     1      -1.444  -2.802  -1.309  0.00  0.00    +0.024 C 
ENDBRANCH  19  24
ENDBRANCH   1  20
BRANCH   3  26
ATOM     26  C   UNL     1      -5.187  -2.927   4.133  0.00  0.00    +0.151 C 
ATOM     27  N   UNL     1      -5.457  -3.152   5.214  0.00  0.00    -0.176 NA
ENDBRANCH   3  26
TORSDOF 4
