REMARK  Name = ZINC67190661
REMARK  7 active torsions:
REMARK  status: ('A' for Active; 'I' for Inactive)
REMARK    1  A    between atoms: C_1  and  C_2
REMARK    2  A    between atoms: C_2  and  N_3
REMARK    3  A    between atoms: C_9  and  C_11
REMARK    4  A    between atoms: C_11  and  C_12
REMARK    5  A    between atoms: C_12  and  C_14
REMARK    6  A    between atoms: C_12  and  N_15
REMARK    7  A    between atoms: C_16  and  C_18
REMARK                            x       y       z     vdW  Elec       q    Type
REMARK                         _______ _______ _______ _____ _____    ______ ____
ROOT
ATOM      1  C   UNL     1      -5.424  -5.019  -1.962  0.00  0.00    +0.079 C 
ATOM      2  C   UNL     1      -5.398  -6.513  -1.630  0.00  0.00    +0.028 C 
ENDROOT
BRANCH   1   3
ATOM      3  N   UNL     1      -6.787  -4.506  -1.798  0.00  0.00    -0.312 N 
ATOM      4  C   UNL     1      -7.673  -4.614  -2.808  0.00  0.00    +0.216 C 
ATOM      5  O   UNL     1      -7.342  -5.135  -3.852  0.00  0.00    -0.276 OA
ATOM      6  H   UNL     1      -7.051  -4.089  -0.963  0.00  0.00    +0.149 HD
BRANCH   4   7
ATOM      7  C   UNL     1      -9.074  -4.086  -2.640  0.00  0.00    +0.075 C 
ATOM      8  C   UNL     1      -9.754  -4.806  -1.474  0.00  0.00    +0.013 C 
ATOM      9  C   UNL     1     -11.177  -4.270  -1.303  0.00  0.00    +0.001 C 
ATOM     10  C   UNL     1     -11.972  -4.516  -2.587  0.00  0.00    +0.000 C 
ATOM     11  C   UNL     1     -11.292  -3.796  -3.753  0.00  0.00    +0.001 C 
ATOM     12  C   UNL     1      -9.869  -4.332  -3.924  0.00  0.00    +0.013 C 
ENDBRANCH   4   7
ENDBRANCH   1   3
BRANCH   1  13
ATOM     13  C   UNL     1      -4.481  -4.271  -1.018  0.00  0.00    +0.118 C 
BRANCH  13  20
ATOM     14  N   UNL     1      -1.376  -0.512   0.012  0.00  0.00    -0.300 NA
ATOM     15  C   UNL     1      -2.077  -0.159  -1.229  0.00  0.00    +0.103 C 
ATOM     16  C   UNL     1      -3.555  -0.545  -1.105  0.00  0.00    +0.123 C 
ATOM     17  N   UNL     1      -3.637  -1.964  -0.728  0.00  0.00    -0.299 N 
ATOM     18  C   UNL     1      -2.850  -2.424   0.427  0.00  0.00    +0.123 C 
ATOM     19  C   UNL     1      -1.400  -1.963   0.243  0.00  0.00    +0.103 C 
ATOM     20  C   UNL     1      -4.412  -2.821  -1.422  0.00  0.00    +0.217 C 
ATOM     21  O   UNL     1      -5.054  -2.425  -2.371  0.00  0.00    -0.276 OA
BRANCH  14  23
ATOM     22  C   UNL     1      -0.019   1.526   0.010  0.00  0.00    +0.020 C 
ATOM     23  C   UNL     1       0.002  -0.004   0.002  0.00  0.00    +0.081 C 
ENDBRANCH  14  23
ENDBRANCH  13  20
ENDBRANCH   1  13
TORSDOF 5
