REMARK  Name = ZINC66597522
REMARK  11 active torsions:
REMARK  status: ('A' for Active; 'I' for Inactive)
REMARK    1  A    between atoms: C_1  and  C_2
REMARK    2  A    between atoms: C_3  and  C_7
REMARK    3  A    between atoms: C_7  and  N_8
REMARK    4  A    between atoms: N_8  and  C_9
REMARK    5  A    between atoms: N_12  and  C_13
REMARK    6  A    between atoms: C_13  and  C_14
REMARK    7  A    between atoms: C_14  and  O_15
REMARK    8  A    between atoms: O_15  and  C_16
REMARK    9  A    between atoms: C_19  and  C_22
REMARK   10  A    between atoms: C_22  and  C_23
REMARK   11  A    between atoms: C_22  and  C_24
REMARK                            x       y       z     vdW  Elec       q    Type
REMARK                         _______ _______ _______ _____ _____    ______ ____
ROOT
ATOM      1  N   UNL     1       1.368  -0.036  -3.052  0.00  0.00    -0.284 N 
ATOM      2  C   UNL     1       2.071  -1.145  -3.701  0.00  0.00    +0.134 C 
ATOM      3  C   UNL     1       1.988   1.150  -2.885  0.00  0.00    +0.302 C 
ATOM      4  O   UNL     1       1.405   2.070  -2.346  0.00  0.00    -0.253 OA
ATOM      5  N   UNL     1       3.254   1.314  -3.316  0.00  0.00    -0.296 N 
ATOM      6  H   UNL     1       3.720   0.580  -3.746  0.00  0.00    +0.150 HD
ENDROOT
BRANCH   1   7
ATOM      7  C   UNL     1      -0.008  -0.215  -2.583  0.00  0.00    +0.153 C 
BRANCH   7  10
ATOM      8  C   UNL     1      -0.018   1.503   0.010  0.00  0.00    +0.066 C 
ATOM      9  C   UNL     1       0.002  -0.004   0.002  0.00  0.00    +0.050 A 
ATOM     10  C   UNL     1       0.006  -0.708  -1.159  0.00  0.00    +0.029 A 
ATOM     11  S   UNL     1       0.032  -2.379  -0.531  0.00  0.00    -0.079 S 
ATOM     12  C   UNL     1       0.036  -2.009   1.111  0.00  0.00    +0.156 A 
ATOM     13  N   UNL     1       0.023  -0.699   1.122  0.00  0.00    -0.252 NA
ENDBRANCH   7  10
ENDBRANCH   1   7
BRANCH   5  14
ATOM     14  C   UNL     1       3.928   2.603  -3.135  0.00  0.00    +0.146 C 
BRANCH  14  15
ATOM     15  C   UNL     1       5.345   2.522  -3.708  0.00  0.00    +0.247 C 
BRANCH  15  16
ATOM     16  O   UNL     1       5.276   2.326  -5.122  0.00  0.00    -0.490 OA
BRANCH  16  17
ATOM     17  C   UNL     1       6.457   2.233  -5.789  0.00  0.00    +0.121 A 
ATOM     18  C   UNL     1       7.655   2.322  -5.097  0.00  0.00    +0.046 A 
ATOM     19  C   UNL     1       8.854   2.226  -5.778  0.00  0.00    +0.007 A 
ATOM     20  C   UNL     1       8.859   2.042  -7.148  0.00  0.00    -0.045 A 
ATOM     21  C   UNL     1       7.665   1.954  -7.841  0.00  0.00    +0.007 A 
ATOM     22  C   UNL     1       6.464   2.043  -7.164  0.00  0.00    +0.046 A 
BRANCH  20  23
ATOM     23  C   UNL     1      10.167   1.939  -7.888  0.00  0.00    +0.013 C 
ATOM     24  C   UNL     1      10.248   0.584  -8.594  0.00  0.00    +0.012 C 
ATOM     25  C   UNL     1      10.256   3.060  -8.926  0.00  0.00    +0.012 C 
ENDBRANCH  20  23
ENDBRANCH  16  17
ENDBRANCH  15  16
ENDBRANCH  14  15
ENDBRANCH   5  14
TORSDOF 7
