REMARK  Name = ZINC65360131
REMARK  8 active torsions:
REMARK  status: ('A' for Active; 'I' for Inactive)
REMARK    1  A    between atoms: C_1  and  C_2
REMARK    2  A    between atoms: N_5  and  C_8
REMARK    3  A    between atoms: C_8  and  C_9
REMARK    4  A    between atoms: C_8  and  C_10
REMARK    5  A    between atoms: C_10  and  N_11
REMARK    6  A    between atoms: N_14  and  C_15
REMARK    7  A    between atoms: C_18  and  N_21
REMARK    8  A    between atoms: C_22  and  C_24
REMARK                            x       y       z     vdW  Elec       q    Type
REMARK                         _______ _______ _______ _____ _____    ______ ____
ROOT
ATOM      1  N   UNL     1       1.974  -3.894   2.399  0.00  0.00    -0.301 N 
ATOM      2  C   UNL     1       2.609  -4.094   3.571  0.00  0.00    +0.304 C 
ATOM      3  O   UNL     1       3.709  -4.612   3.585  0.00  0.00    -0.253 OA
ATOM      4  N   UNL     1       2.026  -3.720   4.727  0.00  0.00    -0.269 N 
ATOM      5  H   UNL     1       1.096  -3.481   2.388  0.00  0.00    +0.150 HD
ATOM      6  H   UNL     1       1.175  -3.255   4.712  0.00  0.00    +0.156 HD
ENDROOT
BRANCH   4   7
ATOM      7  C   UNL     1       2.648  -4.005   5.950  0.00  0.00    +0.035 A 
ATOM      8  C   UNL     1       1.880  -4.333   7.059  0.00  0.00    +0.025 A 
ATOM      9  C   UNL     1       2.493  -4.612   8.264  0.00  0.00    +0.025 A 
ATOM     10  C   UNL     1       3.877  -4.566   8.367  0.00  0.00    +0.034 A 
ATOM     11  C   UNL     1       4.645  -4.238   7.257  0.00  0.00    +0.025 A 
ATOM     12  C   UNL     1       4.032  -3.963   6.050  0.00  0.00    +0.025 A 
BRANCH  10  13
ATOM     13  N   UNL     1       4.499  -4.849   9.589  0.00  0.00    -0.279 N 
ATOM     14  C   UNL     1       3.965  -5.766  10.420  0.00  0.00    +0.284 C 
ATOM     15  O   UNL     1       2.994  -6.412  10.070  0.00  0.00    -0.266 OA
ATOM     16  H   UNL     1       5.314  -4.386   9.837  0.00  0.00    +0.155 HD
BRANCH  14  17
ATOM     17  C   UNL     1       4.552  -5.985  11.745  0.00  0.00    +0.189 A 
ATOM     18  C   UNL     1       4.116  -6.881  12.679  0.00  0.00    +0.054 A 
ATOM     19  C   UNL     1       4.965  -6.753  13.789  0.00  0.00    +0.042 A 
ATOM     20  C   UNL     1       5.872  -5.797  13.488  0.00  0.00    +0.196 A 
ATOM     21  O   UNL     1       5.623  -5.340  12.254  0.00  0.00    -0.458 OA
ENDBRANCH  14  17
ENDBRANCH  10  13
ENDBRANCH   4   7
BRANCH   1  22
ATOM     22  C   UNL     1       2.608  -4.300   1.143  0.00  0.00    +0.090 C 
BRANCH  22  23
ATOM     23  C   UNL     1       1.742  -3.850  -0.035  0.00  0.00    -0.054 C 
ATOM     24  C   UNL     1       2.452  -4.185  -1.348  0.00  0.00    -0.012 C 
BRANCH  23  29
ATOM     25  C   UNL     1       1.365   1.790  -0.787  0.00  0.00    +0.007 C 
ATOM     26  C   UNL     1       1.648   0.301  -0.993  0.00  0.00    -0.018 C 
ATOM     27  C   UNL     1       2.592  -0.197   0.105  0.00  0.00    -0.016 C 
ATOM     28  C   UNL     1       2.808  -1.703  -0.060  0.00  0.00    -0.078 C 
ATOM     29  N   UNL     1       1.520  -2.400   0.046  0.00  0.00    +0.382 N 
ATOM     30  C   UNL     1       0.635  -1.980  -1.046  0.00  0.00    -0.078 C 
ATOM     31  C   UNL     1       0.336  -0.485  -0.919  0.00  0.00    -0.016 C 
ATOM     32  H   UNL     1       1.090  -2.176   0.931  0.00  0.00    -0.081 HD
ENDBRANCH  23  29
ENDBRANCH  22  23
ENDBRANCH   1  22
TORSDOF 6
