REMARK  Name = ZINC00995182
REMARK  7 active torsions:
REMARK  status: ('A' for Active; 'I' for Inactive)
REMARK    1  A    between atoms: C_1  and  C_2
REMARK    2  A    between atoms: C_2  and  C_3
REMARK    3  A    between atoms: C_10  and  N_15
REMARK    4  A    between atoms: C_11  and  C_12
REMARK    5  A    between atoms: C_16  and  C_18
REMARK    6  A    between atoms: C_19  and  C_29
REMARK    7  A    between atoms: C_22  and  C_23
REMARK                            x       y       z     vdW  Elec       q    Type
REMARK                         _______ _______ _______ _____ _____    ______ ____
ROOT
ATOM      1  C   UNL     1       3.891   3.128  -0.398  0.00  0.00    -0.006 C 
ATOM      2  C   UNL     1       4.445   1.963   0.428  0.00  0.00    +0.008 C 
ATOM      3  C   UNL     1       3.805   0.651  -0.029  0.00  0.00    +0.037 C 
ATOM      4  C   UNL     1       2.290   0.813  -0.015  0.00  0.00    -0.023 A 
ATOM      5  C   UNL     1       1.722   2.038  -0.003  0.00  0.00    -0.004 A 
ATOM      6  S   UNL     1      -0.021   1.728   0.011  0.00  0.00    -0.077 S 
ATOM      7  C   UNL     1       0.002  -0.004   0.002  0.00  0.00    +0.085 A 
ATOM      8  C   UNL     1       1.358  -0.302  -0.012  0.00  0.00    +0.068 A 
ATOM      9  C   UNL     1       2.425   3.360  -0.004  0.00  0.00    +0.046 C 
ENDROOT
BRANCH   8  10
ATOM     10  C   UNL     1       1.831  -1.689  -0.025  0.00  0.00    +0.244 C 
ATOM     11  O   UNL     1       2.018  -2.259  -1.084  0.00  0.00    -0.270 OA
ATOM     12  N   UNL     1       2.060  -2.333   1.137  0.00  0.00    -0.325 N 
ATOM     13  H   UNL     1       1.912  -1.879   1.981  0.00  0.00    +0.145 HD
ATOM     14  H   UNL     1       2.374  -3.251   1.128  0.00  0.00    +0.145 HD
ENDBRANCH   8  10
BRANCH   7  15
ATOM     15  N   UNL     1      -1.072  -0.880   0.008  0.00  0.00    -0.275 N 
ATOM     16  C   UNL     1      -2.332  -0.401   0.023  0.00  0.00    +0.254 C 
ATOM     17  O   UNL     1      -2.526   0.799   0.031  0.00  0.00    -0.270 OA
ATOM     18  H   UNL     1      -0.917  -1.837   0.002  0.00  0.00    +0.156 HD
BRANCH  16  19
ATOM     19  C   UNL     1      -3.473  -1.332   0.029  0.00  0.00    +0.106 A 
ATOM     20  C   UNL     1      -4.146  -1.867  -1.040  0.00  0.00    +0.147 A 
ATOM     21  O   UNL     1      -5.100  -2.652  -0.534  0.00  0.00    -0.359 OA
ATOM     22  N   UNL     1      -5.110  -2.677   0.672  0.00  0.00    -0.077 NA
ATOM     23  C   UNL     1      -4.172  -1.925   1.188  0.00  0.00    +0.126 A 
ATOM     24  C   UNL     1      -3.864  -1.618  -2.499  0.00  0.00    +0.090 C 
BRANCH  23  25
ATOM     25  C   UNL     1      -3.876  -1.711   2.626  0.00  0.00    +0.004 A 
ATOM     26  C   UNL     1      -2.559  -1.544   3.052  0.00  0.00    +0.010 A 
ATOM     27  C   UNL     1      -2.289  -1.341   4.390  0.00  0.00    +0.001 A 
ATOM     28  C   UNL     1      -3.322  -1.313   5.309  0.00  0.00    +0.000 A 
ATOM     29  C   UNL     1      -4.630  -1.484   4.894  0.00  0.00    +0.001 A 
ATOM     30  C   UNL     1      -4.912  -1.683   3.557  0.00  0.00    +0.010 A 
ENDBRANCH  23  25
ENDBRANCH  16  19
ENDBRANCH   7  15
BRANCH   1  32
ATOM     31  C   UNL     1       4.220   5.526  -1.017  0.00  0.00    +0.004 C 
ATOM     32  C   UNL     1       4.705   4.391  -0.112  0.00  0.00    +0.000 C 
ENDBRANCH   1  32
TORSDOF 5
