REMARK  Name = ZINC49555019
REMARK  13 active torsions:
REMARK  status: ('A' for Active; 'I' for Inactive)
REMARK    1  A    between atoms: C_1  and  C_2
REMARK    2  A    between atoms: C_2  and  C_3
REMARK    3  A    between atoms: C_2  and  C_4
REMARK    4  A    between atoms: C_4  and  C_5
REMARK    5  A    between atoms: C_5  and  C_7
REMARK    6  A    between atoms: C_5  and  N_11
REMARK    7  A    between atoms: C_7  and  N_8
REMARK    8  A    between atoms: N_8  and  C_9
REMARK    9  A    between atoms: N_8  and  C_10
REMARK   10  A    between atoms: N_11  and  C_12
REMARK   11  A    between atoms: C_15  and  S_19
REMARK   12  A    between atoms: C_17  and  N_18
REMARK   13  A    between atoms: S_19  and  C_22
REMARK                            x       y       z     vdW  Elec       q    Type
REMARK                         _______ _______ _______ _____ _____    ______ ____
ROOT
ATOM      1  C   UNL     1       0.499  -3.398  -0.863  0.00  0.00    +0.048 A 
ATOM      2  C   UNL     1       0.958  -3.654   0.420  0.00  0.00    +0.026 A 
ATOM      3  C   UNL     1       2.151  -4.327   0.607  0.00  0.00    +0.029 A 
ATOM      4  C   UNL     1       2.890  -4.748  -0.484  0.00  0.00    +0.090 A 
ATOM      5  C   UNL     1       2.440  -4.497  -1.767  0.00  0.00    +0.051 A 
ATOM      6  C   UNL     1       1.242  -3.827  -1.963  0.00  0.00    +0.048 A 
ENDROOT
BRANCH   4   7
ATOM      7  S   UNL     1       4.410  -5.605  -0.237  0.00  0.00    -0.006 S 
ATOM      8  O   UNL     1       5.167  -5.344  -1.411  0.00  0.00    -0.170 OA
ATOM      9  O   UNL     1       4.870  -5.168   1.034  0.00  0.00    -0.170 OA
ATOM     10  C   UNL     1       3.950  -7.358  -0.167  0.00  0.00    +0.200 C 
ENDBRANCH   4   7
BRANCH   6  11
ATOM     11  N   UNL     1       0.782  -3.577  -3.261  0.00  0.00    -0.356 N 
ATOM     12  H   UNL     1      -0.055  -3.105  -3.397  0.00  0.00    +0.142 HD
ATOM     13  H   UNL     1       1.299  -3.876  -4.025  0.00  0.00    +0.142 HD
ENDBRANCH   6  11
BRANCH   1  14
ATOM     14  N   UNL     1      -0.709  -2.717  -1.054  0.00  0.00    -0.341 N 
ATOM     15  H   UNL     1      -1.074  -2.618  -1.947  0.00  0.00    +0.146 HD
BRANCH  14  16
ATOM     16  C   UNL     1      -1.422  -2.154   0.095  0.00  0.00    +0.054 C 
BRANCH  16  17
ATOM     17  C   UNL     1      -1.407  -0.626   0.006  0.00  0.00    +0.023 C 
BRANCH  17  19
ATOM     18  C   UNL     1       0.068   1.388  -0.103  0.00  0.00    +0.007 C 
ATOM     19  C   UNL     1       0.029  -0.120   0.152  0.00  0.00    -0.016 C 
ATOM     20  C   UNL     1       0.531  -0.412   1.568  0.00  0.00    +0.007 C 
ENDBRANCH  17  19
ENDBRANCH  16  17
BRANCH  16  21
ATOM     21  C   UNL     1      -2.869  -2.651   0.091  0.00  0.00    -0.057 C 
BRANCH  21  22
ATOM     22  N   UNL     1      -2.882  -4.119   0.057  0.00  0.00    +0.377 N 
ATOM     23  C   UNL     1      -2.294  -4.644   1.297  0.00  0.00    -0.097 C 
ATOM     24  C   UNL     1      -4.266  -4.594  -0.068  0.00  0.00    -0.097 C 
ATOM     25  H   UNL     1      -2.344  -4.442  -0.733  0.00  0.00    -0.083 HD
ENDBRANCH  21  22
ENDBRANCH  16  21
ENDBRANCH  14  16
ENDBRANCH   1  14
TORSDOF 8
