REMARK  Name = ZINC61202927
REMARK  6 active torsions:
REMARK  status: ('A' for Active; 'I' for Inactive)
REMARK    1  A    between atoms: C_1  and  C_2
REMARK    2  A    between atoms: C_2  and  C_3
REMARK    3  A    between atoms: C_2  and  N_4
REMARK    4  A    between atoms: C_13  and  C_15
REMARK    5  A    between atoms: N_17  and  N_18
REMARK    6  A    between atoms: C_19  and  C_21
REMARK                            x       y       z     vdW  Elec       q    Type
REMARK                         _______ _______ _______ _____ _____    ______ ____
ROOT
ATOM      1  N   UNL     1      -1.372  -0.511   0.012  0.00  0.00    -0.226 N 
ATOM      2  C   UNL     1      -1.774  -1.288  -1.014  0.00  0.00    +0.275 A 
ATOM      3  O   UNL     1      -1.012  -1.560  -1.925  0.00  0.00    -0.266 OA
ATOM      4  C   UNL     1      -3.151  -1.800  -1.008  0.00  0.00    +0.050 A 
ATOM      5  C   UNL     1      -3.662  -2.608  -2.019  0.00  0.00    +0.014 A 
ATOM      6  C   UNL     1      -4.966  -3.047  -1.940  0.00  0.00    +0.001 A 
ATOM      7  C   UNL     1      -5.771  -2.690  -0.865  0.00  0.00    +0.001 A 
ATOM      8  C   UNL     1      -5.283  -1.890   0.147  0.00  0.00    +0.011 A 
ATOM      9  C   UNL     1      -3.970  -1.438   0.086  0.00  0.00    +0.020 A 
ATOM     10  C   UNL     1      -3.373  -0.581   1.124  0.00  0.00    +0.155 A 
ATOM     11  N   UNL     1      -2.126  -0.197   0.997  0.00  0.00    -0.163 NA
ENDROOT
BRANCH  10  12
ATOM     12  C   UNL     1      -4.168  -0.162   2.295  0.00  0.00    +0.281 C 
ATOM     13  O   UNL     1      -5.323  -0.525   2.407  0.00  0.00    -0.267 OA
ATOM     14  N   UNL     1      -3.614   0.623   3.240  0.00  0.00    -0.229 N 
ATOM     15  H   UNL     1      -2.693   0.912   3.151  0.00  0.00    +0.173 HD
BRANCH  14  16
ATOM     16  N   UNL     1      -4.369   1.020   4.352  0.00  0.00    -0.229 N 
ATOM     17  C   UNL     1      -3.814   1.805   5.297  0.00  0.00    +0.276 C 
ATOM     18  O   UNL     1      -2.658   2.168   5.185  0.00  0.00    -0.267 OA
ATOM     19  H   UNL     1      -5.290   0.730   4.441  0.00  0.00    +0.173 HD
BRANCH  17  20
ATOM     20  C   UNL     1      -4.604   2.221   6.461  0.00  0.00    +0.103 A 
ATOM     21  C   UNL     1      -4.171   3.022   7.495  0.00  0.00    +0.032 A 
ATOM     22  C   UNL     1      -5.242   3.162   8.383  0.00  0.00    +0.020 A 
ATOM     23  C   UNL     1      -6.288   2.459   7.886  0.00  0.00    +0.083 A 
ATOM     24  N   UNL     1      -5.915   1.887   6.716  0.00  0.00    -0.357 N 
ATOM     25  H   UNL     1      -6.477   1.332   6.153  0.00  0.00    +0.165 HD
ENDBRANCH  17  20
ENDBRANCH  14  16
ENDBRANCH  10  12
BRANCH   1  27
ATOM     26  C   UNL     1      -0.019   1.526   0.010  0.00  0.00    +0.032 C 
ATOM     27  C   UNL     1       0.002  -0.004   0.002  0.00  0.00    +0.105 C 
ATOM     28  C   UNL     1       0.742  -0.511   1.242  0.00  0.00    +0.032 C 
ENDBRANCH   1  27
TORSDOF 4
