REMARK  Name = ZINC00930927
REMARK  7 active torsions:
REMARK  status: ('A' for Active; 'I' for Inactive)
REMARK    1  A    between atoms: C_9  and  C_12
REMARK    2  A    between atoms: N_14  and  C_15
REMARK    3  A    between atoms: N_14  and  C_25
REMARK    4  A    between atoms: C_25  and  C_27
REMARK    5  A    between atoms: C_25  and  C_34
REMARK    6  A    between atoms: C_30  and  O_33
REMARK    7  A    between atoms: N_36  and  C_37
REMARK                            x       y       z     vdW  Elec       q    Type
REMARK                         _______ _______ _______ _____ _____    ______ ____
ROOT
ATOM      1  C   UNL     1       4.818  -2.643   0.315  0.00  0.00    +0.265 C 
ATOM      2  O   UNL     1       5.779  -1.957   0.591  0.00  0.00    -0.271 OA
ATOM      3  N   UNL     1       4.989  -3.937  -0.021  0.00  0.00    -0.252 N 
ENDROOT
BRANCH   1  12
ATOM      4  C   UNL     1       0.045   1.343   1.588  0.00  0.00    +0.004 A 
ATOM      5  C   UNL     1       1.126   2.048   1.090  0.00  0.00    +0.004 A 
ATOM      6  C   UNL     1       2.286   1.384   0.741  0.00  0.00    +0.049 A 
ATOM      7  C   UNL     1       2.369   0.007   0.887  0.00  0.00    +0.163 A 
ATOM      8  C   UNL     1       1.282  -0.702   1.385  0.00  0.00    +0.162 A 
ATOM      9  C   UNL     1       0.121  -0.028   1.736  0.00  0.00    +0.049 A 
ATOM     10  O   UNL     1       1.339  -2.054   1.530  0.00  0.00    -0.484 OA
ATOM     11  C   UNL     1       2.642  -2.648   1.519  0.00  0.00    +0.283 C 
ATOM     12  C   UNL     1       3.433  -2.050   0.348  0.00  0.00    +0.296 C 
ATOM     13  O   UNL     1       3.519  -0.634   0.542  0.00  0.00    -0.472 OA
ENDBRANCH   1  12
BRANCH   3  14
ATOM     14  C   UNL     1       3.893  -4.702  -0.442  0.00  0.00    +0.041 A 
ATOM     15  C   UNL     1       3.402  -5.717   0.368  0.00  0.00    +0.027 A 
ATOM     16  C   UNL     1       2.322  -6.472  -0.047  0.00  0.00    +0.051 A 
ATOM     17  C   UNL     1       1.725  -6.218  -1.273  0.00  0.00    +0.162 A 
ATOM     18  C   UNL     1       2.212  -5.201  -2.085  0.00  0.00    +0.164 A 
ATOM     19  C   UNL     1       3.294  -4.442  -1.667  0.00  0.00    +0.073 A 
ATOM     20  O   UNL     1       1.635  -4.933  -3.288  0.00  0.00    -0.485 OA
ATOM     21  C   UNL     1       0.789  -5.949  -3.837  0.00  0.00    +0.270 C 
ATOM     22  C   UNL     1      -0.144  -6.450  -2.726  0.00  0.00    +0.270 C 
ATOM     23  O   UNL     1       0.663  -6.975  -1.667  0.00  0.00    -0.485 OA
ENDBRANCH   3  14
BRANCH   3  24
ATOM     24  C   UNL     1       6.320  -4.544   0.053  0.00  0.00    +0.197 C 
BRANCH  24  25
ATOM     25  C   UNL     1       6.216  -6.020  -0.232  0.00  0.00    -0.018 A 
ATOM     26  C   UNL     1       5.674  -6.456  -1.427  0.00  0.00    +0.009 A 
ATOM     27  C   UNL     1       5.577  -7.809  -1.690  0.00  0.00    +0.046 A 
ATOM     28  C   UNL     1       6.024  -8.730  -0.754  0.00  0.00    +0.117 A 
ATOM     29  C   UNL     1       6.569  -8.290   0.444  0.00  0.00    +0.046 A 
ATOM     30  C   UNL     1       6.668  -6.937   0.700  0.00  0.00    +0.009 A 
BRANCH  28  31
ATOM     31  O   UNL     1       5.930 -10.061  -1.011  0.00  0.00    -0.507 OA
ATOM     32  H   UNL     1       6.704 -10.432  -1.455  0.00  0.00    +0.292 HD
ENDBRANCH  28  31
ENDBRANCH  24  25
BRANCH  24  33
ATOM     33  C   UNL     1       7.224  -3.899  -0.965  0.00  0.00    +0.239 C 
ATOM     34  O   UNL     1       6.798  -3.018  -1.682  0.00  0.00    -0.273 OA
ATOM     35  N   UNL     1       8.506  -4.300  -1.079  0.00  0.00    -0.311 N 
ATOM     36  H   UNL     1       8.847  -5.004  -0.505  0.00  0.00    +0.149 HD
BRANCH  35  37
ATOM     37  C   UNL     1       9.385  -3.672  -2.068  0.00  0.00    +0.073 C 
ATOM     38  C   UNL     1       9.990  -2.397  -1.478  0.00  0.00    +0.022 C 
ATOM     39  C   UNL     1      10.908  -1.741  -2.512  0.00  0.00    +0.002 C 
ATOM     40  C   UNL     1      12.029  -2.712  -2.886  0.00  0.00    +0.000 C 
ATOM     41  C   UNL     1      11.425  -3.987  -3.477  0.00  0.00    +0.002 C 
ATOM     42  C   UNL     1      10.507  -4.643  -2.443  0.00  0.00    +0.022 C 
ENDBRANCH  35  37
ENDBRANCH  24  33
ENDBRANCH   3  24
TORSDOF 7
