REMARK  Name = ZINC39631261
REMARK  12 active torsions:
REMARK  status: ('A' for Active; 'I' for Inactive)
REMARK    1  A    between atoms: C_1  and  C_2
REMARK    2  A    between atoms: C_2  and  C_4
REMARK    3  A    between atoms: C_2  and  N_11
REMARK    4  A    between atoms: C_4  and  C_5
REMARK    5  A    between atoms: C_5  and  C_6
REMARK    6  A    between atoms: C_6  and  C_7
REMARK    7  A    between atoms: C_7  and  C_8
REMARK    8  A    between atoms: C_7  and  C_9
REMARK    9  A    between atoms: C_7  and  O_10
REMARK   10  A    between atoms: C_12  and  C_14
REMARK   11  A    between atoms: C_25  and  C_27
REMARK   12  A    between atoms: C_33  and  C_35
REMARK                            x       y       z     vdW  Elec       q    Type
REMARK                         _______ _______ _______ _____ _____    ______ ____
ROOT
ATOM      1  C   UNL     1      -3.465  -1.164  -1.134  0.00  0.00    +0.100 C 
ATOM      2  C   UNL     1      -4.361  -0.271  -0.248  0.00  0.00    +0.121 C 
ATOM      3  N   UNL     1      -4.986   0.686  -1.192  0.00  0.00    -0.299 N 
ATOM      4  C   UNL     1      -5.291  -0.128  -2.393  0.00  0.00    +0.115 C 
ATOM      5  C   UNL     1      -4.080  -1.071  -2.540  0.00  0.00    -0.004 C 
ATOM      6  C   UNL     1      -4.538  -2.449  -3.009  0.00  0.00    -0.010 C 
ATOM      7  C   UNL     1      -5.093  -2.341  -4.432  0.00  0.00    -0.082 C 
ATOM      8  N   UNL     1      -4.053  -1.817  -5.326  0.00  0.00    +0.379 N 
ATOM      9  C   UNL     1      -3.685  -0.455  -4.923  0.00  0.00    -0.082 C 
ATOM     10  C   UNL     1      -3.071  -0.483  -3.521  0.00  0.00    -0.010 C 
ATOM     11  C   UNL     1      -5.223   1.999  -1.002  0.00  0.00    +0.236 C 
ATOM     12  O   UNL     1      -5.747   2.654  -1.878  0.00  0.00    -0.274 OA
ATOM     13  H   UNL     1      -3.240  -2.412  -5.278  0.00  0.00    -0.086 HD
ATOM     14  H   UNL     1      -4.401  -1.804  -6.273  0.00  0.00    -0.086 HD
ENDROOT
BRANCH  11  15
ATOM     15  C   UNL     1      -4.838   2.653   0.300  0.00  0.00    +0.162 C 
ATOM     16  C   UNL     1      -5.906   2.357   1.373  0.00  0.00    +0.033 C 
ATOM     17  C   UNL     1      -5.995   3.694   2.154  0.00  0.00    +0.021 C 
ATOM     18  C   UNL     1      -5.781   4.730   1.022  0.00  0.00    +0.109 C 
ATOM     19  N   UNL     1      -4.780   4.112   0.128  0.00  0.00    -0.283 N 
ATOM     20  C   UNL     1      -3.952   4.773  -0.706  0.00  0.00    +0.320 C 
ATOM     21  O   UNL     1      -3.168   4.157  -1.396  0.00  0.00    -0.266 OA
BRANCH  20  22
ATOM     22  C   UNL     1      -4.002   6.277  -0.780  0.00  0.00    +0.470 C 
ATOM     23  F   UNL     1      -3.057   6.729  -1.708  0.00  0.00    -0.162 F 
ATOM     24  F   UNL     1      -5.279   6.683  -1.181  0.00  0.00    -0.162 F 
ATOM     25  F   UNL     1      -3.714   6.816   0.478  0.00  0.00    -0.162 F 
ENDBRANCH  20  22
ENDBRANCH  11  15
BRANCH   1  27
ATOM     26  N   UNL     1      -1.020  -1.494  -1.314  0.00  0.00    -0.312 N 
ATOM     27  C   UNL     1      -2.051  -0.643  -1.145  0.00  0.00    +0.218 C 
ATOM     28  O   UNL     1      -1.841   0.543  -1.000  0.00  0.00    -0.275 OA
ATOM     29  H   UNL     1      -1.188  -2.442  -1.430  0.00  0.00    +0.149 HD
BRANCH  26  31
ATOM     30  C   UNL     1       0.870  -0.880   0.112  0.00  0.00    +0.028 C 
ATOM     31  C   UNL     1       0.355  -0.987  -1.325  0.00  0.00    +0.070 C 
BRANCH  31  32
ATOM     32  C   UNL     1       1.246  -1.946  -2.117  0.00  0.00    +0.022 C 
BRANCH  32  33
ATOM     33  C   UNL     1       0.807  -1.957  -3.582  0.00  0.00    +0.005 C 
BRANCH  33  34
ATOM     34  C   UNL     1       1.699  -2.916  -4.374  0.00  0.00    +0.034 C 
BRANCH  34  35
ATOM     35  C   UNL     1       1.260  -2.926  -5.840  0.00  0.00    +0.061 C 
ATOM     36  C   UNL     1       2.068  -3.976  -6.606  0.00  0.00    +0.041 C 
ATOM     37  C   UNL     1      -0.229  -3.268  -5.924  0.00  0.00    +0.041 C 
BRANCH  35  38
ATOM     38  O   UNL     1       1.487  -1.638  -6.415  0.00  0.00    -0.389 OA
ATOM     39  H   UNL     1       2.412  -1.356  -6.396  0.00  0.00    +0.210 HD
ENDBRANCH  35  38
ENDBRANCH  34  35
ENDBRANCH  33  34
ENDBRANCH  32  33
ENDBRANCH  31  32
ENDBRANCH  26  31
ENDBRANCH   1  27
TORSDOF 9
