REMARK  Name = ZINC00233715
REMARK  5 active torsions:
REMARK  status: ('A' for Active; 'I' for Inactive)
REMARK    1  A    between atoms: C_1  and  C_2
REMARK    2  A    between atoms: C_2  and  C_7
REMARK    3  A    between atoms: C_7  and  C_8
REMARK    4  A    between atoms: N_10  and  N_11
REMARK    5  A    between atoms: C_12  and  C_13
REMARK                            x       y       z     vdW  Elec       q    Type
REMARK                         _______ _______ _______ _____ _____    ______ ____
ROOT
ATOM      1  C   UNL     1      -2.802  -0.419  -1.253  0.00  0.00    +0.237 C 
ATOM      2  O   UNL     1      -1.865  -0.765  -0.565  0.00  0.00    -0.274 OA
ATOM      3  N   UNL     1      -3.571  -1.344  -1.860  0.00  0.00    -0.207 N 
ATOM      4  H   UNL     1      -4.321  -1.067  -2.410  0.00  0.00    +0.177 HD
ENDROOT
BRANCH   3   5
ATOM      5  N   UNL     1      -3.288  -2.707  -1.696  0.00  0.00    -0.188 NA
ATOM      6  C   UNL     1      -4.029  -3.598  -2.280  0.00  0.00    +0.141 C 
BRANCH   6   7
ATOM      7  C   UNL     1      -3.732  -5.031  -2.108  0.00  0.00    +0.031 A 
ATOM      8  C   UNL     1      -2.649  -5.435  -1.321  0.00  0.00    +0.051 A 
ATOM      9  C   UNL     1      -2.380  -6.779  -1.161  0.00  0.00    +0.021 A 
ATOM     10  C   UNL     1      -3.172  -7.726  -1.785  0.00  0.00    +0.003 A 
ATOM     11  C   UNL     1      -4.242  -7.335  -2.570  0.00  0.00    +0.021 A 
ATOM     12  C   UNL     1      -4.527  -5.994  -2.736  0.00  0.00    +0.051 A 
ATOM     13 CL   UNL     1      -5.870  -5.506  -3.723  0.00  0.00    -0.083 Cl
ATOM     14 CL   UNL     1      -1.649  -4.248  -0.543  0.00  0.00    -0.083 Cl
ENDBRANCH   6   7
ENDBRANCH   3   5
BRANCH   1  15
ATOM     15  C   UNL     1      -3.106   1.047  -1.429  0.00  0.00    +0.162 C 
BRANCH  15  17
ATOM     16  C   UNL     1      -2.391   3.366  -0.824  0.00  0.00    +0.074 C 
ATOM     17  C   UNL     1      -2.090   1.877  -0.641  0.00  0.00    +0.176 C 
ATOM     18  O   UNL     1      -0.766   1.591  -1.112  0.00  0.00    -0.346 OA
ATOM     19  C   UNL     1      -0.013   1.086   0.008  0.00  0.00    +0.191 C 
ATOM     20  C   UNL     1      -0.799   1.616   1.233  0.00  0.00    +0.191 C 
ATOM     21  O   UNL     1      -2.168   1.538   0.753  0.00  0.00    -0.346 OA
ENDBRANCH  15  17
ENDBRANCH   1  15
TORSDOF 4
