REMARK  Name = ZINC39287432
REMARK  7 active torsions:
REMARK  status: ('A' for Active; 'I' for Inactive)
REMARK    1  A    between atoms: C_1  and  C_2
REMARK    2  A    between atoms: C_2  and  O_4
REMARK    3  A    between atoms: O_4  and  C_5
REMARK    4  A    between atoms: C_6  and  O_24
REMARK    5  A    between atoms: C_8  and  C_12
REMARK    6  A    between atoms: N_13  and  C_14
REMARK    7  A    between atoms: O_24  and  C_25
REMARK                            x       y       z     vdW  Elec       q    Type
REMARK                         _______ _______ _______ _____ _____    ______ ____
ROOT
ATOM      1  C   UNL     1      -0.882  -6.230  -0.008  0.00  0.00    +0.119 C 
ATOM      2  N   UNL     1      -0.845  -6.888   1.136  0.00  0.00    -0.255 NA
ENDROOT
BRANCH   2   3
ATOM      3  C   UNL     1      -0.780  -8.224   1.137  0.00  0.00    +0.066 A 
ATOM      4  C   UNL     1      -1.650  -8.991   0.231  0.00  0.00    +0.029 A 
ATOM      5  C   UNL     1      -1.607 -10.335   0.210  0.00  0.00    +0.027 A 
ATOM      6  C   UNL     1      -0.678 -11.040   1.104  0.00  0.00    +0.056 A 
ATOM      7  N   UNL     1      -0.396 -12.298   1.325  0.00  0.00    -0.268 N 
ATOM      8  C   UNL     1       0.575 -12.368   2.292  0.00  0.00    +0.308 C 
ATOM      9  O   UNL     1       1.054 -13.402   2.720  0.00  0.00    -0.252 OA
ATOM     10  N   UNL     1       0.923 -11.140   2.698  0.00  0.00    -0.267 N 
ATOM     11  C   UNL     1       0.196 -10.249   2.015  0.00  0.00    +0.058 A 
ATOM     12  C   UNL     1       0.121  -8.871   1.998  0.00  0.00    +0.053 A 
ATOM     13  H   UNL     1      -0.806 -13.056   0.879  0.00  0.00    +0.156 HD
ATOM     14  H   UNL     1       1.589 -10.932   3.372  0.00  0.00    +0.156 HD
ENDBRANCH   2   3
BRANCH   1  18
ATOM     15  C   UNL     1      -1.086  -2.046   0.001  0.00  0.00    +0.187 A 
ATOM     16  C   UNL     1      -1.058  -2.736  -1.217  0.00  0.00    +0.164 A 
ATOM     17  C   UNL     1      -0.991  -4.111  -1.226  0.00  0.00    +0.059 A 
ATOM     18  C   UNL     1      -0.951  -4.816  -0.009  0.00  0.00    -0.002 A 
ATOM     19  C   UNL     1      -0.980  -4.109   1.208  0.00  0.00    +0.028 A 
ATOM     20  C   UNL     1      -1.041  -2.746   1.206  0.00  0.00    +0.064 A 
ATOM     21 BR   UNL     1      -1.072  -1.802   2.844  0.00  0.00    -0.046 Br
BRANCH  16  22
ATOM     22  O   UNL     1      -1.098  -2.048  -2.389  0.00  0.00    -0.491 OA
ATOM     23  C   UNL     1      -1.066  -2.817  -3.593  0.00  0.00    +0.277 C 
ENDBRANCH  16  22
BRANCH  15  24
ATOM     24  O   UNL     1      -1.152  -0.691   0.009  0.00  0.00    -0.421 OA
BRANCH  24  26
ATOM     25  C   UNL     1      -0.018   1.503   0.010  0.00  0.00    +0.136 C 
ATOM     26  C   UNL     1       0.002  -0.004   0.002  0.00  0.00    +0.309 C 
ATOM     27  O   UNL     1       1.056  -0.594  -0.011  0.00  0.00    -0.251 OA
ENDBRANCH  24  26
ENDBRANCH  15  24
ENDBRANCH   1  18
TORSDOF 5
