REMARK  Name = ZINC06856688
REMARK  6 active torsions:
REMARK  status: ('A' for Active; 'I' for Inactive)
REMARK    1  A    between atoms: C_1  and  C_2
REMARK    2  A    between atoms: N_4  and  CA_5
REMARK    3  A    between atoms: CA_5  and  C_17
REMARK    4  A    between atoms: C_6  and  C_7
REMARK    5  A    between atoms: C_12  and  O_13
REMARK    6  A    between atoms: O_13  and  C_14
REMARK                            x       y       z     vdW  Elec       q    Type
REMARK                         _______ _______ _______ _____ _____    ______ ____
ROOT
ATOM      1  CA  UNL     1       2.089   4.011   2.997  0.00  0.00    +0.123 C 
ATOM      2  C   UNL     1       1.279   3.068   2.456  0.00  0.00    +0.042 C 
ENDROOT
BRANCH   2   3
ATOM      3  C   UNL     1       0.788   1.959   3.285  0.00  0.00    +0.021 A 
ATOM      4  C   UNL     1       0.452   2.177   4.626  0.00  0.00    +0.027 A 
ATOM      5  C   UNL     1      -0.007   1.131   5.398  0.00  0.00    +0.020 A 
ATOM      6  C   UNL     1      -0.138  -0.136   4.851  0.00  0.00    +0.034 A 
ATOM      7  C   UNL     1       0.185  -0.364   3.527  0.00  0.00    +0.061 A 
ATOM      8  C   UNL     1       0.654   0.674   2.737  0.00  0.00    +0.141 A 
ATOM      9 BR   UNL     1      -0.005  -2.097   2.794  0.00  0.00    -0.046 Br
ATOM     10 BR   UNL     1      -0.460   1.426   7.210  0.00  0.00    -0.050 Br
BRANCH   8  11
ATOM     11  O   UNL     1       0.976   0.450   1.437  0.00  0.00    -0.493 OA
ATOM     12  C   UNL     1       2.326   0.071   1.159  0.00  0.00    +0.277 C 
ENDBRANCH   8  11
ENDBRANCH   2   3
BRANCH   1  16
ATOM     13  C   UNL     1       3.690   7.259   1.965  0.00  0.00    +0.109 C 
ATOM     14  C   UNL     1       3.361   6.005   2.734  0.00  0.00    +0.214 C 
ATOM     15  O   UNL     1       3.903   5.785   3.796  0.00  0.00    -0.276 OA
ATOM     16  N   UNL     1       2.464   5.128   2.241  0.00  0.00    -0.280 N 
ATOM     17  H   UNL     1       2.078   5.272   1.362  0.00  0.00    +0.155 HD
ENDBRANCH   1  16
BRANCH   1  18
ATOM     18  C   UNL     1       2.572   3.860   4.373  0.00  0.00    +0.400 C 
ATOM     19  O   UNL     1       2.115   4.558   5.258  0.00  0.00    -0.239 OA
ATOM     20  OXT UNL     1       3.525   2.948   4.657  0.00  0.00    -0.239 OA
ENDBRANCH   1  18
TORSDOF 4
