REMARK  Name = ZINC42582980
REMARK  5 active torsions:
REMARK  status: ('A' for Active; 'I' for Inactive)
REMARK    1  A    between atoms: C_1  and  C_2
REMARK    2  A    between atoms: C_2  and  C_3
REMARK    3  A    between atoms: C_9  and  N_11
REMARK    4  A    between atoms: C_15  and  C_17
REMARK    5  A    between atoms: C_17  and  C_19
REMARK                            x       y       z     vdW  Elec       q    Type
REMARK                         _______ _______ _______ _____ _____    ______ ____
ROOT
ATOM      1  N   UNL     1      -0.463  -2.636   1.119  0.00  0.00    -0.296 N 
ATOM      2  C   UNL     1      -0.632  -3.852   0.564  0.00  0.00    +0.306 C 
ATOM      3  O   UNL     1       0.323  -4.450   0.106  0.00  0.00    -0.252 OA
ATOM      4  N   UNL     1      -1.860  -4.406   0.515  0.00  0.00    -0.239 N 
ATOM      5  C   UNL     1      -2.029  -5.622  -0.040  0.00  0.00    +0.238 C 
ATOM      6  O   UNL     1      -1.077  -6.218  -0.496  0.00  0.00    -0.274 OA
ATOM      7  H   UNL     1      -1.224  -2.159   1.484  0.00  0.00    +0.151 HD
ATOM      8  H   UNL     1      -2.622  -3.929   0.880  0.00  0.00    +0.159 HD
ENDROOT
BRANCH   1  14
ATOM      9  C   UNL     1       0.742  -0.511   1.242  0.00  0.00    +0.009 C 
ATOM     10  C   UNL     1      -0.042  -0.124   2.497  0.00  0.00    +0.005 C 
ATOM     11  C   UNL     1       0.698  -0.630   3.737  0.00  0.00    +0.000 C 
ATOM     12  C   UNL     1       0.828  -2.153   3.666  0.00  0.00    +0.002 C 
ATOM     13  C   UNL     1       1.612  -2.541   2.410  0.00  0.00    +0.022 C 
ATOM     14  C   UNL     1       0.872  -2.034   1.171  0.00  0.00    +0.078 C 
BRANCH   9  16
ATOM     15  C   UNL     1      -0.019   1.526   0.010  0.00  0.00    +0.004 C 
ATOM     16  C   UNL     1       0.002  -0.004   0.002  0.00  0.00    +0.002 C 
ENDBRANCH   9  16
ENDBRANCH   1  14
BRANCH   5  17
ATOM     17  C   UNL     1      -3.402  -6.242  -0.093  0.00  0.00    +0.163 C 
ATOM     18  C   UNL     1      -3.639  -6.835  -1.483  0.00  0.00    +0.034 C 
ATOM     19 CL   UNL     1      -3.522  -7.546   1.146  0.00  0.00    -0.112 Cl
ENDBRANCH   5  17
TORSDOF 3
