REMARK  Name = ZINC56718320
REMARK  7 active torsions:
REMARK  status: ('A' for Active; 'I' for Inactive)
REMARK    1  A    between atoms: C_1  and  O_2
REMARK    2  A    between atoms: O_2  and  C_3
REMARK    3  A    between atoms: C_6  and  N_10
REMARK    4  A    between atoms: N_13  and  C_14
REMARK    5  A    between atoms: C_14  and  C_15
REMARK    6  A    between atoms: C_15  and  C_17
REMARK    7  A    between atoms: C_15  and  N_22
REMARK                            x       y       z     vdW  Elec       q    Type
REMARK                         _______ _______ _______ _____ _____    ______ ____
ROOT
ATOM      1  N   UNL     1       6.536  -4.765  -1.879  0.00  0.00    -0.269 N 
ATOM      2  C   UNL     1       6.121  -4.019  -2.922  0.00  0.00    +0.304 C 
ATOM      3  O   UNL     1       5.721  -2.886  -2.739  0.00  0.00    -0.253 OA
ATOM      4  N   UNL     1       6.149  -4.530  -4.169  0.00  0.00    -0.300 N 
ATOM      5  H   UNL     1       6.921  -5.642  -2.033  0.00  0.00    +0.156 HD
ATOM      6  H   UNL     1       6.468  -5.434  -4.316  0.00  0.00    +0.150 HD
ENDROOT
BRANCH   1  10
ATOM      7  C   UNL     1       6.161  -3.303   2.011  0.00  0.00    +0.190 A 
ATOM      8  C   UNL     1       5.215  -2.971   1.051  0.00  0.00    +0.169 A 
ATOM      9  C   UNL     1       5.339  -3.456  -0.239  0.00  0.00    +0.065 A 
ATOM     10  C   UNL     1       6.410  -4.274  -0.573  0.00  0.00    +0.040 A 
ATOM     11  C   UNL     1       7.356  -4.605   0.387  0.00  0.00    +0.065 A 
ATOM     12  C   UNL     1       7.235  -4.115   1.675  0.00  0.00    +0.169 A 
ATOM     13  F   UNL     1       8.159  -4.433   2.608  0.00  0.00    -0.201 F 
ATOM     14  F   UNL     1       4.172  -2.176   1.376  0.00  0.00    -0.201 F 
BRANCH   7  16
ATOM     15  C   UNL     1       6.659  -1.570   3.563  0.00  0.00    +0.277 C 
ATOM     16  O   UNL     1       6.039  -2.826   3.280  0.00  0.00    -0.490 OA
ENDBRANCH   7  16
ENDBRANCH   1  10
BRANCH   4  17
ATOM     17  C   UNL     1       5.698  -3.720  -5.303  0.00  0.00    +0.095 C 
BRANCH  17  18
ATOM     18  C   UNL     1       5.734  -4.563  -6.580  0.00  0.00    -0.013 C 
BRANCH  18  19
ATOM     19  N   UNL     1       5.160  -3.794  -7.691  0.00  0.00    +0.386 N 
ATOM     20  C   UNL     1       5.174  -4.604  -8.936  0.00  0.00    -0.078 C 
ATOM     21  C   UNL     1       4.083  -3.934  -9.808  0.00  0.00    -0.020 C 
ATOM     22  C   UNL     1       3.000  -3.553  -8.773  0.00  0.00    -0.020 C 
ATOM     23  C   UNL     1       3.737  -3.493  -7.422  0.00  0.00    -0.078 C 
ATOM     24  H   UNL     1       5.677  -2.938  -7.826  0.00  0.00    -0.081 HD
ENDBRANCH  18  19
BRANCH  18  25
ATOM     25  C   UNL     1       7.162  -4.923  -6.902  0.00  0.00    -0.022 A 
ATOM     26  C   UNL     1       7.822  -6.084  -6.671  0.00  0.00    +0.009 A 
ATOM     27  C   UNL     1       9.145  -6.191  -7.058  0.00  0.00    +0.008 A 
ATOM     28  C   UNL     1       9.742  -5.133  -7.658  0.00  0.00    +0.045 A 
ATOM     29  S   UNL     1       8.418  -3.936  -7.697  0.00  0.00    -0.103 S 
ENDBRANCH  18  25
ENDBRANCH  17  18
ENDBRANCH   4  17
TORSDOF 6
