REMARK  Name = ZINC67270912
REMARK  11 active torsions:
REMARK  status: ('A' for Active; 'I' for Inactive)
REMARK    1  A    between atoms: C_1  and  C_2
REMARK    2  A    between atoms: C_3  and  C_15
REMARK    3  A    between atoms: C_10  and  C_14
REMARK    4  A    between atoms: N_12  and  C_13
REMARK    5  A    between atoms: C_15  and  C_16
REMARK    6  A    between atoms: C_16  and  C_17
REMARK    7  A    between atoms: N_19  and  C_20
REMARK    8  A    between atoms: C_20  and  C_21
REMARK    9  A    between atoms: C_21  and  C_23
REMARK   10  A    between atoms: C_21  and  N_24
REMARK   11  A    between atoms: C_27  and  C_30
REMARK                            x       y       z     vdW  Elec       q    Type
REMARK                         _______ _______ _______ _____ _____    ______ ____
ROOT
ATOM      1  C   UNL     1       0.914   0.287  -3.225  0.00  0.00    +0.100 C 
ENDROOT
BRANCH   1   2
ATOM      2  C   UNL     1       0.845   0.942  -4.580  0.00  0.00    +0.213 C 
ATOM      3  O   UNL     1      -0.224   1.307  -5.023  0.00  0.00    -0.276 OA
ATOM      4  N   UNL     1       1.970   1.121  -5.300  0.00  0.00    -0.317 N 
ATOM      5  H   UNL     1       2.824   0.829  -4.946  0.00  0.00    +0.149 HD
BRANCH   4   6
ATOM      6  C   UNL     1       1.902   1.758  -6.618  0.00  0.00    +0.088 C 
BRANCH   6   7
ATOM      7  C   UNL     1       3.284   1.721  -7.273  0.00  0.00    -0.054 C 
ATOM      8  C   UNL     1       3.193   2.295  -8.689  0.00  0.00    -0.012 C 
BRANCH   7   9
ATOM      9  N   UNL     1       3.759   0.332  -7.338  0.00  0.00    +0.382 N 
ATOM     10  C   UNL     1       5.139   0.311  -7.835  0.00  0.00    -0.078 C 
ATOM     11  C   UNL     1       5.666  -1.125  -7.827  0.00  0.00    -0.016 C 
ATOM     12  C   UNL     1       4.784  -1.992  -8.730  0.00  0.00    -0.018 C 
ATOM     13  C   UNL     1       3.333  -1.903  -8.246  0.00  0.00    -0.016 C 
ATOM     14  C   UNL     1       2.893  -0.438  -8.238  0.00  0.00    -0.078 C 
ATOM     15  C   UNL     1       5.257  -3.446  -8.665  0.00  0.00    +0.007 C 
ATOM     16  H   UNL     1       3.729  -0.075  -6.415  0.00  0.00    -0.081 HD
ENDBRANCH   7   9
ENDBRANCH   6   7
ENDBRANCH   4   6
ENDBRANCH   1   2
BRANCH   1  17
ATOM     17  C   UNL     1      -0.491   0.205  -2.625  0.00  0.00    +0.050 C 
BRANCH  17  20
ATOM     18  C   UNL     1      -0.249   1.816  -0.255  0.00  0.00    +0.045 C 
ATOM     19  C   UNL     1      -0.308   0.313  -0.151  0.00  0.00    -0.030 A 
ATOM     20  C   UNL     1      -0.422  -0.450  -1.270  0.00  0.00    +0.021 A 
ATOM     21  C   UNL     1      -0.476  -1.852  -1.162  0.00  0.00    +0.254 A 
ATOM     22  O   UNL     1      -0.578  -2.530  -2.171  0.00  0.00    -0.268 OA
ATOM     23  N   UNL     1      -0.415  -2.455   0.040  0.00  0.00    -0.307 N 
ATOM     24  H   UNL     1      -0.453  -3.422   0.095  0.00  0.00    +0.170 HD
ATOM     25  C   UNL     1      -0.300  -1.714   1.185  0.00  0.00    +0.139 A 
ATOM     26  C   UNL     1      -0.240  -0.321   1.111  0.00  0.00    +0.043 A 
ATOM     27  C   UNL     1      -0.118   0.161   2.435  0.00  0.00    +0.069 A 
ATOM     28  N   UNL     1      -0.102  -0.863   3.239  0.00  0.00    -0.174 NA
ATOM     29  N   UNL     1      -0.220  -2.042   2.493  0.00  0.00    -0.251 N 
ATOM     30  C   UNL     1      -0.241  -3.402   3.038  0.00  0.00    +0.174 C 
ATOM     31  C   UNL     1      -0.022   1.609   2.844  0.00  0.00    +0.068 C 
ENDBRANCH  17  20
ENDBRANCH   1  17
TORSDOF 6
