REMARK  Name = ZINC19721623
REMARK  4 active torsions:
REMARK  status: ('A' for Active; 'I' for Inactive)
REMARK    1  A    between atoms: C_1  and  N_2
REMARK    2  A    between atoms: C_3  and  N_23
REMARK    3  A    between atoms: C_4  and  C_12
REMARK    4  A    between atoms: C_5  and  C_7
REMARK                            x       y       z     vdW  Elec       q    Type
REMARK                         _______ _______ _______ _____ _____    ______ ____
ROOT
ATOM      1  C   UNL     1       0.372  -7.481  -1.563  0.00  0.00    +0.172 C 
ATOM      2  N   UNL     1       0.314  -6.297  -0.703  0.00  0.00    -0.275 N 
ATOM      3  C   UNL     1       0.233  -5.024  -1.139  0.00  0.00    +0.124 A 
ATOM      4  C   UNL     1       0.203  -4.196  -0.022  0.00  0.00    +0.086 A 
ATOM      5  C   UNL     1       0.264  -5.082   1.147  0.00  0.00    +0.111 A 
ATOM      6  N   UNL     1       0.328  -6.315   0.694  0.00  0.00    -0.292 N 
ATOM      7  H   UNL     1       0.387  -7.273   1.231  0.00  0.00    +0.187 HD
ENDROOT
BRANCH   4   8
ATOM      8  C   UNL     1       0.122  -2.730  -0.014  0.00  0.00    +0.170 A 
ATOM      9  N   UNL     1      -1.117  -2.144   0.001  0.00  0.00    -0.189 NA
ATOM     10  C   UNL     1      -1.236  -0.796   0.010  0.00  0.00    +0.281 A 
ATOM     11  O   UNL     1      -2.328  -0.259   0.023  0.00  0.00    -0.265 OA
ATOM     12  C   UNL     1       0.002  -0.004   0.002  0.00  0.00    +0.067 A 
ATOM     13  C   UNL     1      -0.017   1.390   0.008  0.00  0.00    +0.015 A 
ATOM     14  C   UNL     1       1.174   2.083   0.000  0.00  0.00    +0.001 A 
ATOM     15  C   UNL     1       2.386   1.405  -0.015  0.00  0.00    +0.002 A 
ATOM     16  C   UNL     1       2.428   0.040  -0.021  0.00  0.00    +0.028 A 
ATOM     17  C   UNL     1       1.237  -0.693  -0.013  0.00  0.00    +0.079 A 
ATOM     18  N   UNL     1       1.239  -2.040  -0.021  0.00  0.00    -0.227 NA
ENDBRANCH   4   8
BRANCH   5  19
ATOM     19  C   UNL     1       0.253  -4.667   2.563  0.00  0.00    +0.153 A 
ATOM     20  C   UNL     1      -0.333  -5.342   3.589  0.00  0.00    +0.051 A 
ATOM     21  C   UNL     1      -0.098  -4.589   4.757  0.00  0.00    +0.042 A 
ATOM     22  C   UNL     1       0.612  -3.504   4.391  0.00  0.00    +0.196 A 
ATOM     23  O   UNL     1       0.827  -3.557   3.066  0.00  0.00    -0.461 OA
ENDBRANCH   5  19
BRANCH   3  24
ATOM     24  N   UNL     1       0.191  -4.615  -2.459  0.00  0.00    -0.343 N 
ATOM     25  H   UNL     1       0.124  -3.544  -2.701  0.00  0.00    +0.144 HD
ATOM     26  H   UNL     1       0.224  -5.360  -3.267  0.00  0.00    +0.144 HD
ENDBRANCH   3  24
TORSDOF 3
