REMARK  Name = ZINC20534688
REMARK  4 active torsions:
REMARK  status: ('A' for Active; 'I' for Inactive)
REMARK    1  A    between atoms: C_7  and  C_9
REMARK    2  A    between atoms: C_9  and  S_10
REMARK    3  A    between atoms: S_10  and  C_11
REMARK    4  A    between atoms: N_16  and  N_17
REMARK                            x       y       z     vdW  Elec       q    Type
REMARK                         _______ _______ _______ _____ _____    ______ ____
ROOT
ATOM      1  C   UNL     1       3.338   2.165  -0.019  0.00  0.00    +0.211 A 
ATOM      2  N   UNL     1       2.438   1.137  -0.015  0.00  0.00    -0.186 NA
ATOM      3  C   UNL     1       1.182   1.676  -0.000  0.00  0.00    +0.232 A 
ATOM      4  N   UNL     1       1.301   2.982  -0.000  0.00  0.00    -0.245 N 
ATOM      5  N   UNL     1       2.667   3.292  -0.006  0.00  0.00    -0.144 NA
ATOM      6  N   UNL     1      -0.011   0.966   0.007  0.00  0.00    -0.205 N 
ATOM      7  H   UNL     1       0.004  -0.134   0.006  0.00  0.00    +0.177 HD
ATOM      8  H   UNL     1       0.402   3.616   0.004  0.00  0.00    +0.192 HD
ENDROOT
BRANCH   6   9
ATOM      9  N   UNL     1      -1.234   1.650   0.017  0.00  0.00    -0.189 NA
ATOM     10  C   UNL     1      -2.334   0.995   0.018  0.00  0.00    +0.037 C 
ATOM     11  C   UNL     1      -2.481  -0.513   0.004  0.00  0.00    +0.052 C 
ATOM     12  C   UNL     1      -3.994  -0.815   0.006  0.00  0.00    +0.006 C 
ATOM     13  C   UNL     1      -4.625   0.474  -0.579  0.00  0.00    +0.006 C 
ATOM     14  C   UNL     1      -3.733   1.585   0.028  0.00  0.00    +0.052 C 
ENDBRANCH   6   9
BRANCH   1  15
ATOM     15  S   UNL     1       5.093   2.004  -0.036  0.00  0.00    -0.075 S 
BRANCH  15  16
ATOM     16  C   UNL     1       5.690   3.717  -0.033  0.00  0.00    +0.173 C 
BRANCH  16  23
ATOM     17  C   UNL     1      11.395   4.060  -0.086  0.00  0.00    +0.120 A 
ATOM     18  C   UNL     1      11.869   5.330  -0.084  0.00  0.00    +0.068 A 
ATOM     19  S   UNL     1      10.341   6.255  -0.065  0.00  0.00    -0.061 S 
ATOM     20  C   UNL     1       9.256   4.900  -0.061  0.00  0.00    +0.164 A 
ATOM     21  N   UNL     1      10.089   3.877  -0.068  0.00  0.00    -0.233 NA
ATOM     22  N   UNL     1       7.866   4.894  -0.048  0.00  0.00    -0.264 N 
ATOM     23  C   UNL     1       7.197   3.724  -0.048  0.00  0.00    +0.229 C 
ATOM     24  O   UNL     1       7.808   2.676  -0.058  0.00  0.00    -0.275 OA
ATOM     25  H   UNL     1       7.312   5.844  -0.038  0.00  0.00    +0.157 HD
ENDBRANCH  16  23
ENDBRANCH  15  16
ENDBRANCH   1  15
TORSDOF 4
