REMARK  Name = ZINC37492032
REMARK  5 active torsions:
REMARK  status: ('A' for Active; 'I' for Inactive)
REMARK    1  A    between atoms: C_1  and  C_2
REMARK    2  A    between atoms: C_2  and  C_3
REMARK    3  A    between atoms: C_3  and  C_5
REMARK    4  A    between atoms: C_3  and  C_6
REMARK    5  A    between atoms: C_6  and  C_13
REMARK                            x       y       z     vdW  Elec       q    Type
REMARK                         _______ _______ _______ _____ _____    ______ ____
ROOT
ATOM      1  C   UNL     1       0.630  -2.023  -1.329  0.00  0.00    +0.112 C 
ATOM      2  C   UNL     1      -0.816  -2.471  -1.399  0.00  0.00    +0.244 C 
ATOM      3  O   UNL     1      -1.682  -2.285  -0.571  0.00  0.00    -0.273 OA
ATOM      4  N   UNL     1      -0.940  -3.119  -2.575  0.00  0.00    -0.238 N 
ATOM      5  C   UNL     1       0.215  -3.142  -3.249  0.00  0.00    +0.307 C 
ATOM      6  O   UNL     1       0.353  -3.670  -4.336  0.00  0.00    -0.252 OA
ATOM      7  N   UNL     1       1.208  -2.517  -2.591  0.00  0.00    -0.285 N 
ATOM      8  C   UNL     1       1.336  -2.659  -0.129  0.00  0.00    +0.042 C 
ATOM      9  H   UNL     1      -1.764  -3.520  -2.892  0.00  0.00    +0.159 HD
ATOM     10  H   UNL     1       2.125  -2.411  -2.889  0.00  0.00    +0.151 HD
ENDROOT
BRANCH   1  11
ATOM     11  C   UNL     1       0.718  -0.497  -1.257  0.00  0.00    +0.018 C 
ATOM     12  C   UNL     1       2.187  -0.073  -1.207  0.00  0.00    +0.010 C 
BRANCH  11  14
ATOM     13  C   UNL     1      -0.019   1.526   0.010  0.00  0.00    +0.004 C 
ATOM     14  C   UNL     1       0.002  -0.004   0.002  0.00  0.00    +0.002 C 
ENDBRANCH  11  14
ENDBRANCH   1  11
TORSDOF 2
