REMARK  Name = ZINC34889345
REMARK  10 active torsions:
REMARK  status: ('A' for Active; 'I' for Inactive)
REMARK    1  A    between atoms: C_1  and  C_2
REMARK    2  A    between atoms: C_7  and  C_9
REMARK    3  A    between atoms: C_7  and  C_10
REMARK    4  A    between atoms: N_13  and  C_17
REMARK    5  A    between atoms: C_17  and  C_18
REMARK    6  A    between atoms: N_20  and  C_21
REMARK    7  A    between atoms: C_21  and  C_23
REMARK    8  A    between atoms: C_21  and  C_33
REMARK    9  A    between atoms: C_33  and  C_34
REMARK   10  A    between atoms: C_33  and  C_35
REMARK                            x       y       z     vdW  Elec       q    Type
REMARK                         _______ _______ _______ _____ _____    ______ ____
ROOT
ATOM      1  C   UNL     1      -2.295  -3.328  -4.359  0.00  0.00    +0.231 C 
ATOM      2  O   UNL     1      -1.953  -2.188  -4.591  0.00  0.00    -0.274 OA
ATOM      3  N   UNL     1      -3.321  -3.876  -5.040  0.00  0.00    -0.307 N 
ATOM      4  H   UNL     1      -3.595  -4.788  -4.855  0.00  0.00    +0.149 HD
ENDROOT
BRANCH   1   5
ATOM      5  C   UNL     1      -1.572  -4.133  -3.310  0.00  0.00    +0.213 C 
BRANCH   5  17
ATOM      6  C   UNL     1      -0.019   1.528   0.010  0.00  0.00    +0.007 C 
ATOM      7  C   UNL     1       0.002  -0.004   0.002  0.00  0.00    -0.011 C 
ATOM      8  C   UNL     1       0.727  -0.492  -1.254  0.00  0.00    +0.038 C 
ATOM      9  C   UNL     1       0.711  -2.014  -1.298  0.00  0.00    +0.113 C 
ATOM     10  C   UNL     1       1.263  -2.646  -0.036  0.00  0.00    +0.041 C 
ATOM     11  C   UNL     1       0.787  -2.030   1.268  0.00  0.00    -0.032 C 
ATOM     12  C   UNL     1       0.763  -0.507   1.227  0.00  0.00    +0.009 C 
ATOM     13  C   UNL     1       1.769  -2.455   2.382  0.00  0.00    +0.011 C 
ATOM     14  C   UNL     1      -0.596  -2.567   1.648  0.00  0.00    +0.011 C 
ATOM     15  C   UNL     1      -0.666  -2.529  -1.638  0.00  0.00    +0.247 C 
ATOM     16  O   UNL     1      -1.717  -2.280  -1.086  0.00  0.00    -0.273 OA
ATOM     17  N   UNL     1      -0.505  -3.321  -2.720  0.00  0.00    -0.215 N 
ATOM     18  C   UNL     1       0.748  -3.270  -3.183  0.00  0.00    +0.310 C 
ATOM     19  O   UNL     1       1.136  -3.886  -4.157  0.00  0.00    -0.252 OA
ATOM     20  N   UNL     1       1.531  -2.463  -2.446  0.00  0.00    -0.285 N 
ATOM     21  H   UNL     1       2.451  -2.215  -2.619  0.00  0.00    +0.151 HD
ENDBRANCH   5  17
ENDBRANCH   1   5
BRANCH   3  22
ATOM     22  C   UNL     1      -4.024  -3.093  -6.060  0.00  0.00    +0.106 C 
BRANCH  22  23
ATOM     23  C   UNL     1      -4.657  -4.025  -7.060  0.00  0.00    -0.023 A 
ATOM     24  C   UNL     1      -5.263  -5.191  -6.630  0.00  0.00    +0.009 A 
ATOM     25  C   UNL     1      -5.845  -6.049  -7.544  0.00  0.00    +0.050 A 
ATOM     26  C   UNL     1      -5.822  -5.742  -8.896  0.00  0.00    +0.162 A 
ATOM     27  C   UNL     1      -5.215  -4.569  -9.329  0.00  0.00    +0.162 A 
ATOM     28  C   UNL     1      -4.637  -3.711  -8.406  0.00  0.00    +0.055 A 
ATOM     29  O   UNL     1      -5.188  -4.245 -10.651  0.00  0.00    -0.485 OA
ATOM     30  C   UNL     1      -5.451  -5.304 -11.578  0.00  0.00    +0.270 C 
ATOM     31  C   UNL     1      -6.682  -6.077 -11.087  0.00  0.00    +0.270 C 
ATOM     32  O   UNL     1      -6.394  -6.599  -9.786  0.00  0.00    -0.485 OA
ENDBRANCH  22  23
BRANCH  22  33
ATOM     33  C   UNL     1      -5.109  -2.245  -5.394  0.00  0.00    +0.008 C 
ATOM     34  C   UNL     1      -4.466  -1.299  -4.378  0.00  0.00    +0.009 C 
ATOM     35  C   UNL     1      -5.843  -1.428  -6.459  0.00  0.00    +0.009 C 
ENDBRANCH  22  33
ENDBRANCH   3  22
TORSDOF 5
