REMARK  Name = ZINC09292686
REMARK  7 active torsions:
REMARK  status: ('A' for Active; 'I' for Inactive)
REMARK    1  A    between atoms: C_4  and  C_7
REMARK    2  A    between atoms: C_7  and  O_8
REMARK    3  A    between atoms: O_8  and  C_9
REMARK    4  A    between atoms: C_12  and  C_15
REMARK    5  A    between atoms: C_22  and  N_35
REMARK    6  A    between atoms: C_23  and  C_33
REMARK    7  A    between atoms: C_24  and  C_26
REMARK                            x       y       z     vdW  Elec       q    Type
REMARK                         _______ _______ _______ _____ _____    ______ ____
ROOT
ATOM      1  C   UNL     1       8.928  -3.660   1.956  0.00  0.00    +0.074 A 
ATOM      2  C   UNL     1       9.231  -4.609   2.874  0.00  0.00    +0.054 A 
ATOM      3  C   UNL     1      10.570  -4.998   2.674  0.00  0.00    +0.245 A 
ATOM      4  N   UNL     1      11.052  -4.311   1.678  0.00  0.00    -0.135 NA
ATOM      5  N   UNL     1      10.045  -3.461   1.195  0.00  0.00    -0.273 N 
ATOM      6  H   UNL     1      10.128  -2.841   0.454  0.00  0.00    +0.189 HD
ATOM      7  O   UNL     1      11.168  -5.946   3.446  0.00  0.00    -0.421 OA
ATOM      8  C   UNL     1      10.373  -6.699   4.232  0.00  0.00    +0.201 C 
ATOM      9  C   UNL     1       9.081  -6.420   4.505  0.00  0.00    +0.098 C 
ATOM     10  C   UNL     1       8.370  -5.209   3.956  0.00  0.00    +0.102 C 
ENDROOT
BRANCH  10  11
ATOM     11  C   UNL     1       8.158  -4.200   5.055  0.00  0.00    -0.032 A 
ATOM     12  C   UNL     1       9.246  -3.635   5.693  0.00  0.00    +0.005 A 
ATOM     13  C   UNL     1       9.054  -2.709   6.702  0.00  0.00    +0.003 A 
ATOM     14  C   UNL     1       7.772  -2.349   7.074  0.00  0.00    +0.038 A 
ATOM     15  C   UNL     1       6.682  -2.915   6.437  0.00  0.00    +0.124 A 
ATOM     16  C   UNL     1       6.876  -3.838   5.422  0.00  0.00    +0.043 A 
ATOM     17  F   UNL     1       5.429  -2.565   6.801  0.00  0.00    -0.205 F 
ENDBRANCH  10  11
BRANCH   1  21
ATOM     18  C   UNL     1       5.192  -1.682   1.513  0.00  0.00    +0.121 A 
ATOM     19  C   UNL     1       6.369  -0.946   1.514  0.00  0.00    +0.046 A 
ATOM     20  C   UNL     1       7.583  -1.584   1.658  0.00  0.00    +0.013 A 
ATOM     21  C   UNL     1       7.627  -2.971   1.802  0.00  0.00    +0.000 A 
ATOM     22  C   UNL     1       6.442  -3.708   1.801  0.00  0.00    +0.013 A 
ATOM     23  C   UNL     1       5.231  -3.062   1.661  0.00  0.00    +0.046 A 
BRANCH  18  24
ATOM     24  O   UNL     1       3.997  -1.050   1.371  0.00  0.00    -0.487 OA
BRANCH  24  25
ATOM     25  C   UNL     1       4.029   0.371   1.222  0.00  0.00    +0.264 C 
BRANCH  25  29
ATOM     26  C   UNL     1       0.043   1.851   0.816  0.00  0.00    +0.000 A 
ATOM     27  C   UNL     1       0.613   1.737   2.070  0.00  0.00    +0.000 A 
ATOM     28  C   UNL     1       1.903   1.258   2.201  0.00  0.00    +0.007 A 
ATOM     29  C   UNL     1       2.623   0.892   1.079  0.00  0.00    -0.010 A 
ATOM     30  C   UNL     1       2.052   1.006  -0.175  0.00  0.00    +0.007 A 
ATOM     31  C   UNL     1       0.762   1.487  -0.307  0.00  0.00    +0.000 A 
ENDBRANCH  25  29
ENDBRANCH  24  25
ENDBRANCH  18  24
ENDBRANCH   1  21
BRANCH   8  32
ATOM     32  N   UNL     1      10.915  -7.829   4.793  0.00  0.00    -0.328 N 
ATOM     33  H   UNL     1      11.840  -8.061   4.619  0.00  0.00    +0.145 HD
ATOM     34  H   UNL     1      10.372  -8.395   5.364  0.00  0.00    +0.145 HD
ENDBRANCH   8  32
BRANCH   9  35
ATOM     35  C   UNL     1       8.353  -7.313   5.355  0.00  0.00    +0.101 C 
ATOM     36  N   UNL     1       7.776  -8.022   6.030  0.00  0.00    -0.191 NA
ENDBRANCH   9  35
TORSDOF 7
