REMARK  Name = ZINC62777819
REMARK  4 active torsions:
REMARK  status: ('A' for Active; 'I' for Inactive)
REMARK    1  A    between atoms: C_1  and  N_2
REMARK    2  A    between atoms: C_3  and  N_20
REMARK    3  A    between atoms: C_4  and  C_13
REMARK    4  A    between atoms: C_5  and  C_7
REMARK                            x       y       z     vdW  Elec       q    Type
REMARK                         _______ _______ _______ _____ _____    ______ ____
ROOT
ATOM      1  C   UNL     1      -0.018   1.461   0.010  0.00  0.00    +0.174 C 
ATOM      2  N   UNL     1       0.002  -0.004   0.002  0.00  0.00    -0.253 N 
ATOM      3  C   UNL     1       0.008  -0.788  -1.099  0.00  0.00    +0.123 A 
ATOM      4  C   UNL     1       0.028  -2.103  -0.672  0.00  0.00    +0.050 A 
ATOM      5  C   UNL     1       0.034  -2.083   0.745  0.00  0.00    +0.105 A 
ATOM      6  N   UNL     1       0.025  -0.828   1.133  0.00  0.00    -0.169 NA
ENDROOT
BRANCH   4   7
ATOM      7  C   UNL     1       0.040  -3.308  -1.535  0.00  0.00    +0.006 A 
ATOM      8  C   UNL     1       1.252  -3.864  -1.943  0.00  0.00    +0.010 A 
ATOM      9  C   UNL     1       1.257  -4.987  -2.745  0.00  0.00    +0.001 A 
ATOM     10  C   UNL     1       0.064  -5.560  -3.147  0.00  0.00    +0.001 A 
ATOM     11  C   UNL     1      -1.142  -5.013  -2.746  0.00  0.00    +0.020 A 
ATOM     12  C   UNL     1      -1.161  -3.893  -1.938  0.00  0.00    +0.049 A 
ATOM     13 CL   UNL     1      -2.674  -3.212  -1.430  0.00  0.00    -0.083 Cl
ENDBRANCH   4   7
BRANCH   5  14
ATOM     14  C   UNL     1       0.054  -3.271   1.634  0.00  0.00    +0.040 A 
ATOM     15  C   UNL     1       0.688  -3.366   2.838  0.00  0.00    +0.115 A 
ATOM     16  N   UNL     1       0.461  -4.605   3.322  0.00  0.00    -0.284 N 
ATOM     17  H   UNL     1       0.791  -4.955   4.164  0.00  0.00    +0.188 HD
ATOM     18  N   UNL     1      -0.331  -5.297   2.398  0.00  0.00    -0.182 NA
ATOM     19  C   UNL     1      -0.583  -4.504   1.391  0.00  0.00    +0.144 A 
ENDBRANCH   5  14
BRANCH   3  20
ATOM     20  N   UNL     1      -0.005  -0.353  -2.418  0.00  0.00    -0.343 N 
ATOM     21  H   UNL     1      -0.019   0.597  -2.615  0.00  0.00    +0.144 HD
ATOM     22  H   UNL     1       0.000  -0.998  -3.142  0.00  0.00    +0.144 HD
ENDBRANCH   3  20
TORSDOF 3
