REMARK  Name = ZINC37624837
REMARK  13 active torsions:
REMARK  status: ('A' for Active; 'I' for Inactive)
REMARK    1  A    between atoms: C_1  and  C_2
REMARK    2  A    between atoms: C_4  and  C_36
REMARK    3  A    between atoms: C_7  and  C_8
REMARK    4  A    between atoms: C_8  and  C_28
REMARK    5  A    between atoms: N_9  and  N_10
REMARK    6  A    between atoms: C_11  and  C_12
REMARK    7  A    between atoms: C_11  and  C_20
REMARK    8  A    between atoms: C_13  and  C_19
REMARK    9  A    between atoms: C_15  and  C_18
REMARK   10  A    between atoms: C_21  and  C_27
REMARK   11  A    between atoms: C_23  and  C_26
REMARK   12  A    between atoms: C_29  and  C_35
REMARK   13  A    between atoms: C_31  and  C_34
REMARK                            x       y       z     vdW  Elec       q    Type
REMARK                         _______ _______ _______ _____ _____    ______ ____
ROOT
ATOM      1  C   UNL     1       1.080  -0.195   2.184  0.00  0.00    +0.133 C 
ATOM      2  N   UNL     1       0.878   1.075   2.504  0.00  0.00    -0.145 NA
ENDROOT
BRANCH   1   9
ATOM      3  C   UNL     1      -0.527   1.433   0.031  0.00  0.00    +0.046 C 
ATOM      4  C   UNL     1      -0.059   0.004  -0.078  0.00  0.00    -0.023 A 
ATOM      5  C   UNL     1      -0.253  -0.855  -1.168  0.00  0.00    +0.026 A 
ATOM      6  C   UNL     1       0.319  -2.042  -0.867  0.00  0.00    +0.014 A 
ATOM      7  N   UNL     1       0.868  -1.962   0.377  0.00  0.00    -0.357 N 
ATOM      8  H   UNL     1       1.340  -2.676   0.834  0.00  0.00    +0.166 HD
ATOM      9  C   UNL     1       0.646  -0.700   0.874  0.00  0.00    +0.072 A 
ATOM     10  C   UNL     1       0.344  -3.256  -1.760  0.00  0.00    +0.063 C 
ENDBRANCH   1   9
BRANCH   1  11
ATOM     11  C   UNL     1       1.739  -1.097   3.139  0.00  0.00    +0.072 A 
ATOM     12  C   UNL     1       1.172  -2.200   3.740  0.00  0.00    -0.023 A 
ATOM     13  C   UNL     1       2.149  -2.766   4.570  0.00  0.00    +0.026 A 
ATOM     14  C   UNL     1       3.269  -2.016   4.463  0.00  0.00    +0.014 A 
ATOM     15  N   UNL     1       3.033  -0.998   3.589  0.00  0.00    -0.357 N 
ATOM     16  H   UNL     1       3.672  -0.316   3.330  0.00  0.00    +0.166 HD
ATOM     17  C   UNL     1       4.566  -2.267   5.187  0.00  0.00    +0.063 C 
ATOM     18  C   UNL     1      -0.235  -2.703   3.542  0.00  0.00    +0.046 C 
ENDBRANCH   1  11
BRANCH   2  19
ATOM     19  N   UNL     1       1.176   1.498   3.686  0.00  0.00    -0.145 NA
ATOM     20  C   UNL     1       0.893   2.744   4.035  0.00  0.00    +0.133 C 
BRANCH  20  21
ATOM     21  C   UNL     1       0.325   3.673   3.047  0.00  0.00    +0.072 A 
ATOM     22  C   UNL     1      -0.928   4.245   3.095  0.00  0.00    -0.023 A 
ATOM     23  C   UNL     1      -1.054   5.059   1.961  0.00  0.00    +0.026 A 
ATOM     24  C   UNL     1       0.098   4.970   1.257  0.00  0.00    +0.014 A 
ATOM     25  N   UNL     1       0.948   4.132   1.912  0.00  0.00    -0.357 N 
ATOM     26  H   UNL     1       1.844   3.897   1.624  0.00  0.00    +0.166 HD
ATOM     27  C   UNL     1       0.393   5.685  -0.036  0.00  0.00    +0.063 C 
ATOM     28  C   UNL     1      -1.968   4.036   4.166  0.00  0.00    +0.046 C 
ENDBRANCH  20  21
BRANCH  20  29
ATOM     29  C   UNL     1       1.148   3.199   5.409  0.00  0.00    +0.072 A 
ATOM     30  C   UNL     1       1.579   2.416   6.458  0.00  0.00    -0.023 A 
ATOM     31  C   UNL     1       1.690   3.251   7.578  0.00  0.00    +0.026 A 
ATOM     32  C   UNL     1       1.333   4.500   7.201  0.00  0.00    +0.014 A 
ATOM     33  N   UNL     1       1.005   4.482   5.879  0.00  0.00    -0.357 N 
ATOM     34  H   UNL     1       0.717   5.247   5.357  0.00  0.00    +0.166 HD
ATOM     35  C   UNL     1       1.307   5.713   8.095  0.00  0.00    +0.063 C 
ATOM     36  C   UNL     1       1.875   0.939   6.411  0.00  0.00    +0.046 C 
ENDBRANCH  20  29
ENDBRANCH   2  19
TORSDOF 5
