REMARK  Name = ZINC67100630
REMARK  10 active torsions:
REMARK  status: ('A' for Active; 'I' for Inactive)
REMARK    1  A    between atoms: C_1  and  C_2
REMARK    2  A    between atoms: C_5  and  C_8
REMARK    3  A    between atoms: C_8  and  C_10
REMARK    4  A    between atoms: C_8  and  N_11
REMARK    5  A    between atoms: N_14  and  C_15
REMARK    6  A    between atoms: C_15  and  C_16
REMARK    7  A    between atoms: C_17  and  C_25
REMARK    8  A    between atoms: C_19  and  C_24
REMARK    9  A    between atoms: C_21  and  O_22
REMARK   10  A    between atoms: O_22  and  C_23
REMARK                            x       y       z     vdW  Elec       q    Type
REMARK                         _______ _______ _______ _____ _____    ______ ____
ROOT
ATOM      1  N   UNL     1       0.959  -4.758   1.029  0.00  0.00    -0.293 N 
ATOM      2  C   UNL     1       1.534  -5.972   0.919  0.00  0.00    +0.300 C 
ATOM      3  O   UNL     1       1.306  -6.667  -0.053  0.00  0.00    -0.253 OA
ATOM      4  N   UNL     1       2.362  -6.416   1.885  0.00  0.00    -0.295 N 
ATOM      5  H   UNL     1       1.142  -4.204   1.804  0.00  0.00    +0.151 HD
ATOM      6  H   UNL     1       2.544  -5.862   2.660  0.00  0.00    +0.151 HD
ENDROOT
BRANCH   1   7
ATOM      7  C   UNL     1       0.059  -4.275  -0.021  0.00  0.00    +0.102 C 
ATOM      8  C   UNL     1      -1.353  -4.805   0.234  0.00  0.00    +0.033 C 
BRANCH   7  13
ATOM      9  C   UNL     1      -0.018   1.503   0.010  0.00  0.00    +0.044 C 
ATOM     10  C   UNL     1       0.002  -0.004   0.002  0.00  0.00    -0.050 A 
ATOM     11  C   UNL     1       0.006  -0.689  -1.199  0.00  0.00    +0.004 A 
ATOM     12  C   UNL     1       0.025  -2.071  -1.206  0.00  0.00    +0.006 A 
ATOM     13  C   UNL     1       0.040  -2.768  -0.013  0.00  0.00    -0.027 A 
ATOM     14  C   UNL     1       0.037  -2.084   1.188  0.00  0.00    +0.006 A 
ATOM     15  C   UNL     1       0.023  -0.702   1.195  0.00  0.00    +0.004 A 
ENDBRANCH   7  13
ENDBRANCH   1   7
BRANCH   4  16
ATOM     16  C   UNL     1       2.987  -7.736   1.765  0.00  0.00    +0.146 C 
BRANCH  16  17
ATOM     17  C   UNL     1       3.859  -7.989   2.968  0.00  0.00    +0.034 A 
ATOM     18  C   UNL     1       5.191  -7.612   2.961  0.00  0.00    -0.039 A 
ATOM     19  C   UNL     1       5.957  -7.865   4.090  0.00  0.00    +0.027 A 
ATOM     20  C   UNL     1       5.372  -8.482   5.178  0.00  0.00    +0.042 A 
ATOM     21  N   UNL     1       4.100  -8.831   5.155  0.00  0.00    -0.218 NA
ATOM     22  C   UNL     1       3.336  -8.600   4.100  0.00  0.00    +0.220 A 
ATOM     23  C   UNL     1       6.197  -8.760   6.408  0.00  0.00    +0.066 C 
ATOM     24  C   UNL     1       5.795  -6.941   1.754  0.00  0.00    +0.044 C 
BRANCH  22  25
ATOM     25  O   UNL     1       2.031  -8.970   4.122  0.00  0.00    -0.479 OA
ATOM     26  C   UNL     1       1.553  -9.593   5.316  0.00  0.00    +0.279 C 
ENDBRANCH  22  25
ENDBRANCH  16  17
ENDBRANCH   4  16
TORSDOF 5
