REMARK  Name = ZINC09972071
REMARK  5 active torsions:
REMARK  status: ('A' for Active; 'I' for Inactive)
REMARK    1  A    between atoms: C_6  and  C_7
REMARK    2  A    between atoms: C_7  and  C_9
REMARK    3  A    between atoms: C_7  and  O_30
REMARK    4  A    between atoms: C_14  and  N_15
REMARK    5  A    between atoms: N_18  and  C_19
REMARK                            x       y       z     vdW  Elec       q    Type
REMARK                         _______ _______ _______ _____ _____    ______ ____
ROOT
ATOM      1  C   UNL     1      -1.116   1.429  -1.334  0.00  0.00    +0.010 A 
ATOM      2  C   UNL     1      -2.034   2.462  -1.297  0.00  0.00    +0.057 A 
ATOM      3  C   UNL     1      -2.754   2.794  -2.435  0.00  0.00    +0.163 A 
ATOM      4  C   UNL     1      -2.558   2.081  -3.613  0.00  0.00    +0.164 A 
ATOM      5  C   UNL     1      -1.642   1.042  -3.647  0.00  0.00    +0.073 A 
ATOM      6  C   UNL     1      -0.920   0.715  -2.507  0.00  0.00    +0.044 A 
ATOM      7  O   UNL     1      -3.255   2.393  -4.739  0.00  0.00    -0.485 OA
ATOM      8  C   UNL     1      -4.430   3.194  -4.569  0.00  0.00    +0.270 C 
ATOM      9  C   UNL     1      -4.085   4.359  -3.632  0.00  0.00    +0.270 C 
ATOM     10  O   UNL     1      -3.653   3.815  -2.381  0.00  0.00    -0.485 OA
ENDROOT
BRANCH   6  11
ATOM     11  N   UNL     1       0.006  -0.336  -2.542  0.00  0.00    -0.269 N 
ATOM     12  C   UNL     1       0.526  -0.738  -3.719  0.00  0.00    +0.308 C 
ATOM     13  O   UNL     1       0.267  -0.127  -4.738  0.00  0.00    -0.252 OA
ATOM     14  N   UNL     1       1.331  -1.817  -3.766  0.00  0.00    -0.269 N 
ATOM     15  H   UNL     1       0.274  -0.774  -1.719  0.00  0.00    +0.156 HD
ATOM     16  H   UNL     1       1.476  -2.350  -2.969  0.00  0.00    +0.156 HD
BRANCH  14  17
ATOM     17  C   UNL     1       1.960  -2.169  -4.966  0.00  0.00    +0.035 A 
ATOM     18  C   UNL     1       2.193  -3.505  -5.264  0.00  0.00    +0.025 A 
ATOM     19  C   UNL     1       2.808  -3.850  -6.452  0.00  0.00    +0.022 A 
ATOM     20  C   UNL     1       3.203  -2.864  -7.339  0.00  0.00    +0.041 A 
ATOM     21  C   UNL     1       2.978  -1.532  -7.042  0.00  0.00    +0.022 A 
ATOM     22  C   UNL     1       2.358  -1.182  -5.859  0.00  0.00    +0.025 A 
ATOM     23 CL   UNL     1       3.983  -3.300  -8.828  0.00  0.00    -0.084 Cl
ENDBRANCH  14  17
ENDBRANCH   6  11
BRANCH   1  24
ATOM     24  C   UNL     1      -0.333   1.075  -0.096  0.00  0.00    +0.177 C 
BRANCH  24  30
ATOM     25  C   UNL     1       1.111   3.074   0.328  0.00  0.00    +0.008 A 
ATOM     26  C   UNL     1       2.336   3.715   0.304  0.00  0.00    +0.020 A 
ATOM     27  C   UNL     1       3.450   3.058  -0.189  0.00  0.00    +0.041 A 
ATOM     28  C   UNL     1       3.338   1.759  -0.652  0.00  0.00    +0.020 A 
ATOM     29  C   UNL     1       2.114   1.118  -0.621  0.00  0.00    +0.008 A 
ATOM     30  C   UNL     1       1.002   1.774  -0.129  0.00  0.00    -0.015 A 
ATOM     31 CL   UNL     1       4.987   3.864  -0.226  0.00  0.00    -0.084 Cl
ENDBRANCH  24  30
BRANCH  24  32
ATOM     32  O   UNL     1      -1.059   1.488   1.063  0.00  0.00    -0.382 OA
ATOM     33  H   UNL     1      -1.235   2.438   1.099  0.00  0.00    +0.211 HD
ENDBRANCH  24  32
ENDBRANCH   1  24
TORSDOF 5
