REMARK  Name = ZINC61909284
REMARK  7 active torsions:
REMARK  status: ('A' for Active; 'I' for Inactive)
REMARK    1  A    between atoms: C_1  and  C_2
REMARK    2  A    between atoms: N_5  and  C_9
REMARK    3  A    between atoms: C_9  and  C_10
REMARK    4  A    between atoms: C_12  and  C_15
REMARK    5  A    between atoms: C_15  and  C_16
REMARK    6  A    between atoms: C_15  and  C_17
REMARK    7  A    between atoms: C_15  and  N_18
REMARK                            x       y       z     vdW  Elec       q    Type
REMARK                         _______ _______ _______ _____ _____    ______ ____
ROOT
ATOM      1  C   UNL     1       1.488  -4.697  -0.081  0.00  0.00    +0.247 A 
ATOM      2  N   UNL     1       2.216  -4.965   0.968  0.00  0.00    -0.196 NA
ATOM      3  C   UNL     1       3.434  -5.369   0.591  0.00  0.00    +0.160 A 
ATOM      4  N   UNL     1       3.496  -5.364  -0.710  0.00  0.00    -0.063 NA
ATOM      5  O   UNL     1       2.226  -4.931  -1.173  0.00  0.00    -0.336 OA
ENDROOT
BRANCH   3   6
ATOM      6  C   UNL     1       4.552  -5.766   1.520  0.00  0.00    -0.012 C 
ATOM      7  C   UNL     1       5.780  -6.164   0.699  0.00  0.00    -0.003 C 
ATOM      8  C   UNL     1       4.906  -4.585   2.426  0.00  0.00    -0.003 C 
BRANCH   6   9
ATOM      9  N   UNL     1       4.124  -6.904   2.344  0.00  0.00    +0.386 N 
ATOM     10  H   UNL     1       3.890  -7.683   1.746  0.00  0.00    -0.089 HD
ATOM     11  H   UNL     1       4.872  -7.170   2.966  0.00  0.00    -0.089 HD
ATOM     12  H   UNL     1       3.314  -6.641   2.885  0.00  0.00    -0.089 HD
ENDBRANCH   6   9
ENDBRANCH   3   6
BRANCH   1  13
ATOM     13  C   UNL     1       0.060  -4.215  -0.065  0.00  0.00    +0.223 C 
BRANCH  13  18
ATOM     14  C   UNL     1      -0.018   1.503   0.010  0.00  0.00    +0.044 C 
ATOM     15  C   UNL     1       0.002  -0.004   0.002  0.00  0.00    -0.044 A 
ATOM     16  C   UNL     1       0.006  -0.706  -1.212  0.00  0.00    +0.021 A 
ATOM     17  C   UNL     1       0.025  -2.059  -1.209  0.00  0.00    +0.090 A 
ATOM     18  N   UNL     1       0.040  -2.750  -0.040  0.00  0.00    -0.306 N 
ATOM     19  C   UNL     1       0.036  -2.105   1.141  0.00  0.00    +0.252 A 
ATOM     20  O   UNL     1       0.050  -2.740   2.183  0.00  0.00    -0.268 OA
ATOM     21  C   UNL     1       0.023  -0.700   1.175  0.00  0.00    +0.073 A 
ENDBRANCH  13  18
ENDBRANCH   1  13
TORSDOF 4
