REMARK  Name = ZINC63437144
REMARK  7 active torsions:
REMARK  status: ('A' for Active; 'I' for Inactive)
REMARK    1  A    between atoms: C_1  and  C_2
REMARK    2  A    between atoms: C_5  and  C_8
REMARK    3  A    between atoms: C_8  and  C_10
REMARK    4  A    between atoms: C_8  and  N_23
REMARK    5  A    between atoms: N_12  and  C_13
REMARK    6  A    between atoms: C_24  and  C_26
REMARK    7  A    between atoms: C_26  and  C_27
REMARK                            x       y       z     vdW  Elec       q    Type
REMARK                         _______ _______ _______ _____ _____    ______ ____
ROOT
ATOM      1  C   UNL     1       0.058  -4.280  -0.025  0.00  0.00    +0.190 C 
ENDROOT
BRANCH   1   6
ATOM      2  C   UNL     1      -0.042   1.497  -0.029  0.00  0.00    +0.044 C 
ATOM      3  C   UNL     1      -0.015  -0.009  -0.028  0.00  0.00    -0.050 A 
ATOM      4  C   UNL     1      -0.008  -0.702  -1.225  0.00  0.00    +0.004 A 
ATOM      5  C   UNL     1       0.016  -2.084  -1.224  0.00  0.00    +0.006 A 
ATOM      6  C   UNL     1       0.033  -2.774  -0.026  0.00  0.00    -0.018 A 
ATOM      7  C   UNL     1       0.026  -2.082   1.170  0.00  0.00    +0.006 A 
ATOM      8  C   UNL     1       0.007  -0.700   1.169  0.00  0.00    +0.004 A 
ENDBRANCH   1   6
BRANCH   1   9
ATOM      9  C   UNL     1       1.467  -4.759   0.216  0.00  0.00    +0.242 C 
ATOM     10  O   UNL     1       1.715  -5.452   1.180  0.00  0.00    -0.273 OA
ATOM     11  N   UNL     1       2.450  -4.418  -0.640  0.00  0.00    -0.284 N 
ATOM     12  H   UNL     1       2.241  -3.921  -1.446  0.00  0.00    +0.155 HD
BRANCH  11  13
ATOM     13  C   UNL     1       3.775  -4.780  -0.365  0.00  0.00    +0.037 A 
ATOM     14  C   UNL     1       4.815  -3.929  -0.715  0.00  0.00    +0.027 A 
ATOM     15  C   UNL     1       6.122  -4.287  -0.445  0.00  0.00    +0.051 A 
ATOM     16  C   UNL     1       6.399  -5.496   0.176  0.00  0.00    +0.162 A 
ATOM     17  C   UNL     1       5.360  -6.349   0.529  0.00  0.00    +0.164 A 
ATOM     18  C   UNL     1       4.049  -5.988   0.261  0.00  0.00    +0.072 A 
ATOM     19  O   UNL     1       5.612  -7.536   1.147  0.00  0.00    -0.485 OA
ATOM     20  C   UNL     1       6.954  -8.030   1.068  0.00  0.00    +0.270 C 
ATOM     21  C   UNL     1       7.911  -6.874   1.389  0.00  0.00    +0.270 C 
ATOM     22  O   UNL     1       7.694  -5.833   0.431  0.00  0.00    -0.485 OA
ENDBRANCH  11  13
ENDBRANCH   1   9
BRANCH   1  23
ATOM     23  N   UNL     1      -0.817  -4.783   1.037  0.00  0.00    -0.300 N 
ATOM     24  C   UNL     1      -2.136  -4.934   0.808  0.00  0.00    +0.216 C 
ATOM     25  O   UNL     1      -2.599  -4.654  -0.277  0.00  0.00    -0.276 OA
ATOM     26  H   UNL     1      -0.446  -5.007   1.905  0.00  0.00    +0.150 HD
BRANCH  24  27
ATOM     27  C   UNL     1      -3.036  -5.450   1.901  0.00  0.00    +0.124 C 
BRANCH  27  28
ATOM     28  C   UNL     1      -4.474  -5.526   1.384  0.00  0.00    +0.112 C 
ATOM     29  C   UNL     1      -5.381  -6.103   2.448  0.00  0.00    +0.007 C 
ATOM     30  C   UNL     1      -6.298  -5.146   2.718  0.00  0.00    -0.004 A 
ATOM     31  C   UNL     1      -7.435  -5.091   3.645  0.00  0.00    +0.010 A 
ATOM     32  C   UNL     1      -8.189  -3.969   3.692  0.00  0.00    +0.001 A 
ATOM     33  C   UNL     1      -7.913  -2.861   2.881  0.00  0.00    +0.002 A 
ATOM     34  C   UNL     1      -6.886  -2.836   2.005  0.00  0.00    +0.026 A 
ATOM     35  C   UNL     1      -6.027  -3.962   1.872  0.00  0.00    +0.043 A 
ATOM     36  N   UNL     1      -4.984  -4.178   1.106  0.00  0.00    -0.377 N 
ATOM     37  H   UNL     1      -4.611  -3.554   0.465  0.00  0.00    +0.160 HD
ENDBRANCH  27  28
ENDBRANCH  24  27
ENDBRANCH   1  23
TORSDOF 6
