REMARK  Name = ZINC39370343
REMARK  7 active torsions:
REMARK  status: ('A' for Active; 'I' for Inactive)
REMARK    1  A    between atoms: C_1  and  C_2
REMARK    2  A    between atoms: C_3  and  C_23
REMARK    3  A    between atoms: C_4  and  C_16
REMARK    4  A    between atoms: C_20  and  O_22
REMARK    5  A    between atoms: C_23  and  O_25
REMARK    6  A    between atoms: O_25  and  C_26
REMARK    7  A    between atoms: C_26  and  C_27
REMARK                            x       y       z     vdW  Elec       q    Type
REMARK                         _______ _______ _______ _____ _____    ______ ____
ROOT
ATOM      1  C   UNL     1      -0.018   1.503   0.010  0.00  0.00    +0.061 C 
ATOM      2  C   UNL     1       0.002  -0.004   0.002  0.00  0.00    +0.016 C 
ATOM      3  C   UNL     1      -1.156  -0.678   0.004  0.00  0.00    +0.062 C 
ATOM      4  C   UNL     1      -1.237  -2.179   0.017  0.00  0.00    +0.076 C 
ATOM      5  C   UNL     1       0.060  -2.784  -0.526  0.00  0.00    +0.148 C 
ATOM      6  C   UNL     1       1.184  -2.017   0.151  0.00  0.00    +0.106 C 
ATOM      7  N   UNL     1       2.054  -2.672   0.862  0.00  0.00    -0.151 NA
ATOM      8  C   UNL     1       1.976  -3.997   1.038  0.00  0.00    +0.331 C 
ATOM      9  O   UNL     1       2.850  -4.533   1.694  0.00  0.00    -0.250 OA
ATOM     10  N   UNL     1       1.004  -4.773   0.543  0.00  0.00    -0.238 N 
ATOM     11  C   UNL     1       0.011  -4.275  -0.243  0.00  0.00    +0.231 C 
ATOM     12  O   UNL     1      -0.871  -4.977  -0.691  0.00  0.00    -0.275 OA
ATOM     13  N   UNL     1       1.211  -0.665  -0.013  0.00  0.00    -0.307 N 
ATOM     14  H   UNL     1       1.009  -5.722   0.747  0.00  0.00    +0.159 HD
ATOM     15  H   UNL     1       2.047  -0.187  -0.132  0.00  0.00    +0.153 HD
ENDROOT
BRANCH   4  16
ATOM     16  C   UNL     1      -2.390  -2.624  -0.844  0.00  0.00    -0.035 A 
ATOM     17  C   UNL     1      -2.413  -2.302  -2.189  0.00  0.00    +0.004 A 
ATOM     18  C   UNL     1      -3.471  -2.709  -2.981  0.00  0.00    +0.004 A 
ATOM     19  C   UNL     1      -4.507  -3.438  -2.431  0.00  0.00    +0.045 A 
ATOM     20  C   UNL     1      -4.487  -3.762  -1.083  0.00  0.00    +0.117 A 
ATOM     21  C   UNL     1      -3.422  -3.357  -0.290  0.00  0.00    +0.049 A 
BRANCH  20  22
ATOM     22  O   UNL     1      -5.505  -4.479  -0.539  0.00  0.00    -0.507 OA
ATOM     23  H   UNL     1      -5.372  -5.436  -0.569  0.00  0.00    +0.292 HD
ENDBRANCH  20  22
ENDBRANCH   4  16
BRANCH   3  24
ATOM     24  C   UNL     1      -2.363   0.060  -0.007  0.00  0.00    +0.338 C 
ATOM     25  O   UNL     1      -2.333   1.276  -0.017  0.00  0.00    -0.245 OA
BRANCH  24  26
ATOM     26  O   UNL     1      -3.549  -0.586  -0.005  0.00  0.00    -0.457 OA
BRANCH  26  27
ATOM     27  C   UNL     1      -4.727   0.223  -0.016  0.00  0.00    +0.259 C 
BRANCH  27  28
ATOM     28  C   UNL     1      -5.945  -0.665  -0.013  0.00  0.00    +0.006 C 
ATOM     29  C   UNL     1      -6.949  -0.396   0.784  0.00  0.00    +0.007 C 
ENDBRANCH  27  28
ENDBRANCH  26  27
ENDBRANCH  24  26
ENDBRANCH   3  24
TORSDOF 6
