REMARK  Name = ZINC05945774
REMARK  4 active torsions:
REMARK  status: ('A' for Active; 'I' for Inactive)
REMARK    1  A    between atoms: C_4  and  O_22
REMARK    2  A    between atoms: C_5  and  C_7
REMARK    3  A    between atoms: N_8  and  N_9
REMARK    4  A    between atoms: C_10  and  C_12
REMARK                            x       y       z     vdW  Elec       q    Type
REMARK                         _______ _______ _______ _____ _____    ______ ____
ROOT
ATOM      1  N   UNL     1       1.046  -1.856   1.266  0.00  0.00    -0.207 N 
ATOM      2  C   UNL     1       0.890  -0.528   1.101  0.00  0.00    +0.236 C 
ATOM      3  O   UNL     1       1.465   0.246   1.837  0.00  0.00    -0.274 OA
ATOM      4  H   UNL     1       0.586  -2.475   0.677  0.00  0.00    +0.177 HD
ENDROOT
BRANCH   2   5
ATOM      5  C   UNL     1       0.002  -0.004   0.002  0.00  0.00    +0.084 C 
ATOM      6  C   UNL     1       0.590  -0.355  -1.387  0.00  0.00    +0.021 C 
ATOM      7  C   UNL     1       0.850   1.040  -2.041  0.00  0.00    +0.013 C 
ATOM      8  C   UNL     1      -0.384   1.845  -1.492  0.00  0.00    +0.016 C 
ATOM      9  C   UNL     1      -0.019   1.558   0.011  0.00  0.00    +0.024 C 
ATOM     10  C   UNL     1       1.463   1.951  -0.001  0.00  0.00    -0.027 C 
ATOM     11  C   UNL     1       1.979   1.643  -1.197  0.00  0.00    -0.027 C 
ENDBRANCH   2   5
BRANCH   1  13
ATOM     12  C   UNL     1       2.022  -3.623   2.447  0.00  0.00    +0.142 C 
ATOM     13  N   UNL     1       1.871  -2.343   2.288  0.00  0.00    -0.188 NA
BRANCH  12  18
ATOM     14  C   UNL     1       3.868  -5.984   4.704  0.00  0.00    +0.001 A 
ATOM     15  C   UNL     1       4.524  -5.100   5.544  0.00  0.00    +0.004 A 
ATOM     16  C   UNL     1       4.370  -3.736   5.381  0.00  0.00    +0.046 A 
ATOM     17  C   UNL     1       3.556  -3.244   4.374  0.00  0.00    +0.125 A 
ATOM     18  C   UNL     1       2.890  -4.135   3.522  0.00  0.00    +0.036 A 
ATOM     19  C   UNL     1       3.050  -5.511   3.700  0.00  0.00    +0.013 A 
BRANCH  17  20
ATOM     20  O   UNL     1       3.403  -1.904   4.214  0.00  0.00    -0.506 OA
ATOM     21  H   UNL     1       2.669  -1.529   4.720  0.00  0.00    +0.292 HD
ENDBRANCH  17  20
ENDBRANCH  12  18
ENDBRANCH   1  13
TORSDOF 4
