REMARK  Name = ZINC38971374
REMARK  3 active torsions:
REMARK  status: ('A' for Active; 'I' for Inactive)
REMARK    1  A    between atoms: C_4  and  C_7
REMARK    2  A    between atoms: C_9  and  C_13
REMARK    3  A    between atoms: C_21  and  C_24
REMARK                            x       y       z     vdW  Elec       q    Type
REMARK                         _______ _______ _______ _____ _____    ______ ____
ROOT
ATOM      1  C   UNL     1       5.782  -3.012   1.181  0.00  0.00    +0.206 C 
ATOM      2  N   UNL     1       5.194  -4.382   1.197  0.00  0.00    -0.231 NA
ATOM      3  N   UNL     1       6.094  -5.127   2.092  0.00  0.00    -0.225 NA
ATOM      4  C   UNL     1       7.428  -4.534   1.898  0.00  0.00    +0.234 C 
ATOM      5  N   UNL     1       7.227  -3.274   1.141  0.00  0.00    -0.207 N 
ATOM      6  N   UNL     1       8.230  -2.581   0.476  0.00  0.00    -0.184 NA
ATOM      7  C   UNL     1       9.363  -3.085   0.156  0.00  0.00    +0.076 C 
ATOM      8  C   UNL     1       9.857  -4.468   0.454  0.00  0.00    +0.129 C 
ATOM      9  S   UNL     1       8.463  -5.597   0.842  0.00  0.00    -0.114 S 
ATOM     10  H   UNL     1       4.253  -4.368   1.561  0.00  0.00    +0.143 HD
ATOM     11  H   UNL     1       5.798  -5.045   3.053  0.00  0.00    +0.143 HD
ENDROOT
BRANCH   7  12
ATOM     12  C   UNL     1      10.283  -2.207  -0.590  0.00  0.00    +0.000 A 
ATOM     13  C   UNL     1      11.538  -2.678  -0.984  0.00  0.00    +0.011 A 
ATOM     14  C   UNL     1      12.395  -1.852  -1.681  0.00  0.00    +0.022 A 
ATOM     15  C   UNL     1      12.014  -0.557  -1.991  0.00  0.00    +0.059 A 
ATOM     16  C   UNL     1      10.771  -0.083  -1.603  0.00  0.00    +0.060 A 
ATOM     17  C   UNL     1       9.902  -0.902  -0.911  0.00  0.00    +0.031 A 
ATOM     18 CL   UNL     1      10.303   1.542  -1.996  0.00  0.00    -0.082 Cl
ATOM     19 CL   UNL     1      13.098   0.476  -2.869  0.00  0.00    -0.082 Cl
ENDBRANCH   7  12
BRANCH   1  22
ATOM     20  C   UNL     1       3.699  -0.689  -0.037  0.00  0.00    +0.091 C 
ATOM     21  C   UNL     1       3.832  -2.029  -0.051  0.00  0.00    +0.034 C 
ATOM     22  C   UNL     1       5.335  -2.245  -0.065  0.00  0.00    +0.190 C 
ATOM     23  N   UNL     1       5.871  -0.874  -0.056  0.00  0.00    -0.176 NA
ATOM     24  N   UNL     1       4.919  -0.090  -0.047  0.00  0.00    -0.154 NA
BRANCH  20  28
ATOM     25  C   UNL     1      -0.017   1.379   0.010  0.00  0.00    +0.000 A 
ATOM     26  C   UNL     1       1.169   2.092   0.002  0.00  0.00    +0.001 A 
ATOM     27  C   UNL     1       2.377   1.426  -0.013  0.00  0.00    +0.010 A 
ATOM     28  C   UNL     1       2.402   0.033  -0.021  0.00  0.00    +0.002 A 
ATOM     29  C   UNL     1       1.205  -0.680  -0.013  0.00  0.00    +0.010 A 
ATOM     30  C   UNL     1       0.002  -0.004   0.002  0.00  0.00    +0.001 A 
ENDBRANCH  20  28
ENDBRANCH   1  22
TORSDOF 3
