REMARK  Name = ZINC35491156
REMARK  10 active torsions:
REMARK  status: ('A' for Active; 'I' for Inactive)
REMARK    1  A    between atoms: C_1  and  C_2
REMARK    2  A    between atoms: C_2  and  C_4
REMARK    3  A    between atoms: C_2  and  N_16
REMARK    4  A    between atoms: C_6  and  C_9
REMARK    5  A    between atoms: C_17  and  C_19
REMARK    6  A    between atoms: C_19  and  C_20
REMARK    7  A    between atoms: C_20  and  C_21
REMARK    8  A    between atoms: C_21  and  C_22
REMARK    9  A    between atoms: C_22  and  C_23
REMARK   10  A    between atoms: C_23  and  N_24
REMARK                            x       y       z     vdW  Elec       q    Type
REMARK                         _______ _______ _______ _____ _____    ______ ____
ROOT
ATOM      1  C   UNL     1      -0.019   1.526   0.010  0.00  0.00    +0.038 C 
ATOM      2  C   UNL     1       0.002  -0.004   0.002  0.00  0.00    +0.159 C 
ENDROOT
BRANCH   2   3
ATOM      3  C   UNL     1      -1.412  -0.526   0.013  0.00  0.00    +0.248 A 
ATOM      4  N   UNL     1      -2.023  -1.046   1.038  0.00  0.00    -0.190 NA
ATOM      5  C   UNL     1      -3.273  -1.405   0.696  0.00  0.00    +0.202 A 
ATOM      6  N   UNL     1      -3.463  -1.109  -0.567  0.00  0.00    -0.056 NA
ATOM      7  O   UNL     1      -2.253  -0.527  -1.029  0.00  0.00    -0.336 OA
BRANCH   5   8
ATOM      8  C   UNL     1      -4.272  -2.032   1.597  0.00  0.00    +0.023 A 
ATOM      9  C   UNL     1      -3.947  -2.292   2.927  0.00  0.00    +0.013 A 
ATOM     10  C   UNL     1      -4.878  -2.876   3.761  0.00  0.00    +0.021 A 
ATOM     11  C   UNL     1      -6.134  -3.203   3.278  0.00  0.00    +0.041 A 
ATOM     12  C   UNL     1      -6.462  -2.946   1.958  0.00  0.00    +0.021 A 
ATOM     13  C   UNL     1      -5.539  -2.357   1.118  0.00  0.00    +0.013 A 
ATOM     14 CL   UNL     1      -7.302  -3.937   4.333  0.00  0.00    -0.084 Cl
ENDBRANCH   5   8
ENDBRANCH   2   3
BRANCH   2  15
ATOM     15  N   UNL     1       0.688  -0.476  -1.203  0.00  0.00    -0.304 N 
ATOM     16  C   UNL     1       2.031  -0.587  -1.215  0.00  0.00    +0.214 C 
ATOM     17  O   UNL     1       2.672  -0.295  -0.228  0.00  0.00    -0.276 OA
ATOM     18  H   UNL     1       0.175  -0.710  -1.993  0.00  0.00    +0.149 HD
BRANCH  16  19
ATOM     19  C   UNL     1       2.736  -1.073  -2.455  0.00  0.00    +0.096 C 
BRANCH  19  20
ATOM     20  C   UNL     1       4.245  -1.105  -2.204  0.00  0.00    +0.009 C 
BRANCH  20  21
ATOM     21  C   UNL     1       4.961  -1.599  -3.462  0.00  0.00    -0.001 C 
BRANCH  21  22
ATOM     22  C   UNL     1       6.470  -1.631  -3.211  0.00  0.00    -0.020 C 
BRANCH  22  23
ATOM     23  C   UNL     1       7.186  -2.125  -4.470  0.00  0.00    -0.086 C 
BRANCH  23  24
ATOM     24  N   UNL     1       8.635  -2.156  -4.229  0.00  0.00    +0.378 N 
ATOM     25  H   UNL     1       9.107  -2.481  -5.059  0.00  0.00    -0.090 HD
ATOM     26  H   UNL     1       8.958  -1.228  -4.000  0.00  0.00    -0.090 HD
ATOM     27  H   UNL     1       8.835  -2.780  -3.462  0.00  0.00    -0.090 HD
ENDBRANCH  23  24
ENDBRANCH  22  23
ENDBRANCH  21  22
ENDBRANCH  20  21
ENDBRANCH  19  20
ENDBRANCH  16  19
ENDBRANCH   2  15
TORSDOF 9
