REMARK  Name = ZINC33557718
REMARK  6 active torsions:
REMARK  status: ('A' for Active; 'I' for Inactive)
REMARK    1  A    between atoms: C_3  and  N_31
REMARK    2  A    between atoms: C_4  and  C_21
REMARK    3  A    between atoms: C_6  and  N_7
REMARK    4  A    between atoms: N_10  and  C_11
REMARK    5  A    between atoms: N_23  and  C_24
REMARK    6  A    between atoms: C_24  and  C_25
REMARK                            x       y       z     vdW  Elec       q    Type
REMARK                         _______ _______ _______ _____ _____    ______ ____
ROOT
ATOM      1  C   UNL     1      -9.469   2.099  -0.069  0.00  0.00    +0.025 A 
ATOM      2  C   UNL     1      -9.293   1.260  -1.149  0.00  0.00    +0.026 A 
ATOM      3  C   UNL     1      -8.016   0.849  -1.512  0.00  0.00    +0.042 A 
ATOM      4  C   UNL     1      -6.906   1.291  -0.776  0.00  0.00    +0.059 A 
ATOM      5  C   UNL     1      -7.096   2.136   0.320  0.00  0.00    +0.038 A 
ATOM      6  C   UNL     1      -8.373   2.541   0.665  0.00  0.00    +0.036 A 
ENDROOT
BRANCH   6   7
ATOM      7  N   UNL     1      -8.564   3.394   1.761  0.00  0.00    -0.269 N 
ATOM      8  C   UNL     1      -7.658   4.354   2.033  0.00  0.00    +0.304 C 
ATOM      9  O   UNL     1      -6.635   4.427   1.381  0.00  0.00    -0.252 OA
ATOM     10  N   UNL     1      -7.887   5.234   3.029  0.00  0.00    -0.294 N 
ATOM     11  H   UNL     1      -9.453   3.280   2.399  0.00  0.00    +0.156 HD
ATOM     12  H   UNL     1      -8.813   5.168   3.619  0.00  0.00    +0.151 HD
BRANCH  10  13
ATOM     13  C   UNL     1      -6.903   6.277   3.325  0.00  0.00    +0.037 C 
ATOM     14  C   UNL     1      -6.708   7.160   2.090  0.00  0.00    +0.029 C 
ATOM     15  C   UNL     1      -5.680   8.250   2.399  0.00  0.00    -0.008 C 
ATOM     16  C   UNL     1      -6.179   9.106   3.564  0.00  0.00    +0.007 C 
ATOM     17  C   UNL     1      -6.374   8.224   4.799  0.00  0.00    -0.008 C 
ATOM     18  C   UNL     1      -7.403   7.134   4.490  0.00  0.00    +0.029 C 
ATOM     19  C   UNL     1      -5.042   7.575   5.178  0.00  0.00    +0.007 C 
ATOM     20  C   UNL     1      -4.542   6.719   4.013  0.00  0.00    -0.008 C 
ATOM     21  C   UNL     1      -4.347   7.601   2.778  0.00  0.00    +0.007 C 
ATOM     22  C   UNL     1      -5.570   5.629   3.704  0.00  0.00    +0.029 C 
ENDBRANCH  10  13
ENDBRANCH   6   7
BRANCH   3  23
ATOM     23  N   UNL     1      -7.839   0.003  -2.602  0.00  0.00    -0.329 N 
ATOM     24  C   UNL     1      -8.684  -1.212  -2.476  0.00  0.00    +0.105 C 
ATOM     25  C   UNL     1      -8.771  -1.735  -3.931  0.00  0.00    +0.020 C 
ATOM     26  C   UNL     1      -8.857  -0.434  -4.763  0.00  0.00    +0.020 C 
ATOM     27  C   UNL     1      -8.262   0.660  -3.857  0.00  0.00    +0.105 C 
ENDBRANCH   3  23
BRANCH   4  28
ATOM     28  C   UNL     1      -5.548   0.860  -1.153  0.00  0.00    +0.246 C 
ATOM     29  O   UNL     1      -5.393   0.048  -2.045  0.00  0.00    -0.270 OA
ATOM     30  N   UNL     1      -4.477   1.367  -0.510  0.00  0.00    -0.309 N 
ATOM     31  H   UNL     1      -4.617   2.102   0.296  0.00  0.00    +0.149 HD
BRANCH  30  32
ATOM     32  C   UNL     1      -3.127   0.939  -0.885  0.00  0.00    +0.136 C 
BRANCH  32  33
ATOM     33  C   UNL     1      -2.102   1.659  -0.008  0.00  0.00    +0.135 C 
ATOM     34  C   UNL     1      -0.675   1.312  -0.476  0.00  0.00    +0.035 C 
ATOM     35  C   UNL     1      -0.009   0.682   0.771  0.00  0.00    +0.031 C 
ATOM     36  C   UNL     1      -0.896   1.222   1.921  0.00  0.00    +0.160 C 
ATOM     37  O   UNL     1      -2.224   1.214   1.353  0.00  0.00    -0.375 OA
ENDBRANCH  32  33
ENDBRANCH  30  32
ENDBRANCH   4  28
TORSDOF 6
