REMARK  Name = ZINC36537684
REMARK  11 active torsions:
REMARK  status: ('A' for Active; 'I' for Inactive)
REMARK    1  A    between atoms: C_1  and  C_2
REMARK    2  A    between atoms: C_3  and  C_4
REMARK    3  A    between atoms: C_4  and  C_6
REMARK    4  A    between atoms: C_4  and  N_20
REMARK    5  A    between atoms: N_8  and  C_9
REMARK    6  A    between atoms: C_9  and  S_10
REMARK    7  A    between atoms: S_10  and  C_13
REMARK    8  A    between atoms: C_16  and  C_19
REMARK    9  A    between atoms: N_20  and  C_21
REMARK   10  A    between atoms: C_22  and  C_24
REMARK   11  A    between atoms: C_28  and  N_30
REMARK                            x       y       z     vdW  Elec       q    Type
REMARK                         _______ _______ _______ _____ _____    ______ ____
ROOT
ATOM      1  C   UNL     1       0.573  -2.027  -1.005  0.00  0.00    +0.185 C 
ENDROOT
BRANCH   1   2
ATOM      2  C   UNL     1       2.040  -2.007  -0.660  0.00  0.00    +0.239 C 
ATOM      3  O   UNL     1       2.405  -2.322   0.453  0.00  0.00    -0.273 OA
ATOM      4  N   UNL     1       2.945  -1.639  -1.587  0.00  0.00    -0.294 N 
ATOM      5  H   UNL     1       2.653  -1.387  -2.477  0.00  0.00    +0.150 HD
BRANCH   4   6
ATOM      6  C   UNL     1       4.371  -1.619  -1.252  0.00  0.00    +0.278 C 
BRANCH   6   7
ATOM      7  S   UNL     1       5.133  -3.186  -1.757  0.00  0.00    +0.013 S 
ATOM      8  O   UNL     1       6.530  -3.157  -1.496  0.00  0.00    -0.168 OA
ATOM      9  O   UNL     1       4.337  -4.279  -1.323  0.00  0.00    -0.168 OA
BRANCH   7  10
ATOM     10  C   UNL     1       5.005  -3.205  -3.514  0.00  0.00    +0.090 A 
ATOM     11  C   UNL     1       3.889  -3.752  -4.120  0.00  0.00    +0.027 A 
ATOM     12  C   UNL     1       3.789  -3.768  -5.498  0.00  0.00    +0.005 A 
ATOM     13  C   UNL     1       4.804  -3.236  -6.271  0.00  0.00    -0.050 A 
ATOM     14  C   UNL     1       5.919  -2.689  -5.666  0.00  0.00    +0.005 A 
ATOM     15  C   UNL     1       6.018  -2.669  -4.287  0.00  0.00    +0.027 A 
ATOM     16  C   UNL     1       4.695  -3.255  -7.774  0.00  0.00    +0.044 C 
ENDBRANCH   7  10
ENDBRANCH   6   7
ENDBRANCH   4   6
ENDBRANCH   1   2
BRANCH   1  17
ATOM     17  N   UNL     1      -0.198  -2.459   0.164  0.00  0.00    -0.286 N 
ATOM     18  C   UNL     1      -0.074  -1.735   1.431  0.00  0.00    +0.133 C 
ATOM     19  C   UNL     1      -1.021  -3.523   0.073  0.00  0.00    +0.247 C 
ATOM     20  O   UNL     1      -1.067  -4.170  -0.955  0.00  0.00    -0.270 OA
BRANCH  19  21
ATOM     21  C   UNL     1      -1.868  -3.902   1.223  0.00  0.00    +0.039 A 
ATOM     22  C   UNL     1      -3.182  -4.325   1.017  0.00  0.00    +0.013 A 
ATOM     23  C   UNL     1      -3.967  -4.678   2.095  0.00  0.00    +0.003 A 
ATOM     24  C   UNL     1      -3.455  -4.614   3.378  0.00  0.00    +0.033 A 
ATOM     25  C   UNL     1      -2.154  -4.195   3.590  0.00  0.00    +0.127 A 
ATOM     26  C   UNL     1      -1.356  -3.845   2.520  0.00  0.00    +0.045 A 
BRANCH  25  27
ATOM     27  N   UNL     1      -1.614  -4.128   4.967  0.00  0.00    +0.056 N 
ATOM     28  O   UNL     1      -2.310  -4.440   5.905  0.00  0.00    -0.126 OA
ATOM     29  O   UNL     1      -0.476  -3.763   5.153  0.00  0.00    -0.126 OA
ENDBRANCH  25  27
ENDBRANCH  19  21
ENDBRANCH   1  17
BRANCH   1  32
ATOM     30  C   UNL     1      -1.262   1.341  -1.155  0.00  0.00    +0.035 C 
ATOM     31  C   UNL     1      -0.882  -0.076  -0.812  0.00  0.00    -0.032 C 
ATOM     32  C   UNL     1       0.134  -0.645  -1.414  0.00  0.00    +0.000 C 
ENDBRANCH   1  32
TORSDOF 8
