REMARK  Name = ZINC41006778
REMARK  10 active torsions:
REMARK  status: ('A' for Active; 'I' for Inactive)
REMARK    1  A    between atoms: C_1  and  C_2
REMARK    2  A    between atoms: C_2  and  O_39
REMARK    3  A    between atoms: C_6  and  C_30
REMARK    4  A    between atoms: C_8  and  C_21
REMARK    5  A    between atoms: C_10  and  C_12
REMARK    6  A    between atoms: N_14  and  C_15
REMARK    7  A    between atoms: C_24  and  N_27
REMARK    8  A    between atoms: N_27  and  C_28
REMARK    9  A    between atoms: N_27  and  C_29
REMARK   10  A    between atoms: N_32  and  C_33
REMARK                            x       y       z     vdW  Elec       q    Type
REMARK                         _______ _______ _______ _____ _____    ______ ____
ROOT
ATOM      1  C   UNL     1       0.277   1.986   0.022  0.00  0.00    +0.042 C 
ATOM      2  C   UNL     1       0.013   0.489   0.197  0.00  0.00    +0.082 C 
ATOM      3  C   UNL     1       0.533  -0.268  -1.030  0.00  0.00    +0.110 C 
ATOM      4  C   UNL     1       2.039  -0.127  -1.079  0.00  0.00    +0.148 C 
ATOM      5  O   UNL     1       2.594   0.244  -2.085  0.00  0.00    -0.296 OA
ATOM      6  C   UNL     1       2.831  -0.462   0.166  0.00  0.00    +0.149 C 
ATOM      7  C   UNL     1       2.228   0.302   1.348  0.00  0.00    +0.053 C 
ATOM      8  C   UNL     1       0.734  -0.014   1.448  0.00  0.00    +0.115 C 
ENDROOT
BRANCH   7   9
ATOM      9  C   UNL     1       2.916  -0.117   2.622  0.00  0.00    -0.042 A 
ATOM     10  C   UNL     1       3.609  -1.312   2.670  0.00  0.00    +0.006 A 
ATOM     11  C   UNL     1       4.242  -1.699   3.835  0.00  0.00    +0.023 A 
ATOM     12  C   UNL     1       4.181  -0.885   4.959  0.00  0.00    +0.029 A 
ATOM     13  C   UNL     1       3.484   0.315   4.907  0.00  0.00    +0.023 A 
ATOM     14  C   UNL     1       2.859   0.698   3.737  0.00  0.00    +0.006 A 
BRANCH  12  15
ATOM     15  N   UNL     1       4.819  -1.274   6.140  0.00  0.00    -0.336 N 
ATOM     16  C   UNL     1       5.554  -2.541   6.193  0.00  0.00    +0.129 C 
ATOM     17  C   UNL     1       4.754  -0.415   7.324  0.00  0.00    +0.129 C 
ENDBRANCH  12  15
ENDBRANCH   7   9
BRANCH   8  18
ATOM     18  C   UNL     1       0.544  -1.504   1.571  0.00  0.00    +0.224 C 
ATOM     19  O   UNL     1       1.509  -2.238   1.592  0.00  0.00    -0.275 OA
ATOM     20  N   UNL     1      -0.697  -2.020   1.658  0.00  0.00    -0.285 N 
ATOM     21  H   UNL     1      -1.471  -1.440   1.577  0.00  0.00    +0.155 HD
BRANCH  20  22
ATOM     22  C   UNL     1      -0.872  -3.393   1.865  0.00  0.00    +0.033 A 
ATOM     23  C   UNL     1      -1.931  -3.851   2.636  0.00  0.00    +0.023 A 
ATOM     24  C   UNL     1      -2.100  -5.207   2.839  0.00  0.00    +0.002 A 
ATOM     25  C   UNL     1      -1.216  -6.107   2.274  0.00  0.00    +0.000 A 
ATOM     26  C   UNL     1      -0.159  -5.654   1.505  0.00  0.00    +0.002 A 
ATOM     27  C   UNL     1       0.012  -4.300   1.294  0.00  0.00    +0.023 A 
ENDBRANCH  20  22
ENDBRANCH   8  18
BRANCH   6  28
ATOM     28  C   UNL     1       4.269  -0.053  -0.025  0.00  0.00    +0.228 C 
ATOM     29  O   UNL     1       4.773   0.759   0.722  0.00  0.00    -0.275 OA
ATOM     30  N   UNL     1       4.996  -0.590  -1.026  0.00  0.00    -0.285 N 
ATOM     31  H   UNL     1       4.574  -1.182  -1.667  0.00  0.00    +0.155 HD
BRANCH  30  32
ATOM     32  C   UNL     1       6.358  -0.293  -1.138  0.00  0.00    +0.033 A 
ATOM     33  C   UNL     1       6.945  -0.183  -2.392  0.00  0.00    +0.023 A 
ATOM     34  C   UNL     1       8.290   0.111  -2.500  0.00  0.00    +0.002 A 
ATOM     35  C   UNL     1       9.053   0.295  -1.361  0.00  0.00    +0.000 A 
ATOM     36  C   UNL     1       8.472   0.185  -0.111  0.00  0.00    +0.002 A 
ATOM     37  C   UNL     1       7.126  -0.102   0.003  0.00  0.00    +0.023 A 
ENDBRANCH  30  32
ENDBRANCH   6  28
BRANCH   2  38
ATOM     38  O   UNL     1      -1.392   0.266   0.334  0.00  0.00    -0.388 OA
ATOM     39  H   UNL     1      -1.913   0.561  -0.425  0.00  0.00    +0.210 HD
ENDBRANCH   2  38
TORSDOF 7
