REMARK  Name = ZINC05450941
REMARK  4 active torsions:
REMARK  status: ('A' for Active; 'I' for Inactive)
REMARK    1  A    between atoms: C_1  and  C_2
REMARK    2  A    between atoms: C_7  and  C_8
REMARK    3  A    between atoms: N_10  and  C_11
REMARK    4  A    between atoms: C_11  and  C_24
REMARK                            x       y       z     vdW  Elec       q    Type
REMARK                         _______ _______ _______ _____ _____    ______ ____
ROOT
ATOM      1  C   UNL     1       0.468   0.076   4.894  0.00  0.00    +0.279 C 
ATOM      2  C   UNL     1      -0.858   0.767   5.121  0.00  0.00    +0.286 C 
ATOM      3  O   UNL     1      -1.350   1.635   4.432  0.00  0.00    -0.268 OA
ATOM      4  N   UNL     1      -1.388   0.229   6.240  0.00  0.00    -0.247 N 
ATOM      5  C   UNL     1      -2.510   0.314   7.063  0.00  0.00    +0.078 A 
ATOM      6  C   UNL     1      -3.659   1.087   7.037  0.00  0.00    +0.028 A 
ATOM      7  C   UNL     1      -4.612   0.932   8.024  0.00  0.00    +0.002 A 
ATOM      8  C   UNL     1      -4.426   0.006   9.039  0.00  0.00    +0.002 A 
ATOM      9  C   UNL     1      -3.289  -0.770   9.078  0.00  0.00    +0.030 A 
ATOM     10  C   UNL     1      -2.316  -0.624   8.087  0.00  0.00    +0.091 A 
ATOM     11  N   UNL     1      -1.120  -1.227   7.857  0.00  0.00    -0.214 NA
ATOM     12  C   UNL     1      -0.568  -0.730   6.770  0.00  0.00    +0.206 A 
ATOM     13  N   UNL     1       0.576  -0.877   6.007  0.00  0.00    -0.279 N 
ATOM     14  H   UNL     1       1.308  -1.491   6.175  0.00  0.00    +0.152 HD
ENDROOT
BRANCH   1  17
ATOM     15  C   UNL     1       0.147   0.025   2.479  0.00  0.00    +0.246 C 
ATOM     16  O   UNL     1      -0.044   1.226   2.506  0.00  0.00    -0.270 OA
ATOM     17  N   UNL     1       0.463  -0.633   3.611  0.00  0.00    -0.276 N 
ATOM     18  H   UNL     1       0.687  -1.576   3.578  0.00  0.00    +0.152 HD
BRANCH  15  25
ATOM     19  C   UNL     1      -0.360   1.477   0.028  0.00  0.00    +0.044 C 
ATOM     20  C   UNL     1      -0.212  -0.022   0.014  0.00  0.00    -0.038 A 
ATOM     21  C   UNL     1      -0.313  -0.716  -1.174  0.00  0.00    +0.004 A 
ATOM     22  C   UNL     1      -0.178  -2.093  -1.189  0.00  0.00    +0.000 A 
ATOM     23  C   UNL     1       0.059  -2.783  -0.013  0.00  0.00    +0.001 A 
ATOM     24  C   UNL     1       0.162  -2.102   1.182  0.00  0.00    +0.013 A 
ATOM     25  C   UNL     1       0.032  -0.712   1.203  0.00  0.00    +0.040 A 
ENDBRANCH  15  25
ENDBRANCH   1  17
BRANCH   1  26
ATOM     26  C   UNL     1       1.615   1.087   4.940  0.00  0.00    +0.437 C 
ATOM     27  F   UNL     1       1.393   2.090   3.991  0.00  0.00    -0.166 F 
ATOM     28  F   UNL     1       1.682   1.658   6.216  0.00  0.00    -0.166 F 
ATOM     29  F   UNL     1       2.821   0.436   4.657  0.00  0.00    -0.166 F 
ENDBRANCH   1  26
TORSDOF 3
