REMARK  Name = ZINC20701292
REMARK  4 active torsions:
REMARK  status: ('A' for Active; 'I' for Inactive)
REMARK    1  A    between atoms: C_2  and  N_27
REMARK    2  A    between atoms: C_4  and  O_26
REMARK    3  A    between atoms: C_14  and  C_17
REMARK    4  A    between atoms: C_22  and  O_23
REMARK                            x       y       z     vdW  Elec       q    Type
REMARK                         _______ _______ _______ _____ _____    ______ ____
ROOT
ATOM      1  C   UNL     1       0.821  -3.555   1.927  0.00  0.00    +0.039 A 
ATOM      2  C   UNL     1       1.692  -4.469   1.369  0.00  0.00    +0.130 A 
ATOM      3  C   UNL     1       1.750  -4.622  -0.004  0.00  0.00    +0.080 A 
ATOM      4  C   UNL     1       0.934  -3.854  -0.814  0.00  0.00    +0.140 A 
ATOM      5  C   UNL     1       0.052  -2.927  -0.251  0.00  0.00    +0.074 A 
ATOM      6  C   UNL     1      -0.004  -2.778   1.123  0.00  0.00    -0.014 A 
ATOM      7  C   UNL     1      -0.926  -1.804   1.794  0.00  0.00    +0.049 C 
ATOM      8  C   UNL     1      -0.150  -0.635   2.358  0.00  0.00    -0.023 C 
ATOM      9  C   UNL     1      -0.811   0.481   2.181  0.00  0.00    -0.030 C 
ATOM     10  C   UNL     1      -2.128   0.214   1.480  0.00  0.00    +0.033 C 
ATOM     11  C   UNL     1      -1.900  -1.157   0.786  0.00  0.00    +0.029 C 
ATOM     12  C   UNL     1      -1.155  -0.901  -0.527  0.00  0.00    +0.109 C 
ATOM     13  N   UNL     1      -0.751  -2.178  -1.115  0.00  0.00    -0.334 N 
ATOM     14  H   UNL     1      -1.084  -2.447  -2.128  0.00  0.00    +0.147 HD
ENDROOT
BRANCH  12  15
ATOM     15  C   UNL     1       0.068  -0.063  -0.255  0.00  0.00    +0.017 A 
ATOM     16  C   UNL     1       1.254  -0.671   0.111  0.00  0.00    +0.029 A 
ATOM     17  C   UNL     1       2.378   0.097   0.360  0.00  0.00    +0.043 A 
ATOM     18  C   UNL     1       2.317   1.474   0.243  0.00  0.00    +0.043 A 
ATOM     19  C   UNL     1       1.133   2.086  -0.122  0.00  0.00    +0.084 A 
ATOM     20  C   UNL     1       0.004   1.317  -0.372  0.00  0.00    +0.140 A 
ATOM     21 CL   UNL     1       1.056   3.814  -0.268  0.00  0.00    -0.080 Cl
ATOM     22 CL   UNL     1       3.867  -0.669   0.819  0.00  0.00    -0.083 Cl
BRANCH  20  23
ATOM     23  O   UNL     1      -1.161   1.915  -0.737  0.00  0.00    -0.505 OA
ATOM     24  H   UNL     1      -1.211   3.010  -0.830  0.00  0.00    +0.292 HD
ENDBRANCH  20  23
ENDBRANCH  12  15
BRANCH   2  25
ATOM     25  N   UNL     1       2.564  -5.287   2.242  0.00  0.00    +0.057 N 
ATOM     26  O   UNL     1       3.333  -6.094   1.751  0.00  0.00    -0.126 OA
ATOM     27  O   UNL     1       2.513  -5.153   3.451  0.00  0.00    -0.126 OA
ENDBRANCH   2  25
BRANCH   4  28
ATOM     28  O   UNL     1       0.991  -4.001  -2.165  0.00  0.00    -0.505 OA
ATOM     29  H   UNL     1       0.343  -3.391  -2.812  0.00  0.00    +0.292 HD
ENDBRANCH   4  28
TORSDOF 4
