REMARK  Name = ZINC01889672
REMARK  13 active torsions:
REMARK  status: ('A' for Active; 'I' for Inactive)
REMARK    1  A    between atoms: C_1  and  C_2
REMARK    2  A    between atoms: C_3  and  C_12
REMARK    3  A    between atoms: N_13  and  N_14
REMARK    4  A    between atoms: C_15  and  C_17
REMARK    5  A    between atoms: C_17  and  C_19
REMARK    6  A    between atoms: C_17  and  N_22
REMARK    7  A    between atoms: C_19  and  C_20
REMARK    8  A    between atoms: C_19  and  C_21
REMARK    9  A    between atoms: C_23  and  O_25
REMARK   10  A    between atoms: O_25  and  C_26
REMARK   11  A    between atoms: C_26  and  C_27
REMARK   12  A    between atoms: C_26  and  C_28
REMARK   13  A    between atoms: C_26  and  C_29
REMARK                            x       y       z     vdW  Elec       q    Type
REMARK                         _______ _______ _______ _____ _____    ______ ____
ROOT
ATOM      1  N   UNL     1      -4.808  -0.045   0.025  0.00  0.00    -0.205 N 
ATOM      2  C   UNL     1      -5.951  -0.758   0.027  0.00  0.00    +0.253 C 
ATOM      3  O   UNL     1      -5.910  -1.971   0.020  0.00  0.00    -0.272 OA
ATOM      4  H   UNL     1      -4.840   0.924   0.031  0.00  0.00    +0.177 HD
ENDROOT
BRANCH   1   6
ATOM      5  C   UNL     1      -2.469  -0.017   0.014  0.00  0.00    +0.145 C 
ATOM      6  N   UNL     1      -3.571  -0.704   0.016  0.00  0.00    -0.187 NA
BRANCH   5   9
ATOM      7  C   UNL     1      -0.018   1.503   0.010  0.00  0.00    +0.064 C 
ATOM      8  C   UNL     1       0.002  -0.004   0.002  0.00  0.00    +0.031 A 
ATOM      9  C   UNL     1      -1.170  -0.710   0.004  0.00  0.00    +0.078 A 
ATOM     10  C   UNL     1      -1.097  -2.179  -0.004  0.00  0.00    +0.263 A 
ATOM     11  O   UNL     1      -2.112  -2.851  -0.004  0.00  0.00    -0.267 OA
ATOM     12  N   UNL     1       0.118  -2.767  -0.013  0.00  0.00    -0.275 N 
ATOM     13  H   UNL     1       0.186  -3.734  -0.019  0.00  0.00    +0.173 HD
ATOM     14  C   UNL     1       1.234  -2.018  -0.015  0.00  0.00    +0.327 A 
ATOM     15  O   UNL     1       2.316  -2.572  -0.023  0.00  0.00    -0.247 OA
ATOM     16  N   UNL     1       1.189  -0.676  -0.013  0.00  0.00    -0.311 N 
ATOM     17  H   UNL     1       2.019  -0.173  -0.018  0.00  0.00    +0.170 HD
ENDBRANCH   5   9
ENDBRANCH   1   6
BRANCH   2  18
ATOM     18  C   UNL     1      -7.281  -0.049   0.038  0.00  0.00    +0.166 C 
BRANCH  18  19
ATOM     19  N   UNL     1      -8.362  -1.038   0.037  0.00  0.00    -0.270 N 
ATOM     20  C   UNL     1      -9.575  -0.710  -0.448  0.00  0.00    +0.401 C 
ATOM     21  O   UNL     1      -9.773   0.406  -0.885  0.00  0.00    -0.226 OA
ATOM     22  H   UNL     1      -8.204  -1.929   0.387  0.00  0.00    +0.153 HD
BRANCH  20  23
ATOM     23  O   UNL     1     -10.569  -1.619  -0.448  0.00  0.00    -0.445 OA
BRANCH  23  24
ATOM     24  C   UNL     1     -11.829  -1.203  -0.978  0.00  0.00    +0.107 C 
ATOM     25  C   UNL     1     -11.655  -0.784  -2.439  0.00  0.00    +0.055 C 
ATOM     26  C   UNL     1     -12.825  -2.362  -0.895  0.00  0.00    +0.055 C 
ATOM     27  C   UNL     1     -12.357  -0.018  -0.167  0.00  0.00    +0.055 C 
ENDBRANCH  23  24
ENDBRANCH  20  23
ENDBRANCH  18  19
BRANCH  18  28
ATOM     28  C   UNL     1      -7.386   0.820   1.292  0.00  0.00    +0.012 C 
ATOM     29  C   UNL     1      -8.736   1.540   1.303  0.00  0.00    +0.009 C 
ATOM     30  C   UNL     1      -7.269  -0.064   2.536  0.00  0.00    +0.009 C 
ENDBRANCH  18  28
ENDBRANCH   2  18
TORSDOF 7
