REMARK  Name = ZINC26545561
REMARK  6 active torsions:
REMARK  status: ('A' for Active; 'I' for Inactive)
REMARK    1  A    between atoms: C_1  and  C_2
REMARK    2  A    between atoms: C_2  and  C_4
REMARK    3  A    between atoms: C_2  and  N_23
REMARK    4  A    between atoms: N_9  and  S_12
REMARK    5  A    between atoms: S_12  and  C_15
REMARK    6  A    between atoms: C_24  and  C_26
REMARK                            x       y       z     vdW  Elec       q    Type
REMARK                         _______ _______ _______ _____ _____    ______ ____
ROOT
ATOM      1  C   UNL     1       4.859   4.850  -0.728  0.00  0.00    +0.236 C 
ATOM      2  O   UNL     1       5.270   3.822  -1.223  0.00  0.00    -0.274 OA
ATOM      3  N   UNL     1       5.584   5.982  -0.824  0.00  0.00    -0.297 N 
ATOM      4  C   UNL     1       5.150   7.209  -0.142  0.00  0.00    +0.125 C 
ATOM      5  C   UNL     1       6.299   7.696   0.758  0.00  0.00    +0.128 C 
ATOM      6  N   UNL     1       7.535   7.727  -0.036  0.00  0.00    -0.174 NA
ATOM      7  C   UNL     1       7.966   6.501  -0.723  0.00  0.00    +0.128 C 
ATOM      8  C   UNL     1       6.821   6.012  -1.618  0.00  0.00    +0.125 C 
ENDROOT
BRANCH   6   9
ATOM      9  S   UNL     1       8.426   9.117  -0.155  0.00  0.00    +0.062 S 
ATOM     10  O   UNL     1       8.114   9.899   0.989  0.00  0.00    -0.153 OA
ATOM     11  O   UNL     1       9.755   8.723  -0.469  0.00  0.00    -0.153 OA
BRANCH   9  12
ATOM     12  C   UNL     1       7.821  10.005  -1.552  0.00  0.00    +0.125 A 
ATOM     13  C   UNL     1       7.208  11.232  -1.379  0.00  0.00    +0.030 A 
ATOM     14  C   UNL     1       6.733  11.929  -2.474  0.00  0.00    +0.003 A 
ATOM     15  C   UNL     1       6.871  11.401  -3.743  0.00  0.00    +0.021 A 
ATOM     16  C   UNL     1       7.484  10.174  -3.919  0.00  0.00    +0.061 A 
ATOM     17  C   UNL     1       7.966   9.478  -2.822  0.00  0.00    +0.086 A 
ATOM     18 CL   UNL     1       8.743   7.941  -3.041  0.00  0.00    -0.080 Cl
ATOM     19 CL   UNL     1       7.658   9.509  -5.513  0.00  0.00    -0.082 Cl
ENDBRANCH   9  12
ENDBRANCH   6   9
BRANCH   1  21
ATOM     20  C   UNL     1       3.769   4.631   1.488  0.00  0.00    +0.038 C 
ATOM     21  C   UNL     1       3.536   4.862  -0.006  0.00  0.00    +0.156 C 
BRANCH  21  22
ATOM     22  N   UNL     1       2.680   3.799  -0.537  0.00  0.00    -0.298 N 
ATOM     23  C   UNL     1       1.339   3.903  -0.444  0.00  0.00    +0.280 C 
ATOM     24  O   UNL     1       0.840   4.881   0.081  0.00  0.00    -0.267 OA
ATOM     25  H   UNL     1       3.131   2.915  -1.012  0.00  0.00    +0.150 HD
BRANCH  23  26
ATOM     26  C   UNL     1       0.482   2.839  -0.976  0.00  0.00    +0.189 A 
ATOM     27  C   UNL     1      -0.883   2.818  -0.948  0.00  0.00    +0.054 A 
ATOM     28  C   UNL     1      -1.282   1.621  -1.562  0.00  0.00    +0.042 A 
ATOM     29  C   UNL     1      -0.157   0.971  -1.934  0.00  0.00    +0.196 A 
ATOM     30  O   UNL     1       0.904   1.708  -1.579  0.00  0.00    -0.458 OA
ENDBRANCH  23  26
ENDBRANCH  21  22
ENDBRANCH   1  21
TORSDOF 5
