REMARK  Name = ZINC65293833
REMARK  8 active torsions:
REMARK  status: ('A' for Active; 'I' for Inactive)
REMARK    1  A    between atoms: C_1  and  C_2
REMARK    2  A    between atoms: C_3  and  C_22
REMARK    3  A    between atoms: C_5  and  C_7
REMARK    4  A    between atoms: C_7  and  N_8
REMARK    5  A    between atoms: N_8  and  S_9
REMARK    6  A    between atoms: S_9  and  C_12
REMARK    7  A    between atoms: C_15  and  C_18
REMARK    8  A    between atoms: C_27  and  C_30
REMARK                            x       y       z     vdW  Elec       q    Type
REMARK                         _______ _______ _______ _____ _____    ______ ____
ROOT
ATOM      1  C   UNL     1       1.601  -3.213  -0.520  0.00  0.00    +0.201 C 
ENDROOT
BRANCH   1   6
ATOM      2  C   UNL     1      -0.022   1.445   0.499  0.00  0.00    +0.089 C 
ATOM      3  C   UNL     1       0.001  -0.024   0.165  0.00  0.00    +0.135 A 
ATOM      4  C   UNL     1      -1.080  -0.824  -0.045  0.00  0.00    +0.167 A 
ATOM      5  N   UNL     1      -0.608  -2.071  -0.317  0.00  0.00    -0.207 NA
ATOM      6  C   UNL     1       0.690  -2.038  -0.276  0.00  0.00    +0.212 A 
ATOM      7  O   UNL     1       1.091  -0.792   0.013  0.00  0.00    -0.443 OA
BRANCH   4   8
ATOM      8  C   UNL     1      -2.496  -0.416   0.013  0.00  0.00    +0.268 C 
ATOM      9  O   UNL     1      -2.786   0.756   0.152  0.00  0.00    -0.268 OA
ATOM     10  N   UNL     1      -3.469  -1.343  -0.090  0.00  0.00    -0.296 N 
ATOM     11  C   UNL     1      -4.878  -0.941  -0.198  0.00  0.00    +0.108 C 
ATOM     12  C   UNL     1      -5.680  -1.661   0.890  0.00  0.00    +0.022 C 
ATOM     13  C   UNL     1      -5.447  -3.170   0.777  0.00  0.00    -0.011 C 
ATOM     14  C   UNL     1      -3.962  -3.475   0.990  0.00  0.00    +0.022 C 
ATOM     15  C   UNL     1      -3.140  -2.775  -0.103  0.00  0.00    +0.108 C 
ATOM     16  C   UNL     1      -6.274  -3.895   1.840  0.00  0.00    +0.007 C 
ENDBRANCH   4   8
ENDBRANCH   1   6
BRANCH   1  17
ATOM     17  N   UNL     1       1.930  -3.288  -1.946  0.00  0.00    -0.181 NA
ATOM     18  H   UNL     1       1.411  -2.783  -2.591  0.00  0.00    +0.149 HD
BRANCH  17  19
ATOM     19  S   UNL     1       3.190  -4.234  -2.456  0.00  0.00    +0.059 S 
ATOM     20  O   UNL     1       3.238  -4.118  -3.871  0.00  0.00    -0.153 OA
ATOM     21  O   UNL     1       4.300  -3.915  -1.627  0.00  0.00    -0.153 OA
BRANCH  19  22
ATOM     22  C   UNL     1       2.762  -5.906  -2.102  0.00  0.00    +0.105 A 
ATOM     23  C   UNL     1       3.100  -6.463  -0.882  0.00  0.00    +0.029 A 
ATOM     24  C   UNL     1       2.764  -7.775  -0.605  0.00  0.00    +0.014 A 
ATOM     25  C   UNL     1       2.091  -8.530  -1.547  0.00  0.00    +0.055 A 
ATOM     26  C   UNL     1       1.752  -7.973  -2.766  0.00  0.00    +0.014 A 
ATOM     27  C   UNL     1       2.084  -6.660  -3.042  0.00  0.00    +0.029 A 
BRANCH  25  28
ATOM     28  C   UNL     1       1.726  -9.960  -1.244  0.00  0.00    +0.417 C 
ATOM     29  F   UNL     1       0.461 -10.003  -0.648  0.00  0.00    -0.166 F 
ATOM     30  F   UNL     1       1.706 -10.698  -2.433  0.00  0.00    -0.166 F 
ATOM     31  F   UNL     1       2.671 -10.509  -0.371  0.00  0.00    -0.166 F 
ENDBRANCH  25  28
ENDBRANCH  19  22
ENDBRANCH  17  19
ENDBRANCH   1  17
TORSDOF 6
