REMARK  Name = ZINC41666361
REMARK  9 active torsions:
REMARK  status: ('A' for Active; 'I' for Inactive)
REMARK    1  A    between atoms: C_1  and  C_2
REMARK    2  A    between atoms: C_2  and  C_3
REMARK    3  A    between atoms: C_2  and  C_4
REMARK    4  A    between atoms: C_7  and  C_10
REMARK    5  A    between atoms: C_10  and  N_11
REMARK    6  A    between atoms: N_11  and  C_12
REMARK    7  A    between atoms: N_11  and  S_13
REMARK    8  A    between atoms: S_13  and  C_16
REMARK    9  A    between atoms: C_18  and  N_21
REMARK                            x       y       z     vdW  Elec       q    Type
REMARK                         _______ _______ _______ _____ _____    ______ ____
ROOT
ATOM      1  N   UNL     1      -6.298  -1.051  -0.638  0.00  0.00    -0.175 NA
ATOM      2  C   UNL     1      -6.441  -1.099  -2.096  0.00  0.00    +0.132 C 
ENDROOT
BRANCH   1   3
ATOM      3  S   UNL     1      -7.129   0.082   0.238  0.00  0.00    +0.067 S 
ATOM      4  O   UNL     1      -8.256   0.453  -0.544  0.00  0.00    -0.152 OA
ATOM      5  O   UNL     1      -7.253  -0.436   1.556  0.00  0.00    -0.152 OA
BRANCH   3   6
ATOM      6  C   UNL     1      -6.102   1.509   0.352  0.00  0.00    +0.144 A 
ATOM      7  C   UNL     1      -6.034   2.579  -0.478  0.00  0.00    +0.059 A 
ATOM      8  C   UNL     1      -5.141   3.597  -0.187  0.00  0.00    +0.034 A 
ATOM      9  C   UNL     1      -4.362   3.491   0.922  0.00  0.00    +0.069 A 
ATOM     10  S   UNL     1      -4.890   1.924   1.595  0.00  0.00    -0.075 S 
BRANCH   8  11
ATOM     11  N   UNL     1      -5.041   4.723  -1.026  0.00  0.00    -0.358 N 
ATOM     12  H   UNL     1      -5.600   4.791  -1.816  0.00  0.00    +0.142 HD
ATOM     13  H   UNL     1      -4.413   5.432  -0.815  0.00  0.00    +0.142 HD
ENDBRANCH   8  11
ENDBRANCH   3   6
ENDBRANCH   1   3
BRANCH   1  14
ATOM     14  C   UNL     1      -5.419  -2.005   0.043  0.00  0.00    +0.144 C 
BRANCH  14  18
ATOM     15  C   UNL     1      -1.412  -0.526   0.013  0.00  0.00    -0.045 A 
ATOM     16  C   UNL     1      -2.259  -0.204   1.056  0.00  0.00    +0.004 A 
ATOM     17  C   UNL     1      -3.556  -0.683   1.066  0.00  0.00    +0.005 A 
ATOM     18  C   UNL     1      -4.006  -1.482   0.032  0.00  0.00    -0.032 A 
ATOM     19  C   UNL     1      -3.159  -1.803  -1.012  0.00  0.00    +0.005 A 
ATOM     20  C   UNL     1      -1.863  -1.321  -1.024  0.00  0.00    +0.004 A 
BRANCH  15  22
ATOM     21  C   UNL     1      -0.019   1.526   0.010  0.00  0.00    +0.012 C 
ATOM     22  C   UNL     1       0.002  -0.004   0.002  0.00  0.00    +0.013 C 
ATOM     23  C   UNL     1       0.742  -0.511   1.242  0.00  0.00    +0.012 C 
ENDBRANCH  15  22
ENDBRANCH  14  18
ENDBRANCH   1  14
TORSDOF 6
