REMARK  Name = ZINC03589605
REMARK  5 active torsions:
REMARK  status: ('A' for Active; 'I' for Inactive)
REMARK    1  A    between atoms: C_1  and  C_2
REMARK    2  A    between atoms: C_5  and  C_24
REMARK    3  A    between atoms: C_6  and  N_8
REMARK    4  A    between atoms: C_9  and  C_11
REMARK    5  A    between atoms: C_11  and  C_12
REMARK                            x       y       z     vdW  Elec       q    Type
REMARK                         _______ _______ _______ _____ _____    ______ ____
ROOT
ATOM      1  C   UNL     1      -0.019   5.650  -0.184  0.00  0.00    +0.120 C 
ENDROOT
BRANCH   1   2
ATOM      2  C   UNL     1      -1.464   6.145  -0.270  0.00  0.00    +0.146 C 
ATOM      3  C   UNL     1      -1.478   7.634  -0.498  0.00  0.00    +0.231 C 
ATOM      4  O   UNL     1      -1.629   8.043  -1.631  0.00  0.00    -0.274 OA
ATOM      5  N   UNL     1      -1.330   8.522   0.479  0.00  0.00    -0.284 N 
ATOM      6  C   UNL     1      -1.256   8.253   1.843  0.00  0.00    +0.047 A 
ATOM      7  C   UNL     1      -0.782   9.235   2.707  0.00  0.00    +0.024 A 
ATOM      8  C   UNL     1      -0.695   8.988   4.062  0.00  0.00    +0.002 A 
ATOM      9  C   UNL     1      -1.085   7.766   4.579  0.00  0.00    +0.001 A 
ATOM     10  C   UNL     1      -1.576   6.787   3.734  0.00  0.00    +0.016 A 
ATOM     11  C   UNL     1      -1.669   7.031   2.374  0.00  0.00    +0.030 A 
ATOM     12  S   UNL     1      -2.325   5.797   1.295  0.00  0.00    -0.110 S 
ATOM     13  H   UNL     1      -1.268   9.453   0.216  0.00  0.00    +0.155 HD
ENDBRANCH   1   2
BRANCH   1  15
ATOM     14  N   UNL     1       1.162   3.485   0.009  0.00  0.00    -0.285 N 
ATOM     15  C   UNL     1      -0.009   4.146  -0.078  0.00  0.00    +0.219 C 
ATOM     16  O   UNL     1      -1.055   3.532  -0.072  0.00  0.00    -0.275 OA
ATOM     17  H   UNL     1       1.993   3.979   0.085  0.00  0.00    +0.155 HD
BRANCH  14  23
ATOM     18  C   UNL     1      -0.965  -0.756  -1.281  0.00  0.00    +0.044 C 
ATOM     19  C   UNL     1       0.160   0.005  -0.628  0.00  0.00    -0.049 A 
ATOM     20  C   UNL     1       1.212  -0.680  -0.046  0.00  0.00    +0.004 A 
ATOM     21  C   UNL     1       2.246   0.014   0.553  0.00  0.00    +0.005 A 
ATOM     22  C   UNL     1       2.232   1.395   0.574  0.00  0.00    -0.029 A 
ATOM     23  C   UNL     1       1.178   2.086  -0.009  0.00  0.00    +0.037 A 
ATOM     24  C   UNL     1       0.141   1.386  -0.611  0.00  0.00    +0.027 A 
ATOM     25  C   UNL     1       3.361   2.151   1.226  0.00  0.00    +0.045 C 
ENDBRANCH  14  23
ENDBRANCH   1  15
TORSDOF 3
