REMARK  Name = ZINC44124174
REMARK  3 active torsions:
REMARK  status: ('A' for Active; 'I' for Inactive)
REMARK    1  A    between atoms: C_4  and  C_7
REMARK    2  A    between atoms: C_9  and  C_12
REMARK    3  A    between atoms: N_14  and  C_15
REMARK                            x       y       z     vdW  Elec       q    Type
REMARK                         _______ _______ _______ _____ _____    ______ ____
ROOT
ATOM      1  C   UNL     1       7.277  -0.501  -0.062  0.00  0.00    +0.263 C 
ATOM      2  O   UNL     1       8.207  -1.284  -0.077  0.00  0.00    -0.268 OA
ATOM      3  N   UNL     1       7.512   0.826  -0.051  0.00  0.00    -0.305 N 
ATOM      4  H   UNL     1       6.770   1.450  -0.039  0.00  0.00    +0.150 HD
ENDROOT
BRANCH   3   5
ATOM      5  C   UNL     1       8.890   1.325  -0.057  0.00  0.00    +0.036 C 
ATOM      6  C   UNL     1       9.605   0.833  -1.316  0.00  0.00    +0.029 C 
ATOM      7  C   UNL     1      11.044   1.354  -1.322  0.00  0.00    -0.008 C 
ATOM      8  C   UNL     1      11.032   2.884  -1.307  0.00  0.00    +0.007 C 
ATOM      9  C   UNL     1      10.316   3.376  -0.047  0.00  0.00    -0.008 C 
ATOM     10  C   UNL     1       8.878   2.855  -0.042  0.00  0.00    +0.029 C 
ATOM     11  C   UNL     1      11.051   2.860   1.191  0.00  0.00    +0.007 C 
ATOM     12  C   UNL     1      11.063   1.330   1.176  0.00  0.00    -0.008 C 
ATOM     13  C   UNL     1      11.778   0.838  -0.083  0.00  0.00    +0.007 C 
ATOM     14  C   UNL     1       9.624   0.809   1.182  0.00  0.00    +0.029 C 
ENDBRANCH   3   5
BRANCH   1  17
ATOM     15  C   UNL     1       3.644  -0.654  -0.037  0.00  0.00    +0.129 A 
ATOM     16  N   UNL     1       4.869  -0.161  -0.041  0.00  0.00    -0.233 NA
ATOM     17  C   UNL     1       5.891  -1.003  -0.056  0.00  0.00    +0.133 A 
ATOM     18  C   UNL     1       5.635  -2.360  -0.068  0.00  0.00    +0.080 A 
ATOM     19  S   UNL     1       3.953  -2.411  -0.049  0.00  0.00    -0.073 S 
BRANCH  15  23
ATOM     20  C   UNL     1      -0.016   1.318   0.009  0.00  0.00    +0.130 A 
ATOM     21  C   UNL     1       1.171   2.032   0.002  0.00  0.00    +0.131 A 
ATOM     22  N   UNL     1       2.327   1.395  -0.013  0.00  0.00    -0.250 NA
ATOM     23  C   UNL     1       2.352   0.065  -0.020  0.00  0.00    +0.114 A 
ATOM     24  C   UNL     1       1.153  -0.650  -0.013  0.00  0.00    +0.141 A 
ATOM     25  N   UNL     1       0.002  -0.004   0.002  0.00  0.00    -0.260 NA
ENDBRANCH  15  23
ENDBRANCH   1  17
TORSDOF 3
