REMARK  Name = ZINC29811379
REMARK  9 active torsions:
REMARK  status: ('A' for Active; 'I' for Inactive)
REMARK    1  A    between atoms: C_1  and  C_2
REMARK    2  A    between atoms: C_2  and  C_4
REMARK    3  A    between atoms: C_2  and  N_16
REMARK    4  A    between atoms: N_6  and  C_7
REMARK    5  A    between atoms: C_10  and  N_13
REMARK    6  A    between atoms: N_16  and  C_17
REMARK    7  A    between atoms: C_20  and  N_23
REMARK    8  A    between atoms: N_26  and  C_27
REMARK    9  A    between atoms: C_27  and  C_28
REMARK                            x       y       z     vdW  Elec       q    Type
REMARK                         _______ _______ _______ _____ _____    ______ ____
ROOT
ATOM      1  N   UNL     1      -1.160   7.740   0.111  0.00  0.00    -0.333 N 
ATOM      2  H   UNL     1      -2.055   8.379   0.090  0.00  0.00    +0.147 HD
ENDROOT
BRANCH   1   3
ATOM      3  C   UNL     1      -1.286   6.352  -0.012  0.00  0.00    +0.028 A 
ATOM      4  C   UNL     1      -2.543   5.780  -0.162  0.00  0.00    +0.025 A 
ATOM      5  C   UNL     1      -2.668   4.410  -0.283  0.00  0.00    +0.025 A 
ATOM      6  C   UNL     1      -1.537   3.605  -0.257  0.00  0.00    +0.035 A 
ATOM      7  C   UNL     1      -0.281   4.176  -0.102  0.00  0.00    +0.025 A 
ATOM      8  C   UNL     1      -0.155   5.546   0.015  0.00  0.00    +0.025 A 
BRANCH   6   9
ATOM      9  N   UNL     1      -1.664   2.215  -0.381  0.00  0.00    -0.269 N 
ATOM     10  C   UNL     1      -0.702   1.502  -1.000  0.00  0.00    +0.304 C 
ATOM     11  O   UNL     1       0.228   2.074  -1.536  0.00  0.00    -0.253 OA
ATOM     12  N   UNL     1      -0.772   0.157  -1.029  0.00  0.00    -0.296 N 
ATOM     13  H   UNL     1      -2.549   1.704   0.028  0.00  0.00    +0.156 HD
ATOM     14  H   UNL     1      -1.613  -0.360  -0.544  0.00  0.00    +0.151 HD
BRANCH  12  15
ATOM     15  C   UNL     1       0.270  -0.617  -1.708  0.00  0.00    +0.132 C 
BRANCH  15  16
ATOM     16  C   UNL     1      -0.042  -2.087  -1.596  0.00  0.00    -0.016 C 
ATOM     17  C   UNL     1      -0.123  -2.823  -2.676  0.00  0.00    +0.005 C 
ENDBRANCH  15  16
ENDBRANCH  12  15
ENDBRANCH   6   9
ENDBRANCH   1   3
BRANCH   1  19
ATOM     18  C   UNL     1       0.797   8.556  -1.109  0.00  0.00    +0.038 C 
ATOM     19  C   UNL     1       0.166   8.344   0.269  0.00  0.00    +0.154 C 
BRANCH  19  20
ATOM     20  C   UNL     1       0.034   9.671   0.970  0.00  0.00    +0.237 C 
ATOM     21  O   UNL     1      -1.060  10.073   1.306  0.00  0.00    -0.273 OA
ATOM     22  N   UNL     1       1.131  10.411   1.225  0.00  0.00    -0.284 N 
ATOM     23  H   UNL     1       2.112  10.087   0.848  0.00  0.00    +0.155 HD
BRANCH  22  24
ATOM     24  C   UNL     1       1.022  11.590   1.970  0.00  0.00    +0.034 A 
ATOM     25  C   UNL     1       1.859  12.664   1.698  0.00  0.00    +0.025 A 
ATOM     26  C   UNL     1       1.746  13.829   2.432  0.00  0.00    +0.034 A 
ATOM     27  C   UNL     1       0.807  13.923   3.443  0.00  0.00    +0.126 A 
ATOM     28  C   UNL     1      -0.025  12.853   3.719  0.00  0.00    +0.034 A 
ATOM     29  C   UNL     1       0.080  11.688   2.985  0.00  0.00    +0.025 A 
BRANCH  27  30
ATOM     30  N   UNL     1       0.692  15.171   4.230  0.00  0.00    +0.056 N 
ATOM     31  O   UNL     1      -0.136  15.255   5.120  0.00  0.00    -0.126 OA
ATOM     32  O   UNL     1       1.424  16.114   3.988  0.00  0.00    -0.126 OA
ENDBRANCH  27  30
ENDBRANCH  22  24
ENDBRANCH  19  20
ENDBRANCH   1  19
TORSDOF 8
