REMARK  Name = ZINC05817666
REMARK  7 active torsions:
REMARK  status: ('A' for Active; 'I' for Inactive)
REMARK    1  A    between atoms: C_1  and  C_2
REMARK    2  A    between atoms: C_2  and  O_3
REMARK    3  A    between atoms: O_3  and  C_4
REMARK    4  A    between atoms: C_7  and  C_10
REMARK    5  A    between atoms: C_17  and  N_28
REMARK    6  A    between atoms: C_18  and  C_26
REMARK    7  A    between atoms: C_19  and  C_21
REMARK                            x       y       z     vdW  Elec       q    Type
REMARK                         _______ _______ _______ _____ _____    ______ ____
ROOT
ATOM      1  C   UNL     1       1.118  -5.975  -1.823  0.00  0.00    +0.074 A 
ATOM      2  C   UNL     1       2.186  -6.664  -2.294  0.00  0.00    +0.054 A 
ATOM      3  C   UNL     1       1.854  -8.033  -2.299  0.00  0.00    +0.245 A 
ATOM      4  N   UNL     1       0.637  -8.162  -1.851  0.00  0.00    -0.135 NA
ATOM      5  N   UNL     1       0.143  -6.887  -1.535  0.00  0.00    -0.273 N 
ATOM      6  H   UNL     1      -0.737  -6.688  -1.177  0.00  0.00    +0.189 HD
ATOM      7  O   UNL     1       2.730  -8.986  -2.719  0.00  0.00    -0.421 OA
ATOM      8  C   UNL     1       4.017  -8.619  -2.876  0.00  0.00    +0.201 C 
ATOM      9  C   UNL     1       4.452  -7.342  -2.900  0.00  0.00    +0.098 C 
ATOM     10  C   UNL     1       3.528  -6.158  -2.756  0.00  0.00    +0.105 C 
ENDROOT
BRANCH   1  14
ATOM     11  C   UNL     1       0.860  -1.762  -1.320  0.00  0.00    +0.121 A 
ATOM     12  C   UNL     1      -0.176  -2.451  -1.937  0.00  0.00    +0.046 A 
ATOM     13  C   UNL     1      -0.096  -3.817  -2.102  0.00  0.00    +0.013 A 
ATOM     14  C   UNL     1       1.029  -4.508  -1.649  0.00  0.00    +0.000 A 
ATOM     15  C   UNL     1       2.068  -3.813  -1.030  0.00  0.00    +0.013 A 
ATOM     16  C   UNL     1       1.983  -2.446  -0.873  0.00  0.00    +0.046 A 
BRANCH  11  17
ATOM     17  O   UNL     1       0.777  -0.416  -1.159  0.00  0.00    -0.492 OA
BRANCH  17  19
ATOM     18  C   UNL     1      -0.318   1.728  -1.375  0.00  0.00    +0.048 C 
ATOM     19  C   UNL     1      -0.406   0.224  -1.642  0.00  0.00    +0.225 C 
ENDBRANCH  17  19
ENDBRANCH  11  17
ENDBRANCH   1  14
BRANCH  10  20
ATOM     20  C   UNL     1       3.380  -5.463  -4.085  0.00  0.00    +0.003 A 
ATOM     21  C   UNL     1       3.770  -4.139  -4.391  0.00  0.00    +0.045 A 
ATOM     22  C   UNL     1       3.457  -3.929  -5.682  0.00  0.00    +0.195 A 
ATOM     23  O   UNL     1       2.902  -5.050  -6.172  0.00  0.00    -0.471 OA
ATOM     24  C   UNL     1       2.858  -5.985  -5.209  0.00  0.00    +0.199 A 
ENDBRANCH  10  20
BRANCH   8  25
ATOM     25  N   UNL     1       4.952  -9.614  -3.022  0.00  0.00    -0.328 N 
ATOM     26  H   UNL     1       4.676 -10.544  -3.010  0.00  0.00    +0.145 HD
ATOM     27  H   UNL     1       5.888  -9.388  -3.137  0.00  0.00    +0.145 HD
ENDBRANCH   8  25
BRANCH   9  28
ATOM     28  C   UNL     1       5.853  -7.099  -3.070  0.00  0.00    +0.101 C 
ATOM     29  N   UNL     1       6.964  -6.906  -3.205  0.00  0.00    -0.191 NA
ENDBRANCH   9  28
TORSDOF 6
