REMARK  Name = ZINC09856503
REMARK  6 active torsions:
REMARK  status: ('A' for Active; 'I' for Inactive)
REMARK    1  A    between atoms: C_1  and  C_2
REMARK    2  A    between atoms: C_5  and  C_8
REMARK    3  A    between atoms: C_21  and  S_23
REMARK    4  A    between atoms: S_23  and  C_24
REMARK    5  A    between atoms: C_24  and  C_25
REMARK    6  A    between atoms: C_28  and  C_31
REMARK                            x       y       z     vdW  Elec       q    Type
REMARK                         _______ _______ _______ _____ _____    ______ ____
ROOT
ATOM      1  C   UNL     1      -2.784   2.264   2.490  0.00  0.00    +0.175 C 
ATOM      2  C   UNL     1      -2.052   1.773   1.261  0.00  0.00    +0.041 C 
ATOM      3  C   UNL     1      -0.718   1.572   1.252  0.00  0.00    +0.020 C 
ATOM      4  C   UNL     1      -0.013   1.086   0.008  0.00  0.00    +0.052 C 
ATOM      5  C   UNL     1      -0.751   1.592  -1.233  0.00  0.00    +0.014 C 
ATOM      6  C   UNL     1      -2.194   1.079  -1.177  0.00  0.00    +0.080 C 
ATOM      7  C   UNL     1      -2.824   1.536   0.109  0.00  0.00    +0.163 C 
ATOM      8  O   UNL     1      -4.027   1.703   0.155  0.00  0.00    -0.292 OA
ATOM      9  N   UNL     1       0.053   1.792   2.368  0.00  0.00    -0.287 N 
ATOM     10  C   UNL     1      -0.590   1.934   3.587  0.00  0.00    +0.219 A 
ATOM     11  N   UNL     1      -1.926   2.151   3.660  0.00  0.00    -0.220 N 
ATOM     12  N   UNL     1      -2.243   2.235   5.015  0.00  0.00    -0.141 NA
ATOM     13  C   UNL     1      -1.118   2.075   5.678  0.00  0.00    +0.211 A 
ATOM     14  N   UNL     1      -0.118   1.895   4.803  0.00  0.00    -0.187 NA
ATOM     15  H   UNL     1       1.020   1.848   2.304  0.00  0.00    +0.155 HD
ENDROOT
BRANCH   1  20
ATOM     16  C   UNL     1      -4.288   7.794   1.748  0.00  0.00    +0.044 C 
ATOM     17  C   UNL     1      -3.896   6.352   1.941  0.00  0.00    -0.050 A 
ATOM     18  C   UNL     1      -4.869   5.394   2.157  0.00  0.00    +0.004 A 
ATOM     19  C   UNL     1      -4.509   4.071   2.334  0.00  0.00    +0.006 A 
ATOM     20  C   UNL     1      -3.176   3.707   2.296  0.00  0.00    -0.018 A 
ATOM     21  C   UNL     1      -2.203   4.665   2.086  0.00  0.00    +0.006 A 
ATOM     22  C   UNL     1      -2.563   5.987   1.903  0.00  0.00    +0.004 A 
ENDBRANCH   1  20
BRANCH  13  23
ATOM     23  S   UNL     1      -0.952   2.095   7.432  0.00  0.00    -0.080 S 
BRANCH  23  24
ATOM     24  C   UNL     1       0.821   1.824   7.708  0.00  0.00    +0.112 C 
BRANCH  24  25
ATOM     25  C   UNL     1       1.104   1.819   9.188  0.00  0.00    -0.037 A 
ATOM     26  C   UNL     1       1.425   3.001   9.832  0.00  0.00    +0.005 A 
ATOM     27  C   UNL     1       1.679   3.004  11.188  0.00  0.00    +0.015 A 
ATOM     28  C   UNL     1       1.624   1.809  11.908  0.00  0.00    +0.063 A 
ATOM     29  C   UNL     1       1.305   0.619  11.251  0.00  0.00    +0.015 A 
ATOM     30  C   UNL     1       1.047   0.631   9.896  0.00  0.00    +0.005 A 
BRANCH  28  31
ATOM     31  C   UNL     1       1.902   1.804  13.359  0.00  0.00    +0.387 C 
ATOM     32  O   UNL     1       1.854   0.762  13.982  0.00  0.00    -0.241 OA
ATOM     33  O   UNL     1       2.209   2.953  13.990  0.00  0.00    -0.241 OA
ENDBRANCH  28  31
ENDBRANCH  24  25
ENDBRANCH  23  24
ENDBRANCH  13  23
TORSDOF 5
