REMARK  Name = ZINC61483516
REMARK  5 active torsions:
REMARK  status: ('A' for Active; 'I' for Inactive)
REMARK    1  A    between atoms: C_5  and  C_6
REMARK    2  A    between atoms: N_8  and  N_9
REMARK    3  A    between atoms: C_10  and  C_12
REMARK    4  A    between atoms: C_16  and  N_19
REMARK    5  A    between atoms: C_17  and  N_18
REMARK                            x       y       z     vdW  Elec       q    Type
REMARK                         _______ _______ _______ _____ _____    ______ ____
ROOT
ATOM      1  N   UNL     1      -2.176  -3.218   1.043  0.00  0.00    -0.230 N 
ATOM      2  C   UNL     1      -1.982  -4.540   0.868  0.00  0.00    +0.262 C 
ATOM      3  O   UNL     1      -0.886  -5.026   1.075  0.00  0.00    -0.269 OA
ATOM      4  H   UNL     1      -3.050  -2.830   0.879  0.00  0.00    +0.173 HD
ENDROOT
BRANCH   2   5
ATOM      5  C   UNL     1      -3.097  -5.397   0.426  0.00  0.00    +0.064 A 
ATOM      6  C   UNL     1      -4.384  -4.867   0.302  0.00  0.00    +0.053 A 
ATOM      7  C   UNL     1      -5.423  -5.674  -0.112  0.00  0.00    +0.126 A 
ATOM      8  C   UNL     1      -5.197  -7.011  -0.407  0.00  0.00    +0.073 A 
ATOM      9  C   UNL     1      -3.931  -7.547  -0.289  0.00  0.00    +0.150 A 
ATOM     10  C   UNL     1      -2.871  -6.748   0.121  0.00  0.00    +0.068 A 
ATOM     11  F   UNL     1      -6.667  -5.161  -0.231  0.00  0.00    -0.205 F 
BRANCH  10  12
ATOM     12  N   UNL     1      -1.594  -7.285   0.235  0.00  0.00    -0.356 N 
ATOM     13  H   UNL     1      -1.479  -8.206   0.517  0.00  0.00    +0.142 HD
ATOM     14  H   UNL     1      -0.819  -6.739   0.031  0.00  0.00    +0.142 HD
ENDBRANCH  10  12
BRANCH   9  15
ATOM     15  N   UNL     1      -3.700  -8.975  -0.605  0.00  0.00    +0.058 N 
ATOM     16  O   UNL     1      -4.636  -9.696  -0.861  0.00  0.00    -0.126 OA
ATOM     17  O   UNL     1      -2.576  -9.419  -0.609  0.00  0.00    -0.126 OA
ENDBRANCH   9  15
ENDBRANCH   2   5
BRANCH   1  20
ATOM     18  C   UNL     1      -1.311  -1.081   1.639  0.00  0.00    +0.263 C 
ATOM     19  O   UNL     1      -2.407  -0.595   1.432  0.00  0.00    -0.269 OA
ATOM     20  N   UNL     1      -1.117  -2.403   1.464  0.00  0.00    -0.230 N 
ATOM     21  H   UNL     1      -0.243  -2.791   1.628  0.00  0.00    +0.173 HD
BRANCH  18  26
ATOM     22  C   UNL     1      -0.231   1.226   2.321  0.00  0.00    +0.054 A 
ATOM     23  C   UNL     1       1.008   1.565   2.707  0.00  0.00    +0.195 A 
ATOM     24  O   UNL     1       1.780   0.467   2.723  0.00  0.00    -0.470 OA
ATOM     25  C   UNL     1       1.083  -0.611   2.353  0.00  0.00    +0.208 A 
ATOM     26  C   UNL     1      -0.197  -0.225   2.081  0.00  0.00    +0.076 A 
ENDBRANCH  18  26
ENDBRANCH   1  20
TORSDOF 5
