REMARK  Name = ZINC65936484
REMARK  12 active torsions:
REMARK  status: ('A' for Active; 'I' for Inactive)
REMARK    1  A    between atoms: C_1  and  C_2
REMARK    2  A    between atoms: C_2  and  C_3
REMARK    3  A    between atoms: C_3  and  C_4
REMARK    4  A    between atoms: C_4  and  C_5
REMARK    5  A    between atoms: C_4  and  N_21
REMARK    6  A    between atoms: N_7  and  C_8
REMARK    7  A    between atoms: N_7  and  C_13
REMARK    8  A    between atoms: C_8  and  C_9
REMARK    9  A    between atoms: C_9  and  N_10
REMARK   10  A    between atoms: N_10  and  C_11
REMARK   11  A    between atoms: N_10  and  C_12
REMARK   12  A    between atoms: C_13  and  C_14
REMARK                            x       y       z     vdW  Elec       q    Type
REMARK                         _______ _______ _______ _____ _____    ______ ____
ROOT
ATOM      1  C   UNL     1      -2.668  -2.770   0.418  0.00  0.00    +0.236 C 
ATOM      2  O   UNL     1      -3.149  -3.516  -0.408  0.00  0.00    -0.274 OA
ATOM      3  N   UNL     1      -3.456  -2.195   1.348  0.00  0.00    -0.297 N 
ENDROOT
BRANCH   1   4
ATOM      4  C   UNL     1      -1.188  -2.487   0.406  0.00  0.00    +0.160 C 
BRANCH   4   5
ATOM      5  N   UNL     1      -0.523  -3.400  -0.528  0.00  0.00    -0.288 N 
ATOM      6  C   UNL     1       0.780  -3.702  -0.363  0.00  0.00    +0.298 C 
ATOM      7  O   UNL     1       1.405  -3.215   0.560  0.00  0.00    -0.253 OA
ATOM      8  N   UNL     1       1.391  -4.542  -1.222  0.00  0.00    -0.313 N 
ATOM      9  H   UNL     1      -1.022  -3.788  -1.264  0.00  0.00    +0.151 HD
ATOM     10  H   UNL     1       0.892  -4.930  -1.958  0.00  0.00    +0.146 HD
ATOM     11  H   UNL     1       2.329  -4.759  -1.103  0.00  0.00    +0.146 HD
ENDBRANCH   4   5
BRANCH   4  12
ATOM     12  C   UNL     1      -0.949  -1.042  -0.038  0.00  0.00    +0.031 C 
BRANCH  12  14
ATOM     13  C   UNL     1       0.792   0.695  -0.479  0.00  0.00    +0.004 C 
ATOM     14  C   UNL     1       0.553  -0.750  -0.036  0.00  0.00    -0.001 C 
ENDBRANCH  12  14
ENDBRANCH   4  12
ENDBRANCH   1   4
BRANCH   3  15
ATOM     15  C   UNL     1      -2.905  -1.179   2.248  0.00  0.00    +0.089 C 
BRANCH  15  16
ATOM     16  C   UNL     1      -3.252   0.214   1.719  0.00  0.00    -0.060 C 
BRANCH  16  17
ATOM     17  N   UNL     1      -2.580   1.231   2.538  0.00  0.00    +0.377 N 
ATOM     18  C   UNL     1      -2.815   2.561   1.960  0.00  0.00    -0.097 C 
ATOM     19  C   UNL     1      -3.116   1.190   3.906  0.00  0.00    -0.097 C 
ATOM     20  H   UNL     1      -1.588   1.044   2.560  0.00  0.00    -0.083 HD
ENDBRANCH  16  17
ENDBRANCH  15  16
ENDBRANCH   3  15
BRANCH   3  21
ATOM     21  C   UNL     1      -4.864  -2.585   1.457  0.00  0.00    +0.142 C 
BRANCH  21  22
ATOM     22  C   UNL     1      -4.993  -3.734   2.424  0.00  0.00    -0.029 A 
ATOM     23  C   UNL     1      -4.902  -5.035   1.966  0.00  0.00    +0.005 A 
ATOM     24  C   UNL     1      -5.020  -6.090   2.852  0.00  0.00    +0.002 A 
ATOM     25  C   UNL     1      -5.230  -5.843   4.196  0.00  0.00    +0.020 A 
ATOM     26  C   UNL     1      -5.321  -4.542   4.654  0.00  0.00    +0.041 A 
ATOM     27  C   UNL     1      -5.196  -3.486   3.768  0.00  0.00    +0.025 A 
ATOM     28 CL   UNL     1      -5.584  -4.231   6.342  0.00  0.00    -0.084 Cl
ENDBRANCH  21  22
ENDBRANCH   3  21
TORSDOF 9
