REMARK  Name = ZINC03839085
REMARK  14 active torsions:
REMARK  status: ('A' for Active; 'I' for Inactive)
REMARK    1  A    between atoms: C_1  and  C_2
REMARK    2  A    between atoms: C_2  and  C_3
REMARK    3  A    between atoms: C_2  and  C_4
REMARK    4  A    between atoms: C_4  and  C_5
REMARK    5  A    between atoms: C_5  and  C_7
REMARK    6  A    between atoms: C_5  and  N_10
REMARK    7  A    between atoms: C_11  and  C_13
REMARK    8  A    between atoms: C_16  and  N_26
REMARK    9  A    between atoms: C_20  and  C_22
REMARK   10  A    between atoms: C_23  and  C_24
REMARK   11  A    between atoms: C_23  and  C_25
REMARK   12  A    between atoms: N_29  and  C_30
REMARK   13  A    between atoms: C_34  and  S_36
REMARK   14  A    between atoms: S_36  and  C_37
REMARK                            x       y       z     vdW  Elec       q    Type
REMARK                         _______ _______ _______ _____ _____    ______ ____
ROOT
ATOM      1  C   UNL     1      -2.433  11.838   5.575  0.00  0.00    +0.164 C 
ATOM      2  C   UNL     1      -3.070  10.453   5.331  0.00  0.00    +0.056 C 
ATOM      3  C   UNL     1      -1.977   9.705   4.524  0.00  0.00    +0.094 C 
ATOM      4  C   UNL     1      -0.681  10.260   5.167  0.00  0.00    +0.131 C 
ATOM      5  N   UNL     1      -0.977  11.676   5.450  0.00  0.00    -0.285 N 
ATOM      6  C   UNL     1      -0.065  12.660   5.573  0.00  0.00    +0.240 C 
ATOM      7  O   UNL     1      -0.425  13.797   5.809  0.00  0.00    -0.271 OA
ENDROOT
BRANCH   3   8
ATOM      8  N   UNL     1      -2.080   8.256   4.718  0.00  0.00    -0.295 N 
ATOM      9  C   UNL     1      -1.606   7.415   3.778  0.00  0.00    +0.304 C 
ATOM     10  O   UNL     1      -1.093   7.858   2.769  0.00  0.00    -0.253 OA
ATOM     11  N   UNL     1      -1.701   6.082   3.956  0.00  0.00    -0.269 N 
ATOM     12  H   UNL     1      -2.490   7.903   5.523  0.00  0.00    +0.151 HD
ATOM     13  H   UNL     1      -2.177   5.729   4.724  0.00  0.00    +0.156 HD
BRANCH  11  14
ATOM     14  C   UNL     1      -1.113   5.209   3.034  0.00  0.00    +0.036 A 
ATOM     15  C   UNL     1      -1.706   3.983   2.762  0.00  0.00    +0.023 A 
ATOM     16  C   UNL     1      -1.127   3.120   1.852  0.00  0.00    +0.003 A 
ATOM     17  C   UNL     1       0.044   3.473   1.209  0.00  0.00    +0.015 A 
ATOM     18  C   UNL     1       0.643   4.698   1.477  0.00  0.00    +0.009 A 
ATOM     19  C   UNL     1       0.065   5.565   2.395  0.00  0.00    +0.038 A 
BRANCH  18  20
ATOM     20  S   UNL     1       2.136   5.148   0.657  0.00  0.00    -0.129 S 
ATOM     21  C   UNL     1       2.495   3.727  -0.412  0.00  0.00    +0.090 C 
ENDBRANCH  18  20
ENDBRANCH  11  14
ENDBRANCH   3   8
BRANCH   1  23
ATOM     22  N   UNL     1      -3.982  12.879   7.198  0.00  0.00    -0.302 N 
ATOM     23  C   UNL     1      -2.778  12.324   6.959  0.00  0.00    +0.234 C 
ATOM     24  O   UNL     1      -1.971  12.215   7.858  0.00  0.00    -0.274 OA
ATOM     25  H   UNL     1      -4.628  12.966   6.479  0.00  0.00    +0.150 HD
BRANCH  22  26
ATOM     26  C   UNL     1      -4.317  13.352   8.544  0.00  0.00    +0.159 C 
BRANCH  26  27
ATOM     27  C   UNL     1      -4.846  12.202   9.363  0.00  0.00    +0.231 C 
ATOM     28  O   UNL     1      -4.934  11.097   8.871  0.00  0.00    -0.274 OA
ATOM     29  N   UNL     1      -5.220  12.402  10.642  0.00  0.00    -0.328 N 
ATOM     30  H   UNL     1      -5.150  13.286  11.035  0.00  0.00    +0.145 HD
ATOM     31  H   UNL     1      -5.561  11.663  11.169  0.00  0.00    +0.145 HD
ENDBRANCH  26  27
BRANCH  26  32
ATOM     32  C   UNL     1      -5.385  14.444   8.450  0.00  0.00    +0.034 C 
BRANCH  32  34
ATOM     33  C   UNL     1      -5.919  16.686   7.484  0.00  0.00    +0.007 C 
ATOM     34  C   UNL     1      -4.811  15.654   7.710  0.00  0.00    -0.015 C 
ATOM     35  C   UNL     1      -3.694  16.281   8.546  0.00  0.00    +0.007 C 
ENDBRANCH  32  34
ENDBRANCH  26  32
ENDBRANCH  22  26
ENDBRANCH   1  23
BRANCH   6  36
ATOM     36  C   UNL     1       1.367  12.358   5.423  0.00  0.00    +0.066 C 
ATOM     37  C   UNL     1       2.268  13.329   5.545  0.00  0.00    -0.071 C 
ATOM     38  C   UNL     1       1.822  14.738   5.838  0.00  0.00    +0.039 C 
ATOM     39  C   UNL     1       3.735  13.019   5.392  0.00  0.00    +0.039 C 
ENDBRANCH   6  36
TORSDOF 9
