REMARK  Name = ZINC18341696
REMARK  6 active torsions:
REMARK  status: ('A' for Active; 'I' for Inactive)
REMARK    1  A    between atoms: C_3  and  C_6
REMARK    2  A    between atoms: N_8  and  C_9
REMARK    3  A    between atoms: C_12  and  C_15
REMARK    4  A    between atoms: C_15  and  O_17
REMARK    5  A    between atoms: O_17  and  C_18
REMARK    6  A    between atoms: C_18  and  C_19
REMARK                            x       y       z     vdW  Elec       q    Type
REMARK                         _______ _______ _______ _____ _____    ______ ____
ROOT
ATOM      1  O   UNL     1      -2.073  -1.759  -2.266  0.00  0.00    -0.453 OA
ENDROOT
BRANCH   1   2
ATOM      2  C   UNL     1      -3.202  -2.479  -2.417  0.00  0.00    +0.340 C 
ATOM      3  O   UNL     1      -3.771  -2.928  -1.442  0.00  0.00    -0.245 OA
BRANCH   2   7
ATOM      4  C   UNL     1      -4.768  -3.179  -6.301  0.00  0.00    +0.034 A 
ATOM      5  C   UNL     1      -5.421  -3.694  -5.186  0.00  0.00    +0.024 A 
ATOM      6  C   UNL     1      -4.916  -3.470  -3.925  0.00  0.00    +0.017 A 
ATOM      7  C   UNL     1      -3.745  -2.722  -3.766  0.00  0.00    +0.059 A 
ATOM      8  C   UNL     1      -3.094  -2.202  -4.888  0.00  0.00    +0.017 A 
ATOM      9  C   UNL     1      -3.602  -2.435  -6.146  0.00  0.00    +0.024 A 
BRANCH   4  12
ATOM     10  C   UNL     1      -6.614  -3.464  -7.764  0.00  0.00    +0.284 C 
ATOM     11  O   UNL     1      -7.371  -3.215  -6.844  0.00  0.00    -0.266 OA
ATOM     12  N   UNL     1      -5.281  -3.409  -7.575  0.00  0.00    -0.279 N 
ATOM     13  H   UNL     1      -4.679  -3.529  -8.326  0.00  0.00    +0.155 HD
BRANCH  10  16
ATOM     14  C   UNL     1      -8.533  -4.287 -10.759  0.00  0.00    +0.042 A 
ATOM     15  C   UNL     1      -8.477  -3.917  -9.406  0.00  0.00    +0.054 A 
ATOM     16  C   UNL     1      -7.154  -3.825  -9.079  0.00  0.00    +0.189 A 
ATOM     17  O   UNL     1      -6.431  -4.117 -10.180  0.00  0.00    -0.458 OA
ATOM     18  C   UNL     1      -7.259  -4.402 -11.193  0.00  0.00    +0.196 A 
ENDBRANCH  10  16
ENDBRANCH   4  12
ENDBRANCH   2   7
ENDBRANCH   1   2
BRANCH   1  19
ATOM     19  C   UNL     1      -1.596  -1.559  -0.909  0.00  0.00    +0.308 C 
BRANCH  19  20
ATOM     20  C   UNL     1      -0.333  -0.737  -0.936  0.00  0.00    +0.170 A 
ATOM     21  N   UNL     1       0.835  -1.349  -1.026  0.00  0.00    -0.214 NA
ATOM     22  C   UNL     1       1.979  -0.685  -1.055  0.00  0.00    +0.128 A 
ATOM     23  C   UNL     1       1.956   0.736  -0.987  0.00  0.00    +0.051 A 
ATOM     24  C   UNL     1       3.081   1.673  -1.001  0.00  0.00    -0.025 A 
ATOM     25  C   UNL     1       2.784   2.986  -0.924  0.00  0.00    -0.004 A 
ATOM     26  S   UNL     1       1.015   3.056  -0.830  0.00  0.00    -0.073 S 
ATOM     27  C   UNL     1       0.675   1.316  -0.893  0.00  0.00    +0.114 A 
ATOM     28  N   UNL     1      -0.417   0.577  -0.870  0.00  0.00    -0.221 NA
ATOM     29  C   UNL     1       3.746   4.135  -0.919  0.00  0.00    +0.043 C 
ATOM     30  C   UNL     1       5.153   3.588  -0.640  0.00  0.00    +0.005 C 
ATOM     31  C   UNL     1       5.399   2.380  -1.548  0.00  0.00    +0.005 C 
ATOM     32  C   UNL     1       4.530   1.206  -1.097  0.00  0.00    +0.037 C 
ATOM     33  N   UNL     1       3.180  -1.363  -1.150  0.00  0.00    -0.343 N 
ATOM     34  H   UNL     1       3.208  -2.249  -1.543  0.00  0.00    +0.144 HD
ATOM     35  H   UNL     1       3.996  -0.952  -0.823  0.00  0.00    +0.144 HD
ENDBRANCH  19  20
ENDBRANCH   1  19
TORSDOF 6
