REMARK  Name = ZINC35101489
REMARK  7 active torsions:
REMARK  status: ('A' for Active; 'I' for Inactive)
REMARK    1  A    between atoms: C_1  and  C_2
REMARK    2  A    between atoms: C_4  and  C_20
REMARK    3  A    between atoms: C_5  and  S_9
REMARK    4  A    between atoms: C_6  and  C_8
REMARK    5  A    between atoms: S_9  and  N_12
REMARK    6  A    between atoms: N_12  and  C_13
REMARK    7  A    between atoms: C_16  and  O_19
REMARK                            x       y       z     vdW  Elec       q    Type
REMARK                         _______ _______ _______ _____ _____    ______ ____
ROOT
ATOM      1  S   UNL     1      -1.138  -4.522   0.184  0.00  0.00    +0.059 S 
ATOM      2  O   UNL     1      -1.784  -4.934   1.381  0.00  0.00    -0.153 OA
ATOM      3  O   UNL     1      -1.712  -4.727  -1.100  0.00  0.00    -0.153 OA
ENDROOT
BRANCH   1   8
ATOM      4  C   UNL     1      -0.145   1.406   0.709  0.00  0.00    +0.044 C 
ATOM      5  C   UNL     1      -0.393  -0.075   0.578  0.00  0.00    -0.050 A 
ATOM      6  C   UNL     1      -0.662  -0.833   1.702  0.00  0.00    +0.008 A 
ATOM      7  C   UNL     1      -0.889  -2.191   1.582  0.00  0.00    -0.024 A 
ATOM      8  C   UNL     1      -0.849  -2.791   0.337  0.00  0.00    +0.111 A 
ATOM      9  C   UNL     1      -0.582  -2.033  -0.787  0.00  0.00    -0.024 A 
ATOM     10  C   UNL     1      -0.358  -0.674  -0.667  0.00  0.00    +0.008 A 
ATOM     11  C   UNL     1      -0.537  -2.687  -2.144  0.00  0.00    +0.046 C 
ATOM     12  C   UNL     1      -1.181  -3.018   2.808  0.00  0.00    +0.046 C 
ENDBRANCH   1   8
BRANCH   1  13
ATOM     13  N   UNL     1       0.341  -5.266   0.165  0.00  0.00    -0.187 NA
ATOM     14  H   UNL     1       0.639  -5.734  -0.631  0.00  0.00    +0.148 HD
BRANCH  13  15
ATOM     15  C   UNL     1       1.201  -5.218   1.351  0.00  0.00    +0.077 C 
ATOM     16  C   UNL     1       2.320  -4.199   1.128  0.00  0.00    +0.023 C 
ATOM     17  C   UNL     1       3.217  -4.148   2.366  0.00  0.00    +0.033 C 
ATOM     18  C   UNL     1       3.827  -5.530   2.611  0.00  0.00    +0.115 C 
ATOM     19  C   UNL     1       2.708  -6.549   2.834  0.00  0.00    +0.033 C 
ATOM     20  C   UNL     1       1.810  -6.599   1.596  0.00  0.00    +0.023 C 
BRANCH  18  21
ATOM     21  O   UNL     1       4.665  -5.483   3.768  0.00  0.00    -0.392 OA
ATOM     22  H   UNL     1       5.086  -6.326   3.983  0.00  0.00    +0.210 HD
ENDBRANCH  18  21
ENDBRANCH  13  15
ENDBRANCH   1  13
TORSDOF 4
