REMARK  Name = ZINC49779926
REMARK  7 active torsions:
REMARK  status: ('A' for Active; 'I' for Inactive)
REMARK    1  A    between atoms: C_1  and  N_2
REMARK    2  A    between atoms: N_2  and  C_3
REMARK    3  A    between atoms: N_2  and  C_4
REMARK    4  A    between atoms: C_4  and  C_9
REMARK    5  A    between atoms: C_9  and  N_10
REMARK    6  A    between atoms: N_13  and  N_14
REMARK    7  A    between atoms: C_15  and  C_17
REMARK                            x       y       z     vdW  Elec       q    Type
REMARK                         _______ _______ _______ _____ _____    ______ ____
ROOT
ATOM      1  N   UNL     1      -2.411   1.335   0.974  0.00  0.00    -0.300 N 
ATOM      2  C   UNL     1      -3.220   1.980   1.837  0.00  0.00    +0.316 C 
ATOM      3  O   UNL     1      -3.763   1.367   2.736  0.00  0.00    -0.251 OA
ATOM      4  N   UNL     1      -3.429   3.305   1.704  0.00  0.00    -0.218 N 
ATOM      5  H   UNL     1      -1.978   1.825   0.257  0.00  0.00    +0.150 HD
ATOM      6  H   UNL     1      -4.012   3.769   2.325  0.00  0.00    +0.174 HD
ENDROOT
BRANCH   4   7
ATOM      7  N   UNL     1      -2.804   4.012   0.668  0.00  0.00    -0.229 N 
ATOM      8  C   UNL     1      -3.013   5.337   0.534  0.00  0.00    +0.267 C 
ATOM      9  O   UNL     1      -3.744   5.919   1.314  0.00  0.00    -0.268 OA
ATOM     10  H   UNL     1      -2.222   3.547   0.047  0.00  0.00    +0.173 HD
BRANCH   8  11
ATOM     11  C   UNL     1      -2.359   6.076  -0.549  0.00  0.00    +0.076 A 
ATOM     12  C   UNL     1      -2.433   7.420  -0.856  0.00  0.00    +0.024 A 
ATOM     13  C   UNL     1      -1.701   7.860  -1.955  0.00  0.00    -0.036 A 
ATOM     14  C   UNL     1      -0.984   6.917  -2.621  0.00  0.00    -0.006 A 
ATOM     15  S   UNL     1      -1.254   5.477  -1.813  0.00  0.00    -0.088 S 
ATOM     16  C   UNL     1      -0.119   7.106  -3.832  0.00  0.00    +0.043 C 
ATOM     17  C   UNL     1       0.439   8.533  -3.844  0.00  0.00    +0.005 C 
ATOM     18  C   UNL     1      -0.544   9.434  -4.584  0.00  0.00    +0.001 C 
ATOM     19  C   UNL     1      -1.898   9.444  -3.880  0.00  0.00    +0.005 C 
ATOM     20  C   UNL     1      -1.714   9.327  -2.370  0.00  0.00    +0.036 C 
ENDBRANCH   8  11
ENDBRANCH   4   7
BRANCH   1  21
ATOM     21  C   UNL     1      -2.184  -0.105   1.120  0.00  0.00    +0.094 C 
BRANCH  21  22
ATOM     22  C   UNL     1      -1.326  -0.606  -0.044  0.00  0.00    -0.050 C 
ATOM     23  C   UNL     1      -2.083  -0.423  -1.376  0.00  0.00    -0.010 C 
ATOM     24  C   UNL     1      -1.699  -1.674  -2.206  0.00  0.00    -0.001 C 
ATOM     25  C   UNL     1      -1.666  -2.795  -1.138  0.00  0.00    -0.001 C 
ATOM     26  C   UNL     1      -1.061  -2.114   0.107  0.00  0.00    -0.010 C 
BRANCH  22  28
ATOM     27  C   UNL     1       0.690  -0.116   1.160  0.00  0.00    -0.096 C 
ATOM     28  N   UNL     1      -0.054   0.127  -0.084  0.00  0.00    +0.381 N 
ATOM     29  C   UNL     1       0.742  -0.335  -1.228  0.00  0.00    -0.096 C 
ATOM     30  H   UNL     1      -0.238   1.115  -0.178  0.00  0.00    -0.082 HD
ENDBRANCH  22  28
ENDBRANCH  21  22
ENDBRANCH   1  21
TORSDOF 5
