REMARK  Name = ZINC09282846
REMARK  11 active torsions:
REMARK  status: ('A' for Active; 'I' for Inactive)
REMARK    1  A    between atoms: C_1  and  C_2
REMARK    2  A    between atoms: C_5  and  S_8
REMARK    3  A    between atoms: S_8  and  N_11
REMARK    4  A    between atoms: N_11  and  C_12
REMARK    5  A    between atoms: C_12  and  C_13
REMARK    6  A    between atoms: C_13  and  O_15
REMARK    7  A    between atoms: O_15  and  C_16
REMARK    8  A    between atoms: C_16  and  C_17
REMARK    9  A    between atoms: N_19  and  C_20
REMARK   10  A    between atoms: C_21  and  C_31
REMARK   11  A    between atoms: C_26  and  C_30
REMARK                            x       y       z     vdW  Elec       q    Type
REMARK                         _______ _______ _______ _____ _____    ______ ____
ROOT
ATOM      1  C   UNL     1       4.240  -3.898  -6.790  0.00  0.00    +0.255 C 
ATOM      2  O   UNL     1       5.084  -3.076  -6.500  0.00  0.00    -0.272 OA
ATOM      3  N   UNL     1       4.323  -4.568  -7.956  0.00  0.00    -0.277 N 
ATOM      4  H   UNL     1       3.648  -5.224  -8.188  0.00  0.00    +0.155 HD
ENDROOT
BRANCH   3   5
ATOM      5  C   UNL     1       5.375  -4.318  -8.825  0.00  0.00    +0.084 A 
ATOM      6  C   UNL     1       5.630  -4.900 -10.059  0.00  0.00    +0.068 A 
ATOM      7  C   UNL     1       6.812  -4.457 -10.779  0.00  0.00    -0.023 A 
ATOM      8  C   UNL     1       7.544  -3.509 -10.154  0.00  0.00    -0.004 A 
ATOM      9  S   UNL     1       6.684  -3.198  -8.638  0.00  0.00    -0.077 S 
ATOM     10  C   UNL     1       8.803  -2.867 -10.650  0.00  0.00    +0.046 C 
ATOM     11  C   UNL     1       9.352  -3.711 -11.809  0.00  0.00    -0.009 C 
ATOM     12  C   UNL     1       8.209  -4.015 -12.783  0.00  0.00    +0.008 C 
ATOM     13  C   UNL     1       7.227  -4.998 -12.141  0.00  0.00    +0.037 C 
ATOM     14  C   UNL     1      10.453  -2.934 -12.534  0.00  0.00    +0.008 C 
BRANCH   6  15
ATOM     15  C   UNL     1       4.740  -5.924 -10.615  0.00  0.00    +0.244 C 
ATOM     16  O   UNL     1       3.802  -5.598 -11.318  0.00  0.00    -0.270 OA
ATOM     17  N   UNL     1       4.962  -7.226 -10.348  0.00  0.00    -0.325 N 
ATOM     18  H   UNL     1       5.710  -7.486  -9.788  0.00  0.00    +0.145 HD
ATOM     19  H   UNL     1       4.373  -7.904 -10.717  0.00  0.00    +0.145 HD
ENDBRANCH   6  15
ENDBRANCH   3   5
BRANCH   1  20
ATOM     20  C   UNL     1       3.097  -4.169  -5.845  0.00  0.00    +0.328 C 
BRANCH  20  21
ATOM     21  O   UNL     1       3.232  -3.328  -4.669  0.00  0.00    -0.454 OA
BRANCH  21  22
ATOM     22  C   UNL     1       2.287  -3.448  -3.723  0.00  0.00    +0.323 C 
ATOM     23  O   UNL     1       1.379  -4.230  -3.872  0.00  0.00    -0.249 OA
BRANCH  22  24
ATOM     24  C   UNL     1       2.360  -2.607  -2.474  0.00  0.00    +0.226 C 
BRANCH  24  25
ATOM     25  N   UNL     1       1.223  -2.923  -1.606  0.00  0.00    -0.179 NA
ATOM     26  H   UNL     1       0.465  -3.414  -1.959  0.00  0.00    +0.149 HD
BRANCH  25  27
ATOM     27  S   UNL     1       1.232  -2.441  -0.022  0.00  0.00    +0.059 S 
ATOM     28  O   UNL     1       2.489  -2.832   0.515  0.00  0.00    -0.153 OA
ATOM     29  O   UNL     1      -0.002  -2.866   0.539  0.00  0.00    -0.153 OA
BRANCH  27  34
ATOM     30  C   UNL     1       1.151   3.592   0.010  0.00  0.00    +0.044 C 
ATOM     31  C   UNL     1       1.171   2.086   0.002  0.00  0.00    -0.050 A 
ATOM     32  C   UNL     1      -0.017   1.378   0.010  0.00  0.00    +0.005 A 
ATOM     33  C   UNL     1       0.002  -0.004   0.002  0.00  0.00    +0.029 A 
ATOM     34  C   UNL     1       1.208  -0.679  -0.013  0.00  0.00    +0.105 A 
ATOM     35  C   UNL     1       2.396   0.029  -0.021  0.00  0.00    +0.029 A 
ATOM     36  C   UNL     1       2.377   1.411  -0.015  0.00  0.00    +0.005 A 
ENDBRANCH  27  34
ENDBRANCH  25  27
ENDBRANCH  24  25
ENDBRANCH  22  24
ENDBRANCH  21  22
ENDBRANCH  20  21
ENDBRANCH   1  20
TORSDOF 9
