REMARK  Name = ZINC13733313
REMARK  12 active torsions:
REMARK  status: ('A' for Active; 'I' for Inactive)
REMARK    1  A    between atoms: C_4  and  C_7
REMARK    2  A    between atoms: C_7  and  O_8
REMARK    3  A    between atoms: O_8  and  C_9
REMARK    4  A    between atoms: C_12  and  C_16
REMARK    5  A    between atoms: C_16  and  N_17
REMARK    6  A    between atoms: N_17  and  C_18
REMARK    7  A    between atoms: C_18  and  C_19
REMARK    8  A    between atoms: C_19  and  C_20
REMARK    9  A    between atoms: C_20  and  N_21
REMARK   10  A    between atoms: N_21  and  C_22
REMARK   11  A    between atoms: C_22  and  C_23
REMARK   12  A    between atoms: C_23  and  O_24
REMARK                            x       y       z     vdW  Elec       q    Type
REMARK                         _______ _______ _______ _____ _____    ______ ____
ROOT
ATOM      1  C   UNL     1       5.319  -1.605   1.467  0.00  0.00    +0.149 A 
ATOM      2  C   UNL     1       5.335  -2.991   1.545  0.00  0.00    +0.061 A 
ATOM      3  C   UNL     1       6.535  -3.658   1.710  0.00  0.00    +0.024 A 
ATOM      4  C   UNL     1       7.717  -2.946   1.797  0.00  0.00    -0.031 A 
ATOM      5  C   UNL     1       7.704  -1.566   1.720  0.00  0.00    +0.024 A 
ATOM      6  C   UNL     1       6.508  -0.894   1.549  0.00  0.00    +0.061 A 
ATOM      7 BR   UNL     1       6.491   0.994   1.435  0.00  0.00    -0.046 Br
ATOM      8 BR   UNL     1       3.719  -3.965   1.427  0.00  0.00    -0.046 Br
ENDROOT
BRANCH   1   9
ATOM      9  O   UNL     1       4.141  -0.946   1.304  0.00  0.00    -0.485 OA
BRANCH   9  10
ATOM     10  C   UNL     1       3.711  -0.707  -0.038  0.00  0.00    +0.264 C 
BRANCH  10  14
ATOM     11  C   UNL     1      -0.017   1.378   0.010  0.00  0.00    +0.000 A 
ATOM     12  C   UNL     1       1.171   2.086   0.002  0.00  0.00    +0.000 A 
ATOM     13  C   UNL     1       2.377   1.411  -0.013  0.00  0.00    +0.007 A 
ATOM     14  C   UNL     1       2.396   0.029  -0.020  0.00  0.00    -0.010 A 
ATOM     15  C   UNL     1       1.208  -0.679  -0.012  0.00  0.00    +0.007 A 
ATOM     16  C   UNL     1       0.002  -0.004   0.002  0.00  0.00    +0.000 A 
ENDBRANCH  10  14
ENDBRANCH   9  10
ENDBRANCH   1   9
BRANCH   4  17
ATOM     17  C   UNL     1       9.023  -3.677   1.977  0.00  0.00    +0.116 C 
BRANCH  17  18
ATOM     18  N   UNL     1       9.595  -3.990   0.660  0.00  0.00    -0.312 NA
ATOM     19  H   UNL     1       8.943  -4.518   0.100  0.00  0.00    +0.122 HD
BRANCH  18  20
ATOM     20  C   UNL     1      10.871  -4.704   0.797  0.00  0.00    +0.079 C 
BRANCH  20  21
ATOM     21  C   UNL     1      11.434  -5.012  -0.592  0.00  0.00    -0.004 C 
BRANCH  21  22
ATOM     22  C   UNL     1      12.764  -5.755  -0.450  0.00  0.00    -0.081 C 
BRANCH  22  23
ATOM     23  N   UNL     1      13.305  -6.051  -1.783  0.00  0.00    +0.381 N 
ATOM     24  H   UNL     1      12.650  -6.627  -2.291  0.00  0.00    -0.086 HD
ATOM     25  H   UNL     1      13.454  -5.188  -2.284  0.00  0.00    -0.086 HD
BRANCH  23  26
ATOM     26  C   UNL     1      14.581  -6.765  -1.646  0.00  0.00    -0.054 C 
BRANCH  26  27
ATOM     27  C   UNL     1      15.144  -7.073  -3.035  0.00  0.00    +0.137 C 
BRANCH  27  28
ATOM     28  O   UNL     1      15.464  -5.850  -3.701  0.00  0.00    -0.397 OA
ATOM     29  H   UNL     1      15.828  -5.970  -4.590  0.00  0.00    +0.209 HD
ENDBRANCH  27  28
ENDBRANCH  26  27
ENDBRANCH  23  26
ENDBRANCH  22  23
ENDBRANCH  21  22
ENDBRANCH  20  21
ENDBRANCH  18  20
ENDBRANCH  17  18
ENDBRANCH   4  17
TORSDOF 12
