REMARK  Name = ZINC36568689
REMARK  14 active torsions:
REMARK  status: ('A' for Active; 'I' for Inactive)
REMARK    1  A    between atoms: C_1  and  C_2
REMARK    2  A    between atoms: C_2  and  C_3
REMARK    3  A    between atoms: C_3  and  N_4
REMARK    4  A    between atoms: N_4  and  C_5
REMARK    5  A    between atoms: C_5  and  C_7
REMARK    6  A    between atoms: C_5  and  C_16
REMARK    7  A    between atoms: C_8  and  O_15
REMARK    8  A    between atoms: C_10  and  O_14
REMARK    9  A    between atoms: C_12  and  O_13
REMARK   10  A    between atoms: N_18  and  C_19
REMARK   11  A    between atoms: C_19  and  S_20
REMARK   12  A    between atoms: S_20  and  C_23
REMARK   13  A    between atoms: C_26  and  C_29
REMARK   14  A    between atoms: C_30  and  C_32
REMARK                            x       y       z     vdW  Elec       q    Type
REMARK                         _______ _______ _______ _____ _____    ______ ____
ROOT
ATOM      1  C   UNL     1      -1.445  -2.802   1.482  0.00  0.00    +0.200 C 
ENDROOT
BRANCH   1   2
ATOM      2  C   UNL     1      -0.052  -2.610   2.026  0.00  0.00    +0.065 A 
ATOM      3  C   UNL     1       0.762  -3.710   2.249  0.00  0.00    +0.129 A 
ATOM      4  C   UNL     1       2.044  -3.534   2.749  0.00  0.00    +0.091 A 
ATOM      5  C   UNL     1       2.511  -2.258   3.025  0.00  0.00    +0.124 A 
ATOM      6  C   UNL     1       1.697  -1.158   2.801  0.00  0.00    +0.091 A 
ATOM      7  C   UNL     1       0.417  -1.334   2.297  0.00  0.00    +0.129 A 
BRANCH   7   8
ATOM      8  O   UNL     1      -0.380  -0.255   2.073  0.00  0.00    -0.506 OA
ATOM      9  H   UNL     1      -0.923  -0.003   2.832  0.00  0.00    +0.292 HD
ENDBRANCH   7   8
BRANCH   5  10
ATOM     10  O   UNL     1       3.766  -2.085   3.516  0.00  0.00    -0.507 OA
ATOM     11  H   UNL     1       4.443  -1.972   2.834  0.00  0.00    +0.292 HD
ENDBRANCH   5  10
BRANCH   3  12
ATOM     12  O   UNL     1       0.304  -4.961   1.979  0.00  0.00    -0.506 OA
ATOM     13  H   UNL     1       0.550  -5.289   1.103  0.00  0.00    +0.292 HD
ENDBRANCH   3  12
ENDBRANCH   1   2
BRANCH   1  14
ATOM     14  C   UNL     1      -2.441  -2.713   2.610  0.00  0.00    +0.240 C 
ATOM     15  O   UNL     1      -3.438  -2.033   2.486  0.00  0.00    -0.273 OA
ATOM     16  N   UNL     1      -2.223  -3.388   3.756  0.00  0.00    -0.294 N 
ATOM     17  H   UNL     1      -1.426  -3.931   3.855  0.00  0.00    +0.150 HD
BRANCH  16  18
ATOM     18  C   UNL     1      -3.191  -3.301   4.852  0.00  0.00    +0.278 C 
BRANCH  18  19
ATOM     19  S   UNL     1      -4.342  -4.700   4.754  0.00  0.00    +0.013 S 
ATOM     20  O   UNL     1      -5.249  -4.665   5.848  0.00  0.00    -0.168 OA
ATOM     21  O   UNL     1      -4.818  -4.850   3.424  0.00  0.00    -0.168 OA
BRANCH  19  22
ATOM     22  C   UNL     1      -3.348  -6.126   5.040  0.00  0.00    +0.090 A 
ATOM     23  C   UNL     1      -2.744  -6.772   3.977  0.00  0.00    +0.027 A 
ATOM     24  C   UNL     1      -1.964  -7.891   4.202  0.00  0.00    +0.005 A 
ATOM     25  C   UNL     1      -1.787  -8.363   5.489  0.00  0.00    -0.050 A 
ATOM     26  C   UNL     1      -2.390  -7.717   6.551  0.00  0.00    +0.005 A 
ATOM     27  C   UNL     1      -3.167  -6.596   6.327  0.00  0.00    +0.027 A 
ATOM     28  C   UNL     1      -0.937  -9.584   5.733  0.00  0.00    +0.044 C 
ENDBRANCH  19  22
ENDBRANCH  18  19
ENDBRANCH  16  18
ENDBRANCH   1  14
BRANCH   1  29
ATOM     29  N   UNL     1      -1.731  -1.759   0.494  0.00  0.00    -0.279 N 
ATOM     30  C   UNL     1      -1.202  -1.838  -0.742  0.00  0.00    +0.283 C 
ATOM     31  O   UNL     1      -0.411  -2.724  -1.010  0.00  0.00    -0.267 OA
BRANCH  30  32
ATOM     32  C   UNL     1      -1.579  -0.858  -1.766  0.00  0.00    +0.189 A 
ATOM     33  C   UNL     1      -1.149  -0.846  -3.062  0.00  0.00    +0.054 A 
ATOM     34  C   UNL     1      -1.757   0.260  -3.678  0.00  0.00    +0.042 A 
ATOM     35  C   UNL     1      -2.520   0.866  -2.742  0.00  0.00    +0.196 A 
ATOM     36  O   UNL     1      -2.414   0.187  -1.593  0.00  0.00    -0.458 OA
ENDBRANCH  30  32
BRANCH  29  37
ATOM     37  C   UNL     1      -2.593  -0.629   0.851  0.00  0.00    +0.109 C 
BRANCH  37  39
ATOM     38  C   UNL     1      -4.947   0.209   0.856  0.00  0.00    +0.005 C 
ATOM     39  C   UNL     1      -4.016  -0.896   0.354  0.00  0.00    +0.016 C 
ENDBRANCH  37  39
ENDBRANCH  29  37
ENDBRANCH   1  29
TORSDOF 12
