REMARK  Name = ZINC67410131
REMARK  13 active torsions:
REMARK  status: ('A' for Active; 'I' for Inactive)
REMARK    1  A    between atoms: C_1  and  C_2
REMARK    2  A    between atoms: C_2  and  C_3
REMARK    3  A    between atoms: C_2  and  N_4
REMARK    4  A    between atoms: N_4  and  C_5
REMARK    5  A    between atoms: N_4  and  C_6
REMARK    6  A    between atoms: C_6  and  C_7
REMARK    7  A    between atoms: C_7  and  C_8
REMARK    8  A    between atoms: C_8  and  C_9
REMARK    9  A    between atoms: C_9  and  N_10
REMARK   10  A    between atoms: N_13  and  N_14
REMARK   11  A    between atoms: C_15  and  C_17
REMARK   12  A    between atoms: C_17  and  C_18
REMARK   13  A    between atoms: C_18  and  C_19
REMARK                            x       y       z     vdW  Elec       q    Type
REMARK                         _______ _______ _______ _____ _____    ______ ____
ROOT
ATOM      1  N   UNL     1      -4.173  -6.036   0.261  0.00  0.00    -0.298 N 
ATOM      2  C   UNL     1      -5.325  -6.727   0.370  0.00  0.00    +0.316 C 
ATOM      3  O   UNL     1      -6.382  -6.133   0.475  0.00  0.00    -0.251 OA
ATOM      4  N   UNL     1      -5.307  -8.074   0.363  0.00  0.00    -0.218 N 
ATOM      5  H   UNL     1      -3.330  -6.510   0.177  0.00  0.00    +0.150 HD
ATOM      6  H   UNL     1      -6.137  -8.571   0.441  0.00  0.00    +0.174 HD
ENDROOT
BRANCH   4   7
ATOM      7  N   UNL     1      -4.090  -8.758   0.241  0.00  0.00    -0.233 N 
ATOM      8  C   UNL     1      -4.072 -10.105   0.234  0.00  0.00    +0.229 C 
ATOM      9  O   UNL     1      -5.109 -10.726   0.332  0.00  0.00    -0.274 OA
ATOM     10  H   UNL     1      -3.261  -8.261   0.163  0.00  0.00    +0.173 HD
BRANCH   8  11
ATOM     11  C   UNL     1      -2.763 -10.840   0.104  0.00  0.00    +0.097 C 
BRANCH  11  12
ATOM     12  C   UNL     1      -3.021 -12.348   0.123  0.00  0.00    +0.013 C 
BRANCH  12  13
ATOM     13  C   UNL     1      -1.692 -13.095  -0.009  0.00  0.00    -0.011 C 
ATOM     14  C   UNL     1      -0.826 -12.817   1.221  0.00  0.00    +0.003 C 
ATOM     15  C   UNL     1       0.503 -13.563   1.089  0.00  0.00    +0.000 C 
ATOM     16  C   UNL     1       0.236 -15.066   0.982  0.00  0.00    +0.000 C 
ATOM     17  C   UNL     1      -0.630 -15.344  -0.248  0.00  0.00    +0.000 C 
ATOM     18  C   UNL     1      -1.959 -14.597  -0.116  0.00  0.00    +0.003 C 
ENDBRANCH  12  13
ENDBRANCH  11  12
ENDBRANCH   8  11
ENDBRANCH   4   7
BRANCH   1  19
ATOM     19  C   UNL     1      -4.193  -4.572   0.269  0.00  0.00    +0.106 C 
BRANCH  19  20
ATOM     20  C   UNL     1      -2.764  -4.041   0.133  0.00  0.00    +0.017 C 
BRANCH  20  21
ATOM     21  C   UNL     1      -2.785  -2.512   0.141  0.00  0.00    -0.017 C 
BRANCH  21  22
ATOM     22  C   UNL     1      -1.356  -1.981   0.004  0.00  0.00    -0.079 C 
BRANCH  22  23
ATOM     23  N   UNL     1      -1.376  -0.512   0.012  0.00  0.00    +0.379 N 
ATOM     24  C   UNL     1      -2.087  -0.026  -1.178  0.00  0.00    -0.096 C 
ATOM     25  H   UNL     1      -1.848  -0.187   0.843  0.00  0.00    -0.082 HD
BRANCH  23  27
ATOM     26  C   UNL     1      -0.019   1.526   0.010  0.00  0.00    -0.014 C 
ATOM     27  C   UNL     1       0.002  -0.004   0.002  0.00  0.00    -0.075 C 
ATOM     28  C   UNL     1       0.742  -0.511   1.242  0.00  0.00    -0.014 C 
ENDBRANCH  23  27
ENDBRANCH  22  23
ENDBRANCH  21  22
ENDBRANCH  20  21
ENDBRANCH  19  20
ENDBRANCH   1  19
TORSDOF 10
