REMARK  Name = ZINC20572367
REMARK  5 active torsions:
REMARK  status: ('A' for Active; 'I' for Inactive)
REMARK    1  A    between atoms: C_13  and  C_16
REMARK    2  A    between atoms: C_16  and  C_17
REMARK    3  A    between atoms: C_17  and  C_18
REMARK    4  A    between atoms: N_23  and  C_26
REMARK    5  A    between atoms: C_26  and  C_27
REMARK                            x       y       z     vdW  Elec       q    Type
REMARK                         _______ _______ _______ _____ _____    ______ ____
ROOT
ATOM      1  C   UNL     1      -0.017   1.379   0.010  0.00  0.00    +0.022 A 
ATOM      2  C   UNL     1       1.165   2.092   0.002  0.00  0.00    +0.025 A 
ATOM      3  C   UNL     1       2.386   1.423  -0.013  0.00  0.00    +0.039 A 
ATOM      4  C   UNL     1       2.394   0.031  -0.019  0.00  0.00    +0.005 A 
ATOM      5  C   UNL     1       1.213  -0.676  -0.012  0.00  0.00    +0.027 A 
ATOM      6  C   UNL     1       0.002  -0.004   0.002  0.00  0.00    +0.041 A 
ATOM      7 CL   UNL     1      -1.488  -0.895   0.011  0.00  0.00    -0.084 Cl
ATOM      8  C   UNL     1       3.841  -0.371  -0.030  0.00  0.00    +0.136 C 
ATOM      9  C   UNL     1       4.179  -1.228  -1.255  0.00  0.00    +0.122 C 
ATOM     10  C   UNL     1       5.228  -2.254  -0.739  0.00  0.00    +0.107 C 
ATOM     11  C   UNL     1       5.418  -1.907   0.753  0.00  0.00    +0.068 C 
ATOM     12  N   UNL     1       4.182  -1.194   1.146  0.00  0.00    -0.295 NA
ATOM     13  C   UNL     1       6.477  -1.892  -1.511  0.00  0.00    +0.227 C 
ATOM     14  O   UNL     1       7.547  -2.454  -1.413  0.00  0.00    -0.275 OA
ATOM     15  N   UNL     1       6.218  -0.858  -2.318  0.00  0.00    -0.239 N 
ATOM     16  C   UNL     1       4.946  -0.401  -2.262  0.00  0.00    +0.228 C 
ATOM     17  O   UNL     1       4.488   0.519  -2.906  0.00  0.00    -0.275 OA
ATOM     18  C   UNL     1       4.608   0.923  -0.035  0.00  0.00    +0.243 C 
ATOM     19  O   UNL     1       5.814   1.050  -0.046  0.00  0.00    -0.273 OA
ATOM     20  N   UNL     1       3.695   1.913  -0.024  0.00  0.00    -0.283 N 
ATOM     21  H   UNL     1       4.335  -0.616   1.959  0.00  0.00    +0.123 HD
ATOM     22  H   UNL     1       3.920   2.857  -0.025  0.00  0.00    +0.155 HD
ENDROOT
BRANCH  11  23
ATOM     23  C   UNL     1       5.604  -3.183   1.577  0.00  0.00    +0.028 C 
BRANCH  23  24
ATOM     24  C   UNL     1       5.915  -2.812   3.028  0.00  0.00    +0.097 C 
BRANCH  24  25
ATOM     25  C   UNL     1       6.098  -4.069   3.839  0.00  0.00    +0.211 C 
ATOM     26  O   UNL     1       5.990  -5.154   3.309  0.00  0.00    -0.276 OA
ATOM     27  N   UNL     1       6.381  -3.987   5.154  0.00  0.00    -0.329 N 
ATOM     28  H   UNL     1       6.467  -3.119   5.579  0.00  0.00    +0.145 HD
ATOM     29  H   UNL     1       6.499  -4.795   5.677  0.00  0.00    +0.145 HD
ENDBRANCH  24  25
ENDBRANCH  23  24
ENDBRANCH  11  23
BRANCH  15  30
ATOM     30  C   UNL     1       7.228  -0.268  -3.199  0.00  0.00    +0.148 C 
BRANCH  30  31
ATOM     31  C   UNL     1       7.199  -0.976  -4.555  0.00  0.00    +0.136 C 
ATOM     32  C   UNL     1       8.340  -0.444  -5.449  0.00  0.00    +0.035 C 
ATOM     33  C   UNL     1       7.662  -0.378  -6.845  0.00  0.00    +0.031 C 
ATOM     34  C   UNL     1       6.213   0.003  -6.450  0.00  0.00    +0.160 C 
ATOM     35  O   UNL     1       5.961  -0.700  -5.221  0.00  0.00    -0.375 OA
ENDBRANCH  30  31
ENDBRANCH  15  30
TORSDOF 5
