REMARK  Name = ZINC46583245
REMARK  9 active torsions:
REMARK  status: ('A' for Active; 'I' for Inactive)
REMARK    1  A    between atoms: C_1  and  C_2
REMARK    2  A    between atoms: C_5  and  N_9
REMARK    3  A    between atoms: C_7  and  C_8
REMARK    4  A    between atoms: N_9  and  C_10
REMARK    5  A    between atoms: C_10  and  N_12
REMARK    6  A    between atoms: N_12  and  N_13
REMARK    7  A    between atoms: C_14  and  C_16
REMARK    8  A    between atoms: C_16  and  N_17
REMARK    9  A    between atoms: C_18  and  C_28
REMARK                            x       y       z     vdW  Elec       q    Type
REMARK                         _______ _______ _______ _____ _____    ______ ____
ROOT
ATOM      1  N   UNL     1      -0.071  -6.884   0.051  0.00  0.00    -0.234 N 
ATOM      2  C   UNL     1      -0.160  -8.229   0.043  0.00  0.00    +0.249 C 
ATOM      3  O   UNL     1      -0.228  -8.826  -1.010  0.00  0.00    -0.272 OA
ATOM      4  H   UNL     1      -0.017  -6.407   0.894  0.00  0.00    +0.173 HD
ENDROOT
BRANCH   1   5
ATOM      5  N   UNL     1      -0.058  -6.176  -1.158  0.00  0.00    -0.246 N 
ATOM      6  H   UNL     1      -0.113  -6.654  -2.000  0.00  0.00    +0.172 HD
BRANCH   5   7
ATOM      7  C   UNL     1       0.030  -4.832  -1.150  0.00  0.00    +0.151 C 
ATOM      8  S   UNL     1       0.046  -3.966  -2.627  0.00  0.00    -0.017 S 
BRANCH   7   9
ATOM      9  N   UNL     1       0.106  -4.168   0.021  0.00  0.00    -0.296 N 
ATOM     10  H   UNL     1       0.181  -4.660   0.853  0.00  0.00    +0.154 HD
BRANCH   9  15
ATOM     11  C   UNL     1      -0.018   1.503   0.079  0.00  0.00    +0.044 C 
ATOM     12  C   UNL     1       0.015  -0.003   0.064  0.00  0.00    -0.047 A 
ATOM     13  C   UNL     1      -0.823  -0.703  -0.786  0.00  0.00    +0.005 A 
ATOM     14  C   UNL     1      -0.795  -2.083  -0.803  0.00  0.00    +0.023 A 
ATOM     15  C   UNL     1       0.075  -2.769   0.035  0.00  0.00    +0.033 A 
ATOM     16  C   UNL     1       0.915  -2.064   0.887  0.00  0.00    +0.027 A 
ATOM     17  C   UNL     1       0.885  -0.683   0.895  0.00  0.00    -0.046 A 
ATOM     18  C   UNL     1       1.800   0.084   1.816  0.00  0.00    +0.044 C 
ENDBRANCH   9  15
ENDBRANCH   7   9
ENDBRANCH   5   7
ENDBRANCH   1   5
BRANCH   2  19
ATOM     19  C   UNL     1      -0.173  -8.991   1.344  0.00  0.00    +0.223 C 
BRANCH  19  20
ATOM     20  N   UNL     1      -0.275 -10.426   1.068  0.00  0.00    -0.287 N 
ATOM     21  C   UNL     1       0.854 -11.177   0.986  0.00  0.00    +0.110 A 
ATOM     22  N   UNL     1       0.847 -12.453   0.745  0.00  0.00    -0.234 NA
ATOM     23  C   UNL     1      -0.311 -13.135   0.555  0.00  0.00    +0.078 A 
ATOM     24  C   UNL     1      -0.319 -14.507   0.297  0.00  0.00    +0.028 A 
ATOM     25  C   UNL     1      -1.518 -15.158   0.111  0.00  0.00    +0.002 A 
ATOM     26  C   UNL     1      -2.721 -14.468   0.178  0.00  0.00    +0.001 A 
ATOM     27  C   UNL     1      -2.738 -13.114   0.432  0.00  0.00    +0.015 A 
ATOM     28  C   UNL     1      -1.536 -12.435   0.623  0.00  0.00    +0.065 A 
ATOM     29  C   UNL     1      -1.493 -10.992   0.902  0.00  0.00    +0.262 A 
ATOM     30  O   UNL     1      -2.513 -10.332   0.978  0.00  0.00    -0.267 OA
ATOM     31  C   UNL     1       2.183 -10.495   1.185  0.00  0.00    +0.086 C 
ENDBRANCH  19  20
ENDBRANCH   2  19
TORSDOF 6
