REMARK  Name = ZINC62210433
REMARK  7 active torsions:
REMARK  status: ('A' for Active; 'I' for Inactive)
REMARK    1  A    between atoms: C_1  and  C_2
REMARK    2  A    between atoms: C_2  and  C_3
REMARK    3  A    between atoms: C_2  and  O_4
REMARK    4  A    between atoms: O_4  and  C_5
REMARK    5  A    between atoms: C_8  and  C_11
REMARK    6  A    between atoms: C_13  and  N_24
REMARK    7  A    between atoms: N_18  and  C_19
REMARK                            x       y       z     vdW  Elec       q    Type
REMARK                         _______ _______ _______ _____ _____    ______ ____
ROOT
ATOM      1  C   UNL     1      -2.167  -5.641  -2.132  0.00  0.00    +0.093 C 
ATOM      2  C   UNL     1      -2.724  -5.537  -3.569  0.00  0.00    -0.041 C 
ATOM      3  C   UNL     1      -4.248  -5.611  -3.322  0.00  0.00    +0.082 C 
ATOM      4  C   UNL     1      -4.376  -6.346  -2.006  0.00  0.00    +0.215 C 
ATOM      5  O   UNL     1      -5.395  -6.856  -1.591  0.00  0.00    -0.276 OA
ATOM      6  N   UNL     1      -3.194  -6.353  -1.362  0.00  0.00    -0.293 N 
ENDROOT
BRANCH   1  10
ATOM      7  C   UNL     1      -1.538  -1.739  -0.505  0.00  0.00    +0.121 A 
ATOM      8  C   UNL     1      -0.465  -2.468  -0.997  0.00  0.00    +0.046 A 
ATOM      9  C   UNL     1      -0.671  -3.729  -1.522  0.00  0.00    +0.009 A 
ATOM     10  C   UNL     1      -1.945  -4.265  -1.558  0.00  0.00    -0.028 A 
ATOM     11  C   UNL     1      -3.017  -3.540  -1.070  0.00  0.00    +0.009 A 
ATOM     12  C   UNL     1      -2.815  -2.281  -0.538  0.00  0.00    +0.046 A 
BRANCH   7  13
ATOM     13  O   UNL     1      -1.339  -0.499   0.012  0.00  0.00    -0.489 OA
BRANCH  13  15
ATOM     14  C   UNL     1      -1.982   1.168   1.640  0.00  0.00    +0.051 C 
ATOM     15  C   UNL     1      -2.466   0.143   0.612  0.00  0.00    +0.167 C 
ATOM     16  C   UNL     1      -3.283   0.853  -0.469  0.00  0.00    +0.051 C 
ENDBRANCH  13  15
ENDBRANCH   7  13
ENDBRANCH   1  10
BRANCH   6  17
ATOM     17  C   UNL     1      -2.961  -6.988  -0.063  0.00  0.00    +0.077 C 
ATOM     18  C   UNL     1      -3.329  -8.484  -0.133  0.00  0.00    +0.022 C 
ATOM     19  C   UNL     1      -3.961  -8.785   1.249  0.00  0.00    +0.002 C 
ATOM     20  C   UNL     1      -4.768  -7.496   1.543  0.00  0.00    +0.002 C 
ATOM     21  C   UNL     1      -3.876  -6.359   1.003  0.00  0.00    +0.022 C 
ENDBRANCH   6  17
BRANCH   2  22
ATOM     22  N   UNL     1      -2.352  -4.257  -4.186  0.00  0.00    +0.382 N 
ATOM     23  H   UNL     1      -1.347  -4.181  -4.222  0.00  0.00    -0.090 HD
ATOM     24  H   UNL     1      -2.727  -4.213  -5.122  0.00  0.00    -0.090 HD
ATOM     25  H   UNL     1      -2.728  -3.498  -3.638  0.00  0.00    -0.090 HD
ENDBRANCH   2  22
TORSDOF 5
