REMARK  Name = ZINC09359544
REMARK  6 active torsions:
REMARK  status: ('A' for Active; 'I' for Inactive)
REMARK    1  A    between atoms: C_1  and  C_2
REMARK    2  A    between atoms: C_2  and  C_3
REMARK    3  A    between atoms: C_2  and  C_4
REMARK    4  A    between atoms: C_11  and  N_28
REMARK    5  A    between atoms: C_12  and  C_26
REMARK    6  A    between atoms: C_16  and  N_23
REMARK                            x       y       z     vdW  Elec       q    Type
REMARK                         _______ _______ _______ _____ _____    ______ ____
ROOT
ATOM      1  C   UNL     1      -1.412  -0.526   0.013  0.00  0.00    +0.074 A 
ATOM      2  C   UNL     1      -1.989  -1.334  -0.957  0.00  0.00    +0.062 A 
ATOM      3  C   UNL     1      -3.281  -1.589  -0.581  0.00  0.00    +0.223 A 
ATOM      4  N   UNL     1      -3.496  -0.957   0.583  0.00  0.00    -0.246 N 
ATOM      5  H   UNL     1      -4.324  -0.958   1.089  0.00  0.00    +0.192 HD
ATOM      6  N   UNL     1      -2.309  -0.299   0.943  0.00  0.00    -0.175 NA
ATOM      7  O   UNL     1      -4.118  -2.356  -1.322  0.00  0.00    -0.423 OA
ATOM      8  C   UNL     1      -3.586  -3.095  -2.316  0.00  0.00    +0.201 C 
ATOM      9  C   UNL     1      -2.326  -2.929  -2.783  0.00  0.00    +0.110 C 
ATOM     10  C   UNL     1      -1.398  -1.886  -2.223  0.00  0.00    +0.145 C 
ATOM     11  C   UNL     1      -1.136  -0.802  -3.218  0.00  0.00    +0.001 A 
ATOM     12  C   UNL     1      -1.980   0.090  -3.844  0.00  0.00    +0.040 A 
ATOM     13  C   UNL     1      -1.402   0.990  -4.733  0.00  0.00    +0.127 A 
ATOM     14  C   UNL     1      -0.043   0.988  -4.975  0.00  0.00    +0.034 A 
ATOM     15  C   UNL     1       0.812   0.094  -4.350  0.00  0.00    +0.026 A 
ATOM     16  C   UNL     1       0.244  -0.815  -3.456  0.00  0.00    +0.038 A 
ATOM     17  N   UNL     1       0.852  -1.805  -2.704  0.00  0.00    -0.284 N 
ATOM     18  C   UNL     1      -0.037  -2.486  -1.950  0.00  0.00    +0.238 C 
ATOM     19  O   UNL     1       0.209  -3.404  -1.197  0.00  0.00    -0.274 OA
ATOM     20  H   UNL     1       1.805  -1.988  -2.717  0.00  0.00    +0.155 HD
ENDROOT
BRANCH   1  22
ATOM     21  C   UNL     1      -0.019   1.526   0.010  0.00  0.00    +0.014 C 
ATOM     22  C   UNL     1       0.002  -0.004   0.002  0.00  0.00    +0.034 C 
ATOM     23  C   UNL     1       0.742  -0.511   1.242  0.00  0.00    +0.014 C 
ENDBRANCH   1  22
BRANCH  13  24
ATOM     24  N   UNL     1      -2.261   1.970  -5.434  0.00  0.00    +0.056 N 
ATOM     25  O   UNL     1      -3.453   1.982  -5.232  0.00  0.00    -0.126 OA
ATOM     26  O   UNL     1      -1.772   2.758  -6.209  0.00  0.00    -0.126 OA
ENDBRANCH  13  24
BRANCH   8  27
ATOM     27  N   UNL     1      -4.365  -4.071  -2.886  0.00  0.00    -0.328 N 
ATOM     28  H   UNL     1      -5.271  -4.213  -2.572  0.00  0.00    +0.145 HD
ATOM     29  H   UNL     1      -4.008  -4.618  -3.604  0.00  0.00    +0.145 HD
ENDBRANCH   8  27
BRANCH   9  30
ATOM     30  C   UNL     1      -1.862  -3.773  -3.843  0.00  0.00    +0.102 C 
ATOM     31  N   UNL     1      -1.494  -4.443  -4.683  0.00  0.00    -0.191 NA
ENDBRANCH   9  30
TORSDOF 4
