REMARK  Name = ZINC05263542
REMARK  5 active torsions:
REMARK  status: ('A' for Active; 'I' for Inactive)
REMARK    1  A    between atoms: N_9  and  C_12
REMARK    2  A    between atoms: C_12  and  S_13
REMARK    3  A    between atoms: S_13  and  C_14
REMARK    4  A    between atoms: C_17  and  C_20
REMARK    5  A    between atoms: N_18  and  N_19
REMARK                            x       y       z     vdW  Elec       q    Type
REMARK                         _______ _______ _______ _____ _____    ______ ____
ROOT
ATOM      1  S   UNL     1      -2.517   4.470   3.550  0.00  0.00    -0.065 S 
ENDROOT
BRANCH   1   2
ATOM      2  C   UNL     1      -1.749   3.120   2.718  0.00  0.00    +0.210 A 
ATOM      3  N   UNL     1      -1.606   1.899   3.178  0.00  0.00    -0.121 NA
ATOM      4  N   UNL     1      -1.005   1.171   2.305  0.00  0.00    -0.123 NA
ATOM      5  C   UNL     1      -0.722   1.881   1.250  0.00  0.00    +0.255 A 
ATOM      6  N   UNL     1      -1.189   3.147   1.473  0.00  0.00    -0.220 N 
BRANCH   5   7
ATOM      7  C   UNL     1      -0.017   1.395   0.010  0.00  0.00    +0.454 C 
ATOM      8  F   UNL     1       0.002  -0.004   0.002  0.00  0.00    -0.163 F 
ATOM      9  F   UNL     1       1.296   1.879  -0.000  0.00  0.00    -0.163 F 
ATOM     10  F   UNL     1      -0.694   1.858  -1.124  0.00  0.00    -0.163 F 
ENDBRANCH   5   7
BRANCH   6  11
ATOM     11  N   UNL     1      -1.111   4.216   0.626  0.00  0.00    -0.295 N 
ATOM     12  H   UNL     1      -1.920   4.260   0.024  0.00  0.00    +0.163 HD
ATOM     13  H   UNL     1      -0.996   5.076   1.140  0.00  0.00    +0.163 HD
ENDBRANCH   6  11
ENDBRANCH   1   2
BRANCH   1  14
ATOM     14  C   UNL     1      -2.989   3.658   5.098  0.00  0.00    +0.194 C 
BRANCH  14  23
ATOM     15  C   UNL     1       1.809   3.501   8.837  0.00  0.00    +0.001 A 
ATOM     16  C   UNL     1       2.023   2.266   8.254  0.00  0.00    +0.001 A 
ATOM     17  C   UNL     1       1.163   1.791   7.277  0.00  0.00    +0.014 A 
ATOM     18  C   UNL     1       0.081   2.561   6.881  0.00  0.00    +0.049 A 
ATOM     19  C   UNL     1      -0.138   3.821   7.475  0.00  0.00    +0.049 A 
ATOM     20  C   UNL     1       0.730   4.282   8.451  0.00  0.00    +0.014 A 
ATOM     21  C   UNL     1      -1.354   4.364   6.834  0.00  0.00    +0.255 C 
ATOM     22  O   UNL     1      -1.866   5.438   7.080  0.00  0.00    -0.270 OA
ATOM     23  N   UNL     1      -1.800   3.470   5.933  0.00  0.00    -0.224 N 
ATOM     24  C   UNL     1      -1.013   2.380   5.903  0.00  0.00    +0.255 C 
ATOM     25  O   UNL     1      -1.173   1.409   5.191  0.00  0.00    -0.270 OA
ENDBRANCH  14  23
ENDBRANCH   1  14
TORSDOF 5
