REMARK  Name = ZINC22253284
REMARK  6 active torsions:
REMARK  status: ('A' for Active; 'I' for Inactive)
REMARK    1  A    between atoms: C_1  and  C_2
REMARK    2  A    between atoms: C_4  and  C_7
REMARK    3  A    between atoms: C_7  and  N_8
REMARK    4  A    between atoms: N_11  and  C_14
REMARK    5  A    between atoms: C_14  and  C_15
REMARK    6  A    between atoms: C_23  and  C_25
REMARK                            x       y       z     vdW  Elec       q    Type
REMARK                         _______ _______ _______ _____ _____    ______ ____
ROOT
ATOM      1  C   UNL     1      -6.200  -0.298   4.991  0.00  0.00    +0.095 A 
ATOM      2  N   UNL     1      -6.833  -0.344   6.192  0.00  0.00    -0.197 NA
ATOM      3  C   UNL     1      -8.182  -0.466   6.229  0.00  0.00    +0.288 A 
ATOM      4  O   UNL     1      -8.779  -0.505   7.291  0.00  0.00    -0.265 OA
ATOM      5  C   UNL     1      -8.868  -0.552   5.017  0.00  0.00    +0.102 A 
ATOM      6  C   UNL     1      -8.188  -0.508   3.786  0.00  0.00    +0.061 A 
ATOM      7  N   UNL     1      -6.821  -0.376   3.858  0.00  0.00    -0.344 N 
ATOM      8  C   UNL     1      -8.992  -0.604   2.647  0.00  0.00    +0.042 A 
ATOM      9  C   UNL     1     -10.344  -0.732   2.777  0.00  0.00    +0.022 A 
ATOM     10  S   UNL     1     -10.569  -0.723   4.548  0.00  0.00    -0.081 S 
ATOM     11  H   UNL     1      -6.255  -0.338   2.916  0.00  0.00    +0.167 HD
ENDROOT
BRANCH   9  12
ATOM     12  C   UNL     1     -11.367  -0.847   1.716  0.00  0.00    -0.011 A 
ATOM     13  C   UNL     1     -10.988  -0.827   0.372  0.00  0.00    +0.012 A 
ATOM     14  C   UNL     1     -11.946  -0.939  -0.613  0.00  0.00    +0.039 A 
ATOM     15  C   UNL     1     -13.284  -1.061  -0.272  0.00  0.00    +0.123 A 
ATOM     16  C   UNL     1     -13.666  -1.076   1.060  0.00  0.00    +0.039 A 
ATOM     17  C   UNL     1     -12.715  -0.970   2.054  0.00  0.00    +0.012 A 
ATOM     18  F   UNL     1     -14.219  -1.166  -1.242  0.00  0.00    -0.205 F 
ENDBRANCH   9  12
BRANCH   1  19
ATOM     19  C   UNL     1      -4.700  -0.155   4.976  0.00  0.00    -0.003 C 
BRANCH  19  23
ATOM     20  N   UNL     1      -2.804   1.278   1.484  0.00  0.00    -0.299 NA
ATOM     21  C   UNL     1      -2.339   0.003   2.046  0.00  0.00    +0.066 C 
ATOM     22  C   UNL     1      -2.773  -0.095   3.510  0.00  0.00    -0.063 C 
ATOM     23  N   UNL     1      -4.237   0.010   3.592  0.00  0.00    +0.386 N 
ATOM     24  C   UNL     1      -4.702   1.286   3.030  0.00  0.00    -0.063 C 
ATOM     25  C   UNL     1      -4.268   1.384   1.566  0.00  0.00    +0.066 C 
ATOM     26  H   UNL     1      -4.670  -0.804   2.993  0.00  0.00    -0.081 HD
BRANCH  20  27
ATOM     27  C   UNL     1      -2.341   1.444   0.099  0.00  0.00    +0.161 C 
BRANCH  27  31
ATOM     28  C   UNL     1       2.673   0.587  -0.080  0.00  0.00    +0.069 C 
ATOM     29  C   UNL     1       1.312   1.229   0.009  0.00  0.00    +0.081 A 
ATOM     30  C   UNL     1       0.061   0.571  -0.021  0.00  0.00    +0.072 A 
ATOM     31  C   UNL     1      -0.840   1.576   0.084  0.00  0.00    +0.151 A 
ATOM     32  O   UNL     1      -0.134   2.712   0.174  0.00  0.00    -0.358 OA
ATOM     33  N   UNL     1       1.056   2.500   0.128  0.00  0.00    -0.083 NA
ENDBRANCH  27  31
ENDBRANCH  20  27
ENDBRANCH  19  23
ENDBRANCH   1  19
TORSDOF 5
