REMARK  Name = ZINC44714585
REMARK  7 active torsions:
REMARK  status: ('A' for Active; 'I' for Inactive)
REMARK    1  A    between atoms: C_1  and  C_2
REMARK    2  A    between atoms: C_3  and  C_14
REMARK    3  A    between atoms: C_6  and  C_12
REMARK    4  A    between atoms: C_14  and  C_15
REMARK    5  A    between atoms: C_15  and  N_16
REMARK    6  A    between atoms: C_17  and  C_19
REMARK    7  A    between atoms: C_30  and  C_32
REMARK                            x       y       z     vdW  Elec       q    Type
REMARK                         _______ _______ _______ _____ _____    ______ ____
ROOT
ATOM      1  C   UNL     1       2.536   1.647  -6.707  0.00  0.00    +0.100 C 
ATOM      2  C   UNL     1       1.983   0.417  -7.461  0.00  0.00    +0.121 C 
ATOM      3  N   UNL     1       2.825   0.311  -8.675  0.00  0.00    -0.296 N 
ATOM      4  C   UNL     1       4.192   0.643  -8.205  0.00  0.00    +0.115 C 
ATOM      5  C   UNL     1       3.986   1.792  -7.198  0.00  0.00    -0.004 C 
ATOM      6  C   UNL     1       4.956   1.648  -6.029  0.00  0.00    -0.010 C 
ATOM      7  C   UNL     1       6.388   1.854  -6.532  0.00  0.00    -0.082 C 
ATOM      8  N   UNL     1       6.510   3.187  -7.135  0.00  0.00    +0.379 N 
ATOM      9  C   UNL     1       5.642   3.284  -8.315  0.00  0.00    -0.082 C 
ATOM     10  C   UNL     1       4.179   3.139  -7.887  0.00  0.00    -0.010 C 
ATOM     11  C   UNL     1       2.437  -0.013  -9.924  0.00  0.00    +0.249 C 
ATOM     12  O   UNL     1       3.267  -0.150 -10.802  0.00  0.00    -0.270 OA
ATOM     13  H   UNL     1       6.239   3.886  -6.460  0.00  0.00    -0.086 HD
ATOM     14  H   UNL     1       7.468   3.343  -7.410  0.00  0.00    -0.086 HD
ENDROOT
BRANCH  11  15
ATOM     15  C   UNL     1       1.004  -0.202 -10.227  0.00  0.00    +0.073 A 
ATOM     16  C   UNL     1       0.153  -0.761  -9.271  0.00  0.00    +0.036 A 
ATOM     17  C   UNL     1      -1.185  -0.935  -9.560  0.00  0.00    +0.042 A 
ATOM     18  C   UNL     1      -1.686  -0.554 -10.795  0.00  0.00    +0.023 A 
ATOM     19  C   UNL     1      -0.851   0.000 -11.746  0.00  0.00    +0.040 A 
ATOM     20  C   UNL     1       0.491   0.185 -11.469  0.00  0.00    +0.136 A 
ATOM     21  F   UNL     1       1.306   0.733 -12.397  0.00  0.00    -0.205 F 
ATOM     22 CL   UNL     1      -2.243  -1.631  -8.374  0.00  0.00    -0.084 Cl
ENDBRANCH  11  15
BRANCH   1  24
ATOM     23  N   UNL     1       2.372   2.449  -4.373  0.00  0.00    -0.315 N 
ATOM     24  C   UNL     1       2.506   1.409  -5.220  0.00  0.00    +0.218 C 
ATOM     25  O   UNL     1       2.603   0.281  -4.784  0.00  0.00    -0.275 OA
ATOM     26  H   UNL     1       2.294   3.351  -4.721  0.00  0.00    +0.149 HD
BRANCH  23  27
ATOM     27  C   UNL     1       2.344   2.217  -2.927  0.00  0.00    +0.109 C 
BRANCH  27  28
ATOM     28  C   UNL     1       2.184   3.553  -2.199  0.00  0.00    +0.056 C 
BRANCH  28  31
ATOM     29  C   UNL     1       4.642   3.513  -0.304  0.00  0.00    +0.063 C 
ATOM     30  C   UNL     1       3.211   3.296   0.116  0.00  0.00    +0.017 A 
ATOM     31  C   UNL     1       2.155   3.314  -0.711  0.00  0.00    -0.018 A 
ATOM     32  C   UNL     1       0.967   3.060   0.108  0.00  0.00    +0.004 A 
ATOM     33  C   UNL     1      -0.395   2.959  -0.168  0.00  0.00    +0.029 A 
ATOM     34  C   UNL     1      -1.286   2.701   0.870  0.00  0.00    +0.052 A 
ATOM     35  C   UNL     1      -0.810   2.545   2.180  0.00  0.00    +0.021 A 
ATOM     36  C   UNL     1       0.522   2.643   2.453  0.00  0.00    +0.027 A 
ATOM     37  C   UNL     1       1.431   2.900   1.428  0.00  0.00    +0.047 A 
ATOM     38  N   UNL     1       2.798   3.044   1.396  0.00  0.00    -0.358 N 
ATOM     39  H   UNL     1       3.383   2.979   2.167  0.00  0.00    +0.166 HD
BRANCH  34  40
ATOM     40  C   UNL     1      -2.688   2.596   0.601  0.00  0.00    +0.099 C 
ATOM     41  N   UNL     1      -3.800   2.513   0.387  0.00  0.00    -0.191 NA
ENDBRANCH  34  40
ENDBRANCH  28  31
ENDBRANCH  27  28
ENDBRANCH  23  27
ENDBRANCH   1  24
TORSDOF 6
