REMARK  Name = ZINC09636371
REMARK  10 active torsions:
REMARK  status: ('A' for Active; 'I' for Inactive)
REMARK    1  A    between atoms: C_1  and  C_2
REMARK    2  A    between atoms: C_5  and  N_8
REMARK    3  A    between atoms: C_9  and  C_11
REMARK    4  A    between atoms: C_11  and  C_13
REMARK    5  A    between atoms: C_11  and  N_20
REMARK    6  A    between atoms: C_13  and  C_14
REMARK    7  A    between atoms: N_20  and  S_21
REMARK    8  A    between atoms: S_21  and  C_24
REMARK    9  A    between atoms: N_32  and  C_37
REMARK   10  A    between atoms: N_35  and  C_36
REMARK                            x       y       z     vdW  Elec       q    Type
REMARK                         _______ _______ _______ _____ _____    ______ ____
ROOT
ATOM      1  C   UNL     1      -4.297   0.247  -2.133  0.00  0.00    +0.166 C 
ENDROOT
BRANCH   1   3
ATOM      2  N   UNL     1      -2.329   1.106  -0.905  0.00  0.00    -0.311 N 
ATOM      3  C   UNL     1      -2.900   0.811  -2.090  0.00  0.00    +0.232 C 
ATOM      4  O   UNL     1      -2.290   0.998  -3.120  0.00  0.00    -0.274 OA
ATOM      5  H   UNL     1      -2.883   0.936   0.030  0.00  0.00    +0.149 HD
BRANCH   2  10
ATOM      6  C   UNL     1      -2.059   4.086   2.548  0.00  0.00    +0.007 C 
ATOM      7  C   UNL     1      -1.224   3.466   1.425  0.00  0.00    -0.014 C 
ATOM      8  C   UNL     1      -1.167   1.948   1.611  0.00  0.00    +0.005 C 
ATOM      9  C   UNL     1      -0.332   1.329   0.489  0.00  0.00    +0.022 C 
ATOM     10  C   UNL     1      -0.972   1.654  -0.863  0.00  0.00    +0.073 C 
ATOM     11  C   UNL     1      -1.028   3.172  -1.048  0.00  0.00    +0.022 C 
ATOM     12  C   UNL     1      -1.863   3.792   0.074  0.00  0.00    +0.005 C 
ENDBRANCH   2  10
ENDBRANCH   1   3
BRANCH   1  13
ATOM     13  N   UNL     1      -4.686   0.013  -3.526  0.00  0.00    -0.178 NA
ATOM     14  H   UNL     1      -5.256   0.778  -4.074  0.00  0.00    +0.149 HD
BRANCH  13  15
ATOM     15  S   UNL     1      -4.492  -1.488  -4.199  0.00  0.00    +0.059 S 
ATOM     16  O   UNL     1      -5.000  -1.407  -5.523  0.00  0.00    -0.153 OA
ATOM     17  O   UNL     1      -3.158  -1.889  -3.918  0.00  0.00    -0.153 OA
BRANCH  15  18
ATOM     18  C   UNL     1      -5.546  -2.593  -3.321  0.00  0.00    +0.106 A 
ATOM     19  C   UNL     1      -6.876  -2.717  -3.692  0.00  0.00    +0.030 A 
ATOM     20  C   UNL     1      -7.718  -3.578  -3.015  0.00  0.00    +0.028 A 
ATOM     21  C   UNL     1      -7.230  -4.326  -1.955  0.00  0.00    +0.058 A 
ATOM     22  C   UNL     1      -5.881  -4.201  -1.578  0.00  0.00    +0.065 A 
ATOM     23  C   UNL     1      -5.042  -3.333  -2.272  0.00  0.00    +0.043 A 
ATOM     24  C   UNL     1      -5.396  -5.011  -0.447  0.00  0.00    +0.264 A 
ATOM     25  O   UNL     1      -4.239  -4.940  -0.080  0.00  0.00    -0.267 OA
ATOM     26  N   UNL     1      -6.270  -5.833   0.173  0.00  0.00    -0.263 N 
ATOM     27  C   UNL     1      -7.549  -5.917  -0.224  0.00  0.00    +0.332 A 
ATOM     28  O   UNL     1      -8.294  -6.673   0.370  0.00  0.00    -0.246 OA
ATOM     29  N   UNL     1      -8.042  -5.202  -1.249  0.00  0.00    -0.296 N 
ATOM     30  C   UNL     1      -9.450  -5.348  -1.625  0.00  0.00    +0.154 C 
ATOM     31  C   UNL     1      -5.812  -6.649   1.301  0.00  0.00    +0.157 C 
ENDBRANCH  15  18
ENDBRANCH  13  15
ENDBRANCH   1  13
BRANCH   1  32
ATOM     32  C   UNL     1      -5.269   1.241  -1.492  0.00  0.00    +0.065 C 
BRANCH  32  33
ATOM     33  C   UNL     1      -6.649   0.637  -1.449  0.00  0.00    -0.045 A 
ATOM     34  C   UNL     1      -7.558   0.920  -2.451  0.00  0.00    +0.004 A 
ATOM     35  C   UNL     1      -8.823   0.363  -2.413  0.00  0.00    +0.000 A 
ATOM     36  C   UNL     1      -9.181  -0.469  -1.369  0.00  0.00    +0.000 A 
ATOM     37  C   UNL     1      -8.273  -0.747  -0.364  0.00  0.00    +0.000 A 
ATOM     38  C   UNL     1      -7.007  -0.194  -0.404  0.00  0.00    +0.004 A 
ENDBRANCH  32  33
ENDBRANCH   1  32
TORSDOF 7
