REMARK  Name = ZINC39926796
REMARK  5 active torsions:
REMARK  status: ('A' for Active; 'I' for Inactive)
REMARK    1  A    between atoms: C_5  and  C_7
REMARK    2  A    between atoms: C_10  and  S_13
REMARK    3  A    between atoms: N_11  and  N_12
REMARK    4  A    between atoms: S_13  and  C_14
REMARK    5  A    between atoms: C_14  and  C_15
REMARK                            x       y       z     vdW  Elec       q    Type
REMARK                         _______ _______ _______ _____ _____    ______ ____
ROOT
ATOM      1  C   UNL     1       1.340  -2.237  -0.009  0.00  0.00    +0.217 C 
ATOM      2  N   UNL     1       2.465  -2.655   0.838  0.00  0.00    -0.288 N 
ATOM      3  N   UNL     1       2.074  -3.030   1.947  0.00  0.00    -0.183 NA
ATOM      4  C   UNL     1       0.612  -2.935   2.056  0.00  0.00    +0.270 C 
ATOM      5  N   UNL     1       0.137  -2.799   0.656  0.00  0.00    -0.184 NA
ATOM      6  H   UNL     1       3.394  -2.640   0.560  0.00  0.00    +0.184 HD
ENDROOT
BRANCH   1  11
ATOM      7  C   UNL     1       1.785   1.409   0.867  0.00  0.00    +0.000 A 
ATOM      8  C   UNL     1       1.099   2.026  -0.163  0.00  0.00    +0.001 A 
ATOM      9  C   UNL     1       0.490   1.265  -1.142  0.00  0.00    +0.020 A 
ATOM     10  C   UNL     1       0.568  -0.116  -1.093  0.00  0.00    +0.047 A 
ATOM     11  C   UNL     1       1.255  -0.733  -0.063  0.00  0.00    +0.010 A 
ATOM     12  C   UNL     1       1.863   0.029   0.916  0.00  0.00    +0.008 A 
ATOM     13 CL   UNL     1      -0.197  -1.073  -2.323  0.00  0.00    -0.083 Cl
ENDBRANCH   1  11
BRANCH   5  14
ATOM     14  N   UNL     1      -0.211  -4.095   0.095  0.00  0.00    -0.263 NA
ATOM     15  H   UNL     1      -1.083  -4.431   0.476  0.00  0.00    +0.137 HD
ATOM     16  H   UNL     1      -0.247  -4.055  -0.912  0.00  0.00    +0.137 HD
ENDBRANCH   5  14
BRANCH   4  17
ATOM     17  S   UNL     1      -0.065  -4.439   2.810  0.00  0.00    -0.108 S 
BRANCH  17  18
ATOM     18  C   UNL     1       0.355  -4.277   4.567  0.00  0.00    +0.146 C 
BRANCH  18  19
ATOM     19  C   UNL     1      -0.262  -5.415   5.338  0.00  0.00    +0.118 A 
ATOM     20  N   UNL     1      -1.503  -5.396   5.896  0.00  0.00    -0.341 N 
ATOM     21  H   UNL     1      -2.135  -4.660   5.868  0.00  0.00    +0.167 HD
ATOM     22  C   UNL     1      -1.696  -6.617   6.510  0.00  0.00    +0.066 A 
ATOM     23  C   UNL     1      -2.739  -7.183   7.230  0.00  0.00    +0.028 A 
ATOM     24  C   UNL     1      -2.612  -8.464   7.723  0.00  0.00    +0.002 A 
ATOM     25  C   UNL     1      -1.449  -9.190   7.505  0.00  0.00    +0.002 A 
ATOM     26  C   UNL     1      -0.412  -8.649   6.799  0.00  0.00    +0.030 A 
ATOM     27  C   UNL     1      -0.519  -7.352   6.289  0.00  0.00    +0.089 A 
ATOM     28  N   UNL     1       0.312  -6.561   5.563  0.00  0.00    -0.232 NA
ENDBRANCH  18  19
ENDBRANCH  17  18
ENDBRANCH   4  17
TORSDOF 5
