REMARK  Name = ZINC45905976
REMARK  5 active torsions:
REMARK  status: ('A' for Active; 'I' for Inactive)
REMARK    1  A    between atoms: C_1  and  C_2
REMARK    2  A    between atoms: C_15  and  C_17
REMARK    3  A    between atoms: C_17  and  C_19
REMARK    4  A    between atoms: C_17  and  N_20
REMARK    5  A    between atoms: C_21  and  C_23
REMARK                            x       y       z     vdW  Elec       q    Type
REMARK                         _______ _______ _______ _____ _____    ______ ____
ROOT
ATOM      1  C   UNL     1      -0.286   2.564   0.894  0.00  0.00    +0.008 C 
ATOM      2  C   UNL     1      -0.258   1.118   0.394  0.00  0.00    -0.008 C 
ATOM      3  C   UNL     1      -1.687   0.571   0.331  0.00  0.00    +0.022 C 
ATOM      4  C   UNL     1      -2.325   0.631   1.722  0.00  0.00    +0.108 C 
ATOM      5  N   UNL     1      -1.450  -0.058   2.683  0.00  0.00    -0.297 N 
ATOM      6  C   UNL     1      -0.043   0.353   2.757  0.00  0.00    +0.079 C 
ATOM      7  C   UNL     1       0.567   0.262   1.353  0.00  0.00    +0.012 C 
ATOM      8  C   UNL     1       2.014   0.749   1.403  0.00  0.00    +0.005 C 
ATOM      9  C   UNL     1       2.811  -0.150   2.354  0.00  0.00    +0.000 C 
ATOM     10  C   UNL     1       2.197  -0.099   3.754  0.00  0.00    +0.002 C 
ATOM     11  C   UNL     1       0.734  -0.562   3.702  0.00  0.00    +0.023 C 
ATOM     12  C   UNL     1      -1.927  -1.039   3.474  0.00  0.00    +0.236 C 
ATOM     13  O   UNL     1      -1.171  -1.665   4.187  0.00  0.00    -0.274 OA
ENDROOT
BRANCH  12  14
ATOM     14  C   UNL     1      -3.400  -1.359   3.473  0.00  0.00    +0.156 C 
ATOM     15  C   UNL     1      -3.713  -2.314   2.319  0.00  0.00    +0.038 C 
BRANCH  14  16
ATOM     16  N   UNL     1      -3.763  -1.991   4.743  0.00  0.00    -0.300 N 
ATOM     17  C   UNL     1      -5.031  -1.915   5.196  0.00  0.00    +0.251 C 
ATOM     18  O   UNL     1      -5.873  -1.321   4.549  0.00  0.00    -0.270 OA
ATOM     19  H   UNL     1      -3.092  -2.465   5.259  0.00  0.00    +0.150 HD
BRANCH  17  20
ATOM     20  C   UNL     1      -5.394  -2.548   6.467  0.00  0.00    +0.074 A 
ATOM     21  C   UNL     1      -6.627  -2.592   7.100  0.00  0.00    +0.021 A 
ATOM     22  C   UNL     1      -6.660  -3.268   8.296  0.00  0.00    +0.008 A 
ATOM     23  C   UNL     1      -5.520  -3.832   8.766  0.00  0.00    +0.046 A 
ATOM     24  S   UNL     1      -4.369  -3.470   7.597  0.00  0.00    -0.092 S 
ENDBRANCH  17  20
ENDBRANCH  14  16
ENDBRANCH  12  14
TORSDOF 3
