REMARK  Name = ZINC13577203
REMARK  5 active torsions:
REMARK  status: ('A' for Active; 'I' for Inactive)
REMARK    1  A    between atoms: C_1  and  N_2
REMARK    2  A    between atoms: C_4  and  C_27
REMARK    3  A    between atoms: C_6  and  C_19
REMARK    4  A    between atoms: C_19  and  C_21
REMARK    5  A    between atoms: C_31  and  N_33
REMARK                            x       y       z     vdW  Elec       q    Type
REMARK                         _______ _______ _______ _____ _____    ______ ____
ROOT
ATOM      1  C   UNL     1      -0.402   0.839  -2.185  0.00  0.00    +0.106 C 
ATOM      2  N   UNL     1      -0.684   1.634  -0.982  0.00  0.00    -0.287 NA
ATOM      3  C   UNL     1      -0.046   1.030   0.218  0.00  0.00    +0.094 C 
ATOM      4  C   UNL     1      -0.852   1.582   1.415  0.00  0.00    +0.046 C 
ATOM      5  C   UNL     1      -2.231   1.963   0.824  0.00  0.00    +0.103 C 
ATOM      6  C   UNL     1      -2.125   1.626  -0.669  0.00  0.00    +0.136 C 
ATOM      7  C   UNL     1      -2.880   2.614  -1.511  0.00  0.00    +0.005 A 
ATOM      8  C   UNL     1      -2.791   3.977  -1.683  0.00  0.00    +0.027 A 
ATOM      9  C   UNL     1      -3.651   4.624  -2.554  0.00  0.00    +0.041 A 
ATOM     10  C   UNL     1      -4.599   3.896  -3.252  0.00  0.00    +0.022 A 
ATOM     11  C   UNL     1      -4.691   2.530  -3.083  0.00  0.00    +0.025 A 
ATOM     12  C   UNL     1      -3.829   1.872  -2.208  0.00  0.00    +0.039 A 
ATOM     13  N   UNL     1      -3.726   0.519  -1.874  0.00  0.00    -0.283 N 
ATOM     14  C   UNL     1      -2.748   0.292  -0.976  0.00  0.00    +0.243 C 
ATOM     15  O   UNL     1      -2.431  -0.781  -0.507  0.00  0.00    -0.273 OA
ATOM     16 CL   UNL     1      -3.540   6.342  -2.772  0.00  0.00    -0.084 Cl
ATOM     17  H   UNL     1      -4.404  -0.214  -2.334  0.00  0.00    +0.155 HD
ENDROOT
BRANCH   4  18
ATOM     18  C   UNL     1      -1.008   0.522   2.474  0.00  0.00    -0.040 A 
ATOM     19  C   UNL     1      -1.974  -0.458   2.334  0.00  0.00    +0.004 A 
ATOM     20  C   UNL     1      -2.114  -1.434   3.303  0.00  0.00    +0.002 A 
ATOM     21  C   UNL     1      -1.296  -1.423   4.418  0.00  0.00    +0.033 A 
ATOM     22  C   UNL     1      -0.335  -0.441   4.560  0.00  0.00    +0.126 A 
ATOM     23  C   UNL     1      -0.191   0.532   3.588  0.00  0.00    +0.036 A 
BRANCH  22  24
ATOM     24  N   UNL     1       0.541  -0.429   5.754  0.00  0.00    +0.056 N 
ATOM     25  O   UNL     1       1.388   0.436   5.879  0.00  0.00    -0.126 OA
ATOM     26  O   UNL     1       0.414  -1.286   6.610  0.00  0.00    -0.126 OA
ENDBRANCH  22  24
ENDBRANCH   4  18
BRANCH   5  27
ATOM     27  C   UNL     1      -2.493   3.435   1.012  0.00  0.00    +0.171 C 
ATOM     28  O   UNL     1      -1.565   4.213   1.076  0.00  0.00    -0.292 OA
BRANCH  27  29
ATOM     29  C   UNL     1      -3.875   3.929   1.118  0.00  0.00    +0.036 A 
ATOM     30  C   UNL     1      -4.133   5.297   1.293  0.00  0.00    +0.014 A 
ATOM     31  C   UNL     1      -5.450   5.708   1.387  0.00  0.00    +0.020 A 
ATOM     32  C   UNL     1      -6.461   4.767   1.306  0.00  0.00    +0.111 A 
ATOM     33  N   UNL     1      -6.190   3.486   1.141  0.00  0.00    -0.263 NA
ATOM     34  C   UNL     1      -4.954   3.044   1.040  0.00  0.00    +0.122 A 
ENDBRANCH  27  29
ENDBRANCH   5  27
TORSDOF 4
