REMARK  Name = ZINC64008848
REMARK  6 active torsions:
REMARK  status: ('A' for Active; 'I' for Inactive)
REMARK    1  A    between atoms: C_7  and  C_10
REMARK    2  A    between atoms: C_10  and  C_12
REMARK    3  A    between atoms: C_12  and  S_13
REMARK    4  A    between atoms: S_13  and  C_14
REMARK    5  A    between atoms: N_19  and  C_20
REMARK    6  A    between atoms: C_20  and  C_21
REMARK                            x       y       z     vdW  Elec       q    Type
REMARK                         _______ _______ _______ _____ _____    ______ ____
ROOT
ATOM      1  C   UNL     1       0.582  -7.537  -0.014  0.00  0.00    +0.236 C 
ATOM      2  N   UNL     1       1.462  -7.603  -1.193  0.00  0.00    -0.259 N 
ATOM      3  N   UNL     1       2.773  -7.561  -0.703  0.00  0.00    -0.283 N 
ATOM      4  C   UNL     1       2.794  -7.479   0.584  0.00  0.00    +0.178 C 
ATOM      5  N   UNL     1       1.514  -7.458   1.124  0.00  0.00    -0.273 N 
ATOM      6  N   UNL     1       3.957  -7.422   1.340  0.00  0.00    -0.299 N 
ATOM      7  C   UNL     1       5.143  -8.210   0.967  0.00  0.00    +0.136 C 
ATOM      8  C   UNL     1       6.356  -7.273   0.942  0.00  0.00    +0.179 C 
ATOM      9  O   UNL     1       6.429  -6.564   2.181  0.00  0.00    -0.377 OA
ATOM     10  C   UNL     1       5.307  -5.716   2.437  0.00  0.00    +0.179 C 
ATOM     11  C   UNL     1       4.042  -6.568   2.535  0.00  0.00    +0.136 C 
ATOM     12  H   UNL     1       1.189  -7.664  -2.122  0.00  0.00    +0.169 HD
ATOM     13  H   UNL     1       3.566  -7.589  -1.261  0.00  0.00    +0.187 HD
ENDROOT
BRANCH   1  14
ATOM     14  S   UNL     1      -0.464  -6.056  -0.083  0.00  0.00    -0.110 S 
BRANCH  14  15
ATOM     15  C   UNL     1       0.721  -4.688  -0.216  0.00  0.00    +0.151 C 
BRANCH  15  16
ATOM     16  C   UNL     1      -0.026  -3.381  -0.283  0.00  0.00    +0.171 C 
ATOM     17  O   UNL     1      -1.240  -3.373  -0.244  0.00  0.00    -0.291 OA
BRANCH  16  24
ATOM     18  C   UNL     1      -1.405   0.931  -0.537  0.00  0.00    +0.001 A 
ATOM     19  C   UNL     1      -0.368   1.873  -0.636  0.00  0.00    +0.002 A 
ATOM     20  C   UNL     1       0.931   1.507  -0.654  0.00  0.00    +0.026 A 
ATOM     21  C   UNL     1       1.273   0.078  -0.566  0.00  0.00    +0.043 A 
ATOM     22  N   UNL     1       2.418  -0.544  -0.560  0.00  0.00    -0.380 N 
ATOM     23  C   UNL     1       2.185  -1.988  -0.452  0.00  0.00    +0.152 C 
ATOM     24  C   UNL     1       0.684  -2.167  -0.391  0.00  0.00    +0.024 C 
ATOM     25  C   UNL     1       0.154  -0.891  -0.462  0.00  0.00    +0.006 A 
ATOM     26  C   UNL     1      -1.171  -0.398  -0.452  0.00  0.00    +0.010 A 
ATOM     27  H   UNL     1       3.288  -0.119  -0.618  0.00  0.00    +0.160 HD
ENDBRANCH  16  24
ENDBRANCH  15  16
ENDBRANCH  14  15
ENDBRANCH   1  14
BRANCH   5  28
ATOM     28  C   UNL     1       1.159  -7.374   2.542  0.00  0.00    +0.142 C 
BRANCH  28  29
ATOM     29  C   UNL     1       0.916  -8.781   3.092  0.00  0.00    +0.136 C 
ATOM     30  C   UNL     1       0.424  -8.695   4.553  0.00  0.00    +0.035 C 
ATOM     31  C   UNL     1       1.162  -9.888   5.220  0.00  0.00    +0.031 C 
ATOM     32  C   UNL     1       2.497  -9.884   4.434  0.00  0.00    +0.160 C 
ATOM     33  O   UNL     1       2.141  -9.523   3.088  0.00  0.00    -0.375 OA
ENDBRANCH  28  29
ENDBRANCH   5  28
TORSDOF 6
