REMARK  Name = ZINC39693433
REMARK  13 active torsions:
REMARK  status: ('A' for Active; 'I' for Inactive)
REMARK    1  A    between atoms: C_1  and  C_2
REMARK    2  A    between atoms: C_2  and  C_3
REMARK    3  A    between atoms: C_3  and  C_5
REMARK    4  A    between atoms: C_3  and  C_6
REMARK    5  A    between atoms: C_10  and  C_19
REMARK    6  A    between atoms: N_21  and  C_22
REMARK    7  A    between atoms: C_22  and  C_23
REMARK    8  A    between atoms: C_23  and  N_24
REMARK    9  A    between atoms: C_25  and  O_27
REMARK   10  A    between atoms: O_27  and  C_28
REMARK   11  A    between atoms: C_28  and  C_29
REMARK   12  A    between atoms: C_28  and  C_30
REMARK   13  A    between atoms: C_28  and  C_31
REMARK                            x       y       z     vdW  Elec       q    Type
REMARK                         _______ _______ _______ _____ _____    ______ ____
ROOT
ATOM      1  C   UNL     1      -1.378  -2.194  -0.100  0.00  0.00    +0.218 C 
ATOM      2  O   UNL     1      -0.340  -2.803  -0.249  0.00  0.00    -0.275 OA
ATOM      3  N   UNL     1      -2.555  -2.848  -0.145  0.00  0.00    -0.300 N 
ATOM      4  C   UNL     1      -3.916  -2.280   0.007  0.00  0.00    +0.121 C 
ATOM      5  C   UNL     1      -4.774  -3.040  -1.029  0.00  0.00    +0.100 C 
ATOM      6  C   UNL     1      -4.026  -4.363  -1.264  0.00  0.00    -0.004 C 
ATOM      7  C   UNL     1      -2.783  -4.296  -0.366  0.00  0.00    +0.115 C 
ATOM      8  C   UNL     1      -3.607  -4.481  -2.726  0.00  0.00    -0.010 C 
ATOM      9  C   UNL     1      -2.916  -5.829  -2.947  0.00  0.00    -0.082 C 
ATOM     10  N   UNL     1      -3.836  -6.916  -2.592  0.00  0.00    +0.379 N 
ATOM     11  C   UNL     1      -4.161  -6.850  -1.162  0.00  0.00    -0.082 C 
ATOM     12  C   UNL     1      -4.904  -5.545  -0.865  0.00  0.00    -0.010 C 
ATOM     13  H   UNL     1      -4.683  -6.829  -3.132  0.00  0.00    -0.086 HD
ATOM     14  H   UNL     1      -3.401  -7.804  -2.796  0.00  0.00    -0.086 HD
ENDROOT
BRANCH   5  15
ATOM     15  C   UNL     1      -6.151  -3.304  -0.477  0.00  0.00    +0.218 C 
ATOM     16  O   UNL     1      -6.307  -3.461   0.715  0.00  0.00    -0.275 OA
ATOM     17  N   UNL     1      -7.210  -3.365  -1.309  0.00  0.00    -0.314 N 
ATOM     18  H   UNL     1      -7.085  -3.240  -2.263  0.00  0.00    +0.149 HD
BRANCH  17  19
ATOM     19  C   UNL     1      -8.549  -3.622  -0.773  0.00  0.00    +0.123 C 
BRANCH  19  20
ATOM     20  C   UNL     1      -9.562  -3.642  -1.919  0.00  0.00    +0.126 C 
BRANCH  20  21
ATOM     21  N   UNL     1     -10.901  -3.898  -1.383  0.00  0.00    -0.280 N 
ATOM     22  C   UNL     1     -11.960  -3.960  -2.215  0.00  0.00    +0.401 C 
ATOM     23  O   UNL     1     -11.803  -3.803  -3.410  0.00  0.00    -0.226 OA
ATOM     24  H   UNL     1     -11.026  -4.024  -0.429  0.00  0.00    +0.152 HD
BRANCH  22  25
ATOM     25  O   UNL     1     -13.190  -4.196  -1.722  0.00  0.00    -0.445 OA
BRANCH  25  26
ATOM     26  C   UNL     1     -14.266  -4.248  -2.661  0.00  0.00    +0.107 C 
ATOM     27  C   UNL     1     -14.007  -5.367  -3.672  0.00  0.00    +0.055 C 
ATOM     28  C   UNL     1     -15.576  -4.524  -1.921  0.00  0.00    +0.055 C 
ATOM     29  C   UNL     1     -14.367  -2.910  -3.396  0.00  0.00    +0.055 C 
ENDBRANCH  25  26
ENDBRANCH  22  25
ENDBRANCH  20  21
ENDBRANCH  19  20
ENDBRANCH  17  19
ENDBRANCH   5  15
BRANCH   1  30
ATOM     30  C   UNL     1      -1.351  -0.706   0.137  0.00  0.00    +0.072 C 
ATOM     31  C   UNL     1      -2.000  -0.393   1.487  0.00  0.00    +0.017 C 
BRANCH  30  33
ATOM     32  C   UNL     1       0.122   1.309   0.258  0.00  0.00    +0.004 C 
ATOM     33  C   UNL     1       0.099  -0.217   0.143  0.00  0.00    +0.009 C 
ENDBRANCH  30  33
ENDBRANCH   1  30
TORSDOF 8
