REMARK  Name = ZINC36530949
REMARK  12 active torsions:
REMARK  status: ('A' for Active; 'I' for Inactive)
REMARK    1  A    between atoms: C_1  and  C_2
REMARK    2  A    between atoms: C_5  and  S_8
REMARK    3  A    between atoms: S_8  and  C_11
REMARK    4  A    between atoms: C_11  and  N_12
REMARK    5  A    between atoms: C_13  and  C_15
REMARK    6  A    between atoms: C_15  and  C_17
REMARK    7  A    between atoms: C_15  and  N_24
REMARK    8  A    between atoms: C_20  and  O_23
REMARK    9  A    between atoms: N_24  and  C_25
REMARK   10  A    between atoms: C_26  and  C_28
REMARK   11  A    between atoms: C_29  and  O_35
REMARK   12  A    between atoms: C_33  and  O_34
REMARK                            x       y       z     vdW  Elec       q    Type
REMARK                         _______ _______ _______ _____ _____    ______ ____
ROOT
ATOM      1  C   UNL     1       3.256  -4.899   3.568  0.00  0.00    +0.192 C 
ENDROOT
BRANCH   1   2
ATOM      2  C   UNL     1       4.653  -4.333   3.580  0.00  0.00    -0.018 A 
ATOM      3  C   UNL     1       4.854  -2.996   3.866  0.00  0.00    +0.009 A 
ATOM      4  C   UNL     1       6.133  -2.475   3.877  0.00  0.00    +0.046 A 
ATOM      5  C   UNL     1       7.218  -3.296   3.601  0.00  0.00    +0.117 A 
ATOM      6  C   UNL     1       7.014  -4.638   3.315  0.00  0.00    +0.046 A 
ATOM      7  C   UNL     1       5.732  -5.155   3.311  0.00  0.00    +0.009 A 
BRANCH   5   8
ATOM      8  O   UNL     1       8.477  -2.786   3.611  0.00  0.00    -0.507 OA
ATOM      9  H   UNL     1       8.914  -2.832   4.473  0.00  0.00    +0.292 HD
ENDBRANCH   5   8
ENDBRANCH   1   2
BRANCH   1  11
ATOM     10  N   UNL     1       2.903  -4.447   1.162  0.00  0.00    -0.294 N 
ATOM     11  C   UNL     1       2.905  -5.340   2.171  0.00  0.00    +0.239 C 
ATOM     12  O   UNL     1       2.624  -6.500   1.954  0.00  0.00    -0.273 OA
ATOM     13  H   UNL     1       3.128  -3.519   1.336  0.00  0.00    +0.150 HD
BRANCH  10  14
ATOM     14  C   UNL     1       2.561  -4.876  -0.196  0.00  0.00    +0.278 C 
BRANCH  14  15
ATOM     15  S   UNL     1       0.799  -4.573  -0.501  0.00  0.00    +0.013 S 
ATOM     16  O   UNL     1       0.024  -5.052   0.590  0.00  0.00    -0.168 OA
ATOM     17  O   UNL     1       0.465  -4.926  -1.836  0.00  0.00    -0.168 OA
BRANCH  15  22
ATOM     18  C   UNL     1       0.196   1.427  -0.298  0.00  0.00    +0.044 C 
ATOM     19  C   UNL     1       0.347  -0.072  -0.349  0.00  0.00    -0.050 A 
ATOM     20  C   UNL     1       0.631  -0.698  -1.548  0.00  0.00    +0.005 A 
ATOM     21  C   UNL     1       0.769  -2.072  -1.595  0.00  0.00    +0.027 A 
ATOM     22  C   UNL     1       0.624  -2.821  -0.441  0.00  0.00    +0.090 A 
ATOM     23  C   UNL     1       0.341  -2.195   0.758  0.00  0.00    +0.027 A 
ATOM     24  C   UNL     1       0.207  -0.820   0.805  0.00  0.00    +0.005 A 
ENDBRANCH  15  22
ENDBRANCH  14  15
ENDBRANCH  10  14
ENDBRANCH   1  11
BRANCH   1  25
ATOM     25  N   UNL     1       3.187  -6.047   4.476  0.00  0.00    -0.285 N 
ATOM     26  C   UNL     1       3.992  -7.241   4.209  0.00  0.00    +0.133 C 
ATOM     27  C   UNL     1       2.381  -6.005   5.556  0.00  0.00    +0.254 C 
ATOM     28  O   UNL     1       1.713  -5.013   5.777  0.00  0.00    -0.270 OA
BRANCH  27  29
ATOM     29  C   UNL     1       2.311  -7.159   6.467  0.00  0.00    +0.119 A 
ATOM     30  C   UNL     1       3.180  -7.245   7.565  0.00  0.00    +0.133 A 
ATOM     31  C   UNL     1       3.105  -8.335   8.417  0.00  0.00    +0.046 A 
ATOM     32  C   UNL     1       2.178  -9.336   8.188  0.00  0.00    +0.007 A 
ATOM     33  C   UNL     1       1.318  -9.261   7.108  0.00  0.00    +0.046 A 
ATOM     34  C   UNL     1       1.372  -8.177   6.247  0.00  0.00    +0.133 A 
BRANCH  34  35
ATOM     35  O   UNL     1       0.522  -8.102   5.192  0.00  0.00    -0.506 OA
ATOM     36  H   UNL     1       0.861  -8.513   4.385  0.00  0.00    +0.292 HD
ENDBRANCH  34  35
BRANCH  30  37
ATOM     37  O   UNL     1       4.090  -6.265   7.792  0.00  0.00    -0.506 OA
ATOM     38  H   UNL     1       3.766  -5.551   8.357  0.00  0.00    +0.292 HD
ENDBRANCH  30  37
ENDBRANCH  27  29
ENDBRANCH   1  25
TORSDOF 10
