REMARK  Name = ZINC02794162
REMARK  10 active torsions:
REMARK  status: ('A' for Active; 'I' for Inactive)
REMARK    1  A    between atoms: C_1  and  O_2
REMARK    2  A    between atoms: O_2  and  C_3
REMARK    3  A    between atoms: C_6  and  C_9
REMARK    4  A    between atoms: C_12  and  C_33
REMARK    5  A    between atoms: C_16  and  C_19
REMARK    6  A    between atoms: N_21  and  N_22
REMARK    7  A    between atoms: N_22  and  C_23
REMARK    8  A    between atoms: C_23  and  N_25
REMARK    9  A    between atoms: N_25  and  C_26
REMARK   10  A    between atoms: C_26  and  C_27
REMARK                            x       y       z     vdW  Elec       q    Type
REMARK                         _______ _______ _______ _____ _____    ______ ____
ROOT
ATOM      1  C   UNL     1       1.072  -1.995  -1.055  0.00  0.00    +0.104 C 
ATOM      2  C   UNL     1       0.756  -0.507  -1.237  0.00  0.00    +0.063 C 
ATOM      3  C   UNL     1       0.002  -0.004   0.002  0.00  0.00    +0.215 C 
ATOM      4  N   UNL     1       0.711  -0.498   1.189  0.00  0.00    -0.238 N 
ATOM      5  C   UNL     1       1.635  -1.484   1.164  0.00  0.00    +0.130 A 
ATOM      6  C   UNL     1       2.074  -1.668   2.469  0.00  0.00    +0.097 A 
ATOM      7  C   UNL     1       1.367  -0.743   3.275  0.00  0.00    +0.149 A 
ATOM      8  N   UNL     1       0.566  -0.059   2.505  0.00  0.00    -0.177 NA
ATOM      9  N   UNL     1       2.045  -2.162   0.035  0.00  0.00    -0.322 N 
ATOM     10  H   UNL     1       2.950  -2.766  -0.123  0.00  0.00    +0.148 HD
ENDROOT
BRANCH   1  14
ATOM     11  C   UNL     1       2.711  -3.558  -4.679  0.00  0.00    +0.120 A 
ATOM     12  C   UNL     1       1.374  -3.766  -4.375  0.00  0.00    +0.046 A 
ATOM     13  C   UNL     1       0.846  -3.260  -3.202  0.00  0.00    +0.009 A 
ATOM     14  C   UNL     1       1.650  -2.546  -2.333  0.00  0.00    -0.027 A 
ATOM     15  C   UNL     1       2.982  -2.332  -2.636  0.00  0.00    +0.009 A 
ATOM     16  C   UNL     1       3.516  -2.841  -3.804  0.00  0.00    +0.046 A 
BRANCH  11  18
ATOM     17  C   UNL     1       4.617  -3.801  -6.079  0.00  0.00    +0.277 C 
ATOM     18  O   UNL     1       3.232  -4.054  -5.831  0.00  0.00    -0.495 OA
ENDBRANCH  11  18
ENDBRANCH   1  14
BRANCH   6  19
ATOM     19  C   UNL     1       3.079  -2.636   2.925  0.00  0.00    +0.265 C 
ATOM     20  O   UNL     1       3.615  -3.379   2.124  0.00  0.00    -0.268 OA
ATOM     21  N   UNL     1       3.407  -2.702   4.230  0.00  0.00    -0.231 N 
ATOM     22  H   UNL     1       2.923  -2.030   4.954  0.00  0.00    +0.173 HD
BRANCH  21  23
ATOM     23  N   UNL     1       4.366  -3.626   4.665  0.00  0.00    -0.246 N 
ATOM     24  H   UNL     1       4.851  -4.298   3.941  0.00  0.00    +0.172 HD
BRANCH  23  25
ATOM     25  C   UNL     1       4.695  -3.692   5.971  0.00  0.00    +0.147 C 
ATOM     26  S   UNL     1       5.866  -4.821   6.503  0.00  0.00    -0.017 S 
BRANCH  25  27
ATOM     27  N   UNL     1       4.101  -2.869   6.857  0.00  0.00    -0.318 N 
ATOM     28  H   UNL     1       3.348  -2.143   6.516  0.00  0.00    +0.148 HD
BRANCH  27  29
ATOM     29  C   UNL     1       4.458  -2.941   8.276  0.00  0.00    +0.177 C 
BRANCH  29  30
ATOM     30  C   UNL     1       3.658  -1.923   9.048  0.00  0.00    +0.122 A 
ATOM     31  C   UNL     1       2.454  -2.132   9.611  0.00  0.00    +0.046 A 
ATOM     32  C   UNL     1       2.074  -0.918  10.228  0.00  0.00    +0.041 A 
ATOM     33  C   UNL     1       3.069  -0.040  10.005  0.00  0.00    +0.195 A 
ATOM     34  O   UNL     1       4.027  -0.656   9.295  0.00  0.00    -0.466 OA
ENDBRANCH  29  30
ENDBRANCH  27  29
ENDBRANCH  25  27
ENDBRANCH  23  25
ENDBRANCH  21  23
ENDBRANCH   6  19
BRANCH   3  35
ATOM     35  C   UNL     1      -0.019   1.526   0.010  0.00  0.00    +0.412 C 
ATOM     36  F   UNL     1       1.294   2.010   0.001  0.00  0.00    -0.168 F 
ATOM     37  F   UNL     1      -0.695   1.989  -1.123  0.00  0.00    -0.168 F 
ATOM     38  F   UNL     1      -0.673   1.977   1.161  0.00  0.00    -0.168 F 
ENDBRANCH   3  35
TORSDOF 9
