REMARK  Name = ZINC12191625
REMARK  7 active torsions:
REMARK  status: ('A' for Active; 'I' for Inactive)
REMARK    1  A    between atoms: C_1  and  N_58
REMARK    2  A    between atoms: C_2  and  C_3
REMARK    3  A    between atoms: C_2  and  N_58
REMARK    4  A    between atoms: C_9  and  C_10
REMARK    5  A    between atoms: C_9  and  N_58
REMARK    6  A    between atoms: C_13  and  C_18
REMARK    7  A    between atoms: N_20  and  C_21
REMARK                            x       y       z     vdW  Elec       q    Type
REMARK                         _______ _______ _______ _____ _____    ______ ____
ROOT
ATOM      1  C   UNL     1       2.336   1.415   0.316  0.00  0.00    +0.003 A 
ATOM      2  C   UNL     1       2.423   0.060   0.290  0.00  0.00    +0.020 A 
ATOM      3  C   UNL     1       1.286  -0.718   0.505  0.00  0.00    +0.020 A 
ATOM      4  C   UNL     1       0.069  -0.084   0.744  0.00  0.00    +0.101 A 
ATOM      5  C   UNL     1       0.028   1.334   0.760  0.00  0.00    +0.261 A 
ATOM      6  O   UNL     1      -1.025   1.914   0.962  0.00  0.00    -0.267 OA
ATOM      7  N   UNL     1       1.156   2.038   0.547  0.00  0.00    -0.327 N 
ATOM      8  H   UNL     1       1.123   3.008   0.559  0.00  0.00    +0.169 HD
ENDROOT
BRANCH   4   9
ATOM      9  C   UNL     1      -1.152  -0.870   0.975  0.00  0.00    +0.250 C 
ATOM     10  O   UNL     1      -1.126  -2.081   0.866  0.00  0.00    -0.270 OA
ATOM     11  N   UNL     1      -2.301  -0.249   1.307  0.00  0.00    -0.300 N 
ATOM     12  H   UNL     1      -2.341   0.720   1.326  0.00  0.00    +0.150 HD
BRANCH  11  13
ATOM     13  C   UNL     1      -3.490  -1.037   1.640  0.00  0.00    +0.135 C 
ATOM     14  C   UNL     1      -4.280  -1.339   0.390  0.00  0.00    -0.015 A 
ATOM     15  C   UNL     1      -3.963  -2.028  -0.761  0.00  0.00    +0.006 A 
ATOM     16  C   UNL     1      -4.899  -2.156  -1.772  0.00  0.00    +0.000 A 
ATOM     17  C   UNL     1      -6.154  -1.592  -1.630  0.00  0.00    +0.001 A 
ATOM     18  C   UNL     1      -6.480  -0.901  -0.482  0.00  0.00    +0.009 A 
ATOM     19  C   UNL     1      -5.541  -0.769   0.542  0.00  0.00    -0.012 A 
ATOM     20  C   UNL     1      -5.621  -0.091   1.860  0.00  0.00    -0.012 A 
ATOM     21  C   UNL     1      -4.410  -0.238   2.531  0.00  0.00    -0.015 A 
ATOM     22  C   UNL     1      -4.239   0.309   3.785  0.00  0.00    +0.006 A 
ATOM     23  C   UNL     1      -5.273   1.008   4.383  0.00  0.00    +0.000 A 
ATOM     24  C   UNL     1      -6.480   1.159   3.724  0.00  0.00    +0.001 A 
ATOM     25  C   UNL     1      -6.660   0.615   2.469  0.00  0.00    +0.009 A 
ENDBRANCH  11  13
ENDBRANCH   4   9
BRANCH   1  26
ATOM     26  C   UNL     1       3.575   2.240   0.081  0.00  0.00    -0.025 C 
BRANCH  26  28
ATOM     27  C   UNL     1       4.535   3.951  -1.337  0.00  0.00    -0.095 C 
ATOM     28  N   UNL     1       3.402   3.018  -1.164  0.00  0.00    +0.384 N 
ATOM     29  H   UNL     1       2.532   3.558  -1.101  0.00  0.00    -0.081 HD
BRANCH  28  30
ATOM     30  C   UNL     1       3.319   2.104  -2.322  0.00  0.00    -0.043 C 
BRANCH  30  31
ATOM     31  C   UNL     1       2.925   2.899  -3.541  0.00  0.00    -0.064 A 
ATOM     32  C   UNL     1       1.589   3.073  -3.850  0.00  0.00    +0.002 A 
ATOM     33  C   UNL     1       1.228   3.806  -4.965  0.00  0.00    +0.000 A 
ATOM     34  C   UNL     1       2.203   4.356  -5.776  0.00  0.00    +0.000 A 
ATOM     35  C   UNL     1       3.539   4.178  -5.470  0.00  0.00    +0.000 A 
ATOM     36  C   UNL     1       3.900   3.449  -4.352  0.00  0.00    +0.002 A 
ENDBRANCH  30  31
ENDBRANCH  28  30
ENDBRANCH  26  28
ENDBRANCH   1  26
TORSDOF 6
