REMARK  Name = ZINC13692194
REMARK  11 active torsions:
REMARK  status: ('A' for Active; 'I' for Inactive)
REMARK    1  A    between atoms: C_1  and  C_2
REMARK    2  A    between atoms: C_2  and  O_3
REMARK    3  A    between atoms: O_3  and  C_4
REMARK    4  A    between atoms: C_7  and  N_24
REMARK    5  A    between atoms: C_9  and  S_10
REMARK    6  A    between atoms: S_10  and  N_13
REMARK    7  A    between atoms: N_13  and  C_14
REMARK    8  A    between atoms: C_14  and  C_15
REMARK    9  A    between atoms: C_15  and  C_16
REMARK   10  A    between atoms: C_21  and  O_22
REMARK   11  A    between atoms: O_22  and  C_23
REMARK                            x       y       z     vdW  Elec       q    Type
REMARK                         _______ _______ _______ _____ _____    ______ ____
ROOT
ATOM      1  C   UNL     1      -1.236   3.137   0.031  0.00  0.00    +0.147 A 
ATOM      2  C   UNL     1      -1.217   1.750   0.017  0.00  0.00    +0.049 A 
ATOM      3  C   UNL     1      -0.013   1.076   0.008  0.00  0.00    +0.029 A 
ATOM      4  C   UNL     1       1.180   1.787   0.000  0.00  0.00    +0.061 A 
ATOM      5  C   UNL     1       1.161   3.175   0.008  0.00  0.00    +0.057 A 
ATOM      6  C   UNL     1      -0.045   3.848   0.023  0.00  0.00    +0.148 A 
ENDROOT
BRANCH   4   7
ATOM      7  N   UNL     1       2.403   1.103  -0.015  0.00  0.00    -0.144 N 
ATOM      8  C   UNL     1       3.577   1.576   0.430  0.00  0.00    +0.240 C 
ATOM      9  O   UNL     1       3.653   2.679   0.929  0.00  0.00    -0.274 OA
ATOM     10  C   UNL     1       4.793   0.709   0.300  0.00  0.00    +0.122 C 
ATOM     11  C   UNL     1       4.337  -0.759   0.090  0.00  0.00    +0.198 C 
ATOM     12  S   UNL     1       2.659  -0.446  -0.597  0.00  0.00    +0.052 S 
ATOM     13  O   UNL     1       1.688  -1.262   0.043  0.00  0.00    -0.155 OA
ATOM     14  O   UNL     1       2.704  -0.322  -2.012  0.00  0.00    -0.155 OA
ENDBRANCH   4   7
BRANCH   6  15
ATOM     15  S   UNL     1      -0.070   5.610   0.033  0.00  0.00    +0.062 S 
ATOM     16  O   UNL     1      -0.962   5.997   1.069  0.00  0.00    -0.153 OA
ATOM     17  O   UNL     1       1.285   6.035  -0.005  0.00  0.00    -0.153 OA
BRANCH  15  18
ATOM     18  N   UNL     1      -0.760   6.097  -1.392  0.00  0.00    -0.190 NA
ATOM     19  H   UNL     1      -0.234   6.591  -2.041  0.00  0.00    +0.148 HD
BRANCH  18  20
ATOM     20  C   UNL     1      -2.163   5.783  -1.672  0.00  0.00    +0.110 C 
BRANCH  20  21
ATOM     21  C   UNL     1      -2.654   6.641  -2.840  0.00  0.00    +0.055 C 
BRANCH  21  22
ATOM     22  C   UNL     1      -4.098   6.318  -3.128  0.00  0.00    -0.004 A 
ATOM     23  C   UNL     1      -4.418   5.397  -4.107  0.00  0.00    +0.007 A 
ATOM     24  C   UNL     1      -5.742   5.097  -4.369  0.00  0.00    +0.000 A 
ATOM     25  C   UNL     1      -6.749   5.724  -3.659  0.00  0.00    +0.004 A 
ATOM     26  C   UNL     1      -6.434   6.649  -2.682  0.00  0.00    +0.046 A 
ATOM     27  C   UNL     1      -5.106   6.948  -2.414  0.00  0.00    +0.123 A 
BRANCH  27  28
ATOM     28  O   UNL     1      -4.794   7.858  -1.454  0.00  0.00    -0.495 OA
ATOM     29  C   UNL     1      -5.884   8.468  -0.759  0.00  0.00    +0.277 C 
ENDBRANCH  27  28
ENDBRANCH  21  22
ENDBRANCH  20  21
ENDBRANCH  18  20
ENDBRANCH  15  18
ENDBRANCH   6  15
BRANCH   1  30
ATOM     30  O   UNL     1      -2.423   3.800   0.046  0.00  0.00    -0.490 OA
BRANCH  30  32
ATOM     31  C   UNL     1      -4.837   3.920   0.070  0.00  0.00    +0.048 C 
ATOM     32  C   UNL     1      -3.611   3.006   0.054  0.00  0.00    +0.226 C 
ENDBRANCH  30  32
ENDBRANCH   1  30
TORSDOF 9
