REMARK  Name = ZINC44785577
REMARK  4 active torsions:
REMARK  status: ('A' for Active; 'I' for Inactive)
REMARK    1  A    between atoms: C_1  and  C_2
REMARK    2  A    between atoms: C_8  and  C_10
REMARK    3  A    between atoms: C_10  and  C_16
REMARK    4  A    between atoms: N_17  and  O_18
REMARK                            x       y       z     vdW  Elec       q    Type
REMARK                         _______ _______ _______ _____ _____    ______ ____
ROOT
ATOM      1  C   UNL     1       2.488  -0.883   2.775  0.00  0.00    +0.109 C 
ATOM      2  C   UNL     1       1.609  -0.379   3.924  0.00  0.00    +0.052 C 
ATOM      3  C   UNL     1       1.773   1.137   4.055  0.00  0.00    +0.161 C 
ATOM      4  O   UNL     1       3.151   1.449   4.271  0.00  0.00    -0.380 OA
ATOM      5  C   UNL     1       4.015   1.044   3.207  0.00  0.00    +0.161 C 
ATOM      6  C   UNL     1       3.941  -0.476   3.042  0.00  0.00    +0.052 C 
ENDROOT
BRANCH   1  13
ATOM      7  C   UNL     1       0.592  -0.633  -1.223  0.00  0.00    +0.028 C 
ATOM      8  C   UNL     1       2.071  -0.293  -1.028  0.00  0.00    +0.073 C 
ATOM      9  C   UNL     1       2.925  -1.054  -2.064  0.00  0.00    +0.024 C 
ATOM     10  C   UNL     1       4.185  -1.452  -1.250  0.00  0.00    +0.021 C 
ATOM     11  C   UNL     1       3.576  -1.735   0.146  0.00  0.00    +0.108 C 
ATOM     12  N   UNL     1       2.511  -0.724   0.307  0.00  0.00    -0.298 N 
ATOM     13  C   UNL     1       2.024  -0.271   1.479  0.00  0.00    +0.229 C 
ATOM     14  O   UNL     1       1.211   0.629   1.490  0.00  0.00    -0.275 OA
ENDBRANCH   1  13
BRANCH   1  15
ATOM     15  C   UNL     1       2.393  -2.385   2.686  0.00  0.00    +0.147 C 
ATOM     16  N   UNL     1       3.438  -3.112   2.906  0.00  0.00    -0.076 NA
ATOM     17  N   UNL     1       1.193  -2.981   2.371  0.00  0.00    -0.343 N 
ATOM     18  H   UNL     1       0.392  -2.442   2.282  0.00  0.00    +0.144 HD
ATOM     19  H   UNL     1       1.149  -3.941   2.237  0.00  0.00    +0.144 HD
BRANCH  16  20
ATOM     20  O   UNL     1       3.349  -4.523   2.823  0.00  0.00    -0.408 OA
ATOM     21  H   UNL     1       4.181  -4.981   3.003  0.00  0.00    +0.328 HD
ENDBRANCH  16  20
ENDBRANCH   1  15
TORSDOF 3
