REMARK  Name = ZINC02962308
REMARK  11 active torsions:
REMARK  status: ('A' for Active; 'I' for Inactive)
REMARK    1  A    between atoms: C_1  and  C_2
REMARK    2  A    between atoms: C_2  and  O_3
REMARK    3  A    between atoms: O_3  and  C_4
REMARK    4  A    between atoms: C_7  and  N_10
REMARK    5  A    between atoms: C_11  and  C_13
REMARK    6  A    between atoms: C_14  and  N_35
REMARK    7  A    between atoms: C_15  and  C_26
REMARK    8  A    between atoms: C_17  and  N_18
REMARK    9  A    between atoms: N_18  and  C_19
REMARK   10  A    between atoms: C_24  and  C_25
REMARK   11  A    between atoms: C_26  and  C_28
REMARK                            x       y       z     vdW  Elec       q    Type
REMARK                         _______ _______ _______ _____ _____    ______ ____
ROOT
ATOM      1  C   UNL     1       1.095  -8.294  -3.066  0.00  0.00    +0.087 A 
ATOM      2  C   UNL     1       0.132  -8.652  -4.008  0.00  0.00    +0.057 A 
ATOM      3  C   UNL     1       0.107 -10.000  -4.362  0.00  0.00    +0.082 A 
ATOM      4  S   UNL     1       1.417 -10.689  -3.371  0.00  0.00    -0.068 S 
ATOM      5  C   UNL     1       1.932  -9.300  -2.580  0.00  0.00    +0.084 A 
ENDROOT
BRANCH   1   7
ATOM      6  N   UNL     1       0.531  -6.486  -1.533  0.00  0.00    -0.281 N 
ATOM      7  C   UNL     1       1.227  -6.909  -2.607  0.00  0.00    +0.252 C 
ATOM      8  O   UNL     1       1.966  -6.141  -3.195  0.00  0.00    -0.270 OA
ATOM      9  H   UNL     1      -0.005  -7.114  -1.024  0.00  0.00    +0.155 HD
BRANCH   6  13
ATOM     10  C   UNL     1       0.683  -2.476  -0.399  0.00  0.00    +0.121 A 
ATOM     11  C   UNL     1      -0.494  -3.194  -0.252  0.00  0.00    +0.047 A 
ATOM     12  C   UNL     1      -0.545  -4.522  -0.627  0.00  0.00    +0.027 A 
ATOM     13  C   UNL     1       0.582  -5.139  -1.153  0.00  0.00    +0.034 A 
ATOM     14  C   UNL     1       1.761  -4.419  -1.300  0.00  0.00    +0.027 A 
ATOM     15  C   UNL     1       1.809  -3.090  -0.929  0.00  0.00    +0.047 A 
BRANCH  10  16
ATOM     16  O   UNL     1       0.733  -1.169  -0.028  0.00  0.00    -0.492 OA
BRANCH  16  18
ATOM     17  C   UNL     1      -0.215   0.866   0.866  0.00  0.00    +0.048 C 
ATOM     18  C   UNL     1      -0.463  -0.601   0.510  0.00  0.00    +0.225 C 
ENDBRANCH  16  18
ENDBRANCH  10  16
ENDBRANCH   6  13
ENDBRANCH   1   7
BRANCH   2  19
ATOM     19  N   UNL     1      -0.744  -7.729  -4.556  0.00  0.00    -0.356 N 
ATOM     20  H   UNL     1      -0.699  -6.798  -4.286  0.00  0.00    +0.142 HD
ATOM     21  H   UNL     1      -1.402  -8.013  -5.209  0.00  0.00    +0.142 HD
ENDBRANCH   2  19
BRANCH   5  22
ATOM     22  N   UNL     1       2.947  -9.181  -1.660  0.00  0.00    -0.308 N 
ATOM     23  H   UNL     1       3.206  -8.305  -1.334  0.00  0.00    +0.153 HD
BRANCH  22  24
ATOM     24  C   UNL     1       3.605 -10.323  -1.194  0.00  0.00    +0.035 A 
ATOM     25  C   UNL     1       2.940 -11.542  -1.152  0.00  0.00    +0.023 A 
ATOM     26  C   UNL     1       3.594 -12.668  -0.692  0.00  0.00    +0.002 A 
ATOM     27  C   UNL     1       4.909 -12.582  -0.272  0.00  0.00    +0.000 A 
ATOM     28  C   UNL     1       5.574 -11.371  -0.313  0.00  0.00    +0.005 A 
ATOM     29  C   UNL     1       4.928 -10.242  -0.778  0.00  0.00    -0.029 A 
ATOM     30  C   UNL     1       5.656  -8.923  -0.828  0.00  0.00    +0.045 C 
ENDBRANCH  22  24
ENDBRANCH   5  22
BRANCH   3  31
ATOM     31  C   UNL     1      -0.742 -10.655  -5.275  0.00  0.00    +0.202 C 
ATOM     32  O   UNL     1      -1.515 -10.007  -5.961  0.00  0.00    -0.286 OA
BRANCH  31  33
ATOM     33  C   UNL     1      -0.697 -12.128  -5.403  0.00  0.00    +0.023 A 
ATOM     34  C   UNL     1      -0.264 -12.911  -4.331  0.00  0.00    +0.013 A 
ATOM     35  C   UNL     1      -0.224 -14.284  -4.456  0.00  0.00    +0.021 A 
ATOM     36  C   UNL     1      -0.611 -14.886  -5.642  0.00  0.00    +0.041 A 
ATOM     37  C   UNL     1      -1.041 -14.114  -6.709  0.00  0.00    +0.021 A 
ATOM     38  C   UNL     1      -1.091 -12.741  -6.594  0.00  0.00    +0.013 A 
ATOM     39 CL   UNL     1      -0.558 -16.614  -5.792  0.00  0.00    -0.084 Cl
ENDBRANCH  31  33
ENDBRANCH   3  31
TORSDOF 9
