REMARK  Name = ZINC50867596
REMARK  5 active torsions:
REMARK  status: ('A' for Active; 'I' for Inactive)
REMARK    1  A    between atoms: C_1  and  N_2
REMARK    2  A    between atoms: C_7  and  C_9
REMARK    3  A    between atoms: C_11  and  O_17
REMARK    4  A    between atoms: C_12  and  O_16
REMARK    5  A    between atoms: O_17  and  C_18
REMARK                            x       y       z     vdW  Elec       q    Type
REMARK                         _______ _______ _______ _____ _____    ______ ____
ROOT
ATOM      1  C   UNL     1      -0.018   1.461   0.010  0.00  0.00    +0.127 C 
ATOM      2  N   UNL     1       0.002  -0.004   0.002  0.00  0.00    -0.332 N 
ATOM      3  C   UNL     1      -1.188  -0.713   0.010  0.00  0.00    +0.126 A 
ATOM      4  C   UNL     1      -1.181  -2.110   0.008  0.00  0.00    +0.012 A 
ATOM      5  C   UNL     1      -2.389  -2.779   0.016  0.00  0.00    +0.024 A 
ATOM      6  N   UNL     1      -3.515  -2.078   0.025  0.00  0.00    -0.343 N 
ATOM      7  C   UNL     1      -3.493  -0.753   0.027  0.00  0.00    +0.141 A 
ATOM      8  N   UNL     1      -2.353  -0.075   0.024  0.00  0.00    -0.214 NA
ATOM      9  C   UNL     1      -2.147  -4.271   0.013  0.00  0.00    +0.054 C 
ATOM     10  C   UNL     1      -0.679  -4.442  -0.435  0.00  0.00    +0.011 C 
ATOM     11  C   UNL     1      -0.043  -3.103  -0.002  0.00  0.00    +0.041 C 
ATOM     12  H   UNL     1       0.849  -0.478  -0.009  0.00  0.00    +0.147 HD
ATOM     13  H   UNL     1      -4.366  -2.543   0.031  0.00  0.00    +0.167 HD
ENDROOT
BRANCH   7  14
ATOM     14  C   UNL     1      -4.775  -0.010   0.037  0.00  0.00    +0.022 A 
ATOM     15  C   UNL     1      -4.774   1.385   0.032  0.00  0.00    +0.061 A 
ATOM     16  C   UNL     1      -5.972   2.075   0.041  0.00  0.00    +0.163 A 
ATOM     17  C   UNL     1      -7.178   1.377   0.055  0.00  0.00    +0.173 A 
ATOM     18  C   UNL     1      -7.178  -0.011   0.059  0.00  0.00    +0.064 A 
ATOM     19  C   UNL     1      -5.984  -0.704   0.045  0.00  0.00    +0.030 A 
ATOM     20 BR   UNL     1      -8.817  -0.954   0.077  0.00  0.00    -0.046 Br
BRANCH  17  21
ATOM     21  O   UNL     1      -8.355   2.056   0.064  0.00  0.00    -0.503 OA
ATOM     22  H   UNL     1      -8.704   2.250  -0.817  0.00  0.00    +0.292 HD
ENDBRANCH  17  21
BRANCH  16  23
ATOM     23  O   UNL     1      -5.974   3.435   0.037  0.00  0.00    -0.491 OA
ATOM     24  C   UNL     1      -4.702   4.085   0.024  0.00  0.00    +0.277 C 
ENDBRANCH  16  23
ENDBRANCH   7  14
TORSDOF 3
