REMARK  Name = ZINC60106737
REMARK  8 active torsions:
REMARK  status: ('A' for Active; 'I' for Inactive)
REMARK    1  A    between atoms: C_5  and  S_7
REMARK    2  A    between atoms: S_7  and  C_8
REMARK    3  A    between atoms: C_11  and  N_14
REMARK    4  A    between atoms: C_15  and  C_17
REMARK    5  A    between atoms: C_17  and  C_18
REMARK    6  A    between atoms: C_18  and  C_19
REMARK    7  A    between atoms: C_19  and  C_20
REMARK    8  A    between atoms: C_20  and  C_21
REMARK                            x       y       z     vdW  Elec       q    Type
REMARK                         _______ _______ _______ _____ _____    ______ ____
ROOT
ATOM      1  N   UNL     1      -4.359  -4.382  -0.237  0.00  0.00    -0.285 N 
ATOM      2  C   UNL     1      -4.624  -5.694  -0.086  0.00  0.00    +0.217 C 
ATOM      3  O   UNL     1      -3.713  -6.491   0.003  0.00  0.00    -0.275 OA
ATOM      4  H   UNL     1      -5.085  -3.753  -0.375  0.00  0.00    +0.155 HD
ENDROOT
BRANCH   1   8
ATOM      5  C   UNL     1      -0.418  -3.022  -0.111  0.00  0.00    +0.013 A 
ATOM      6  C   UNL     1      -1.441  -2.237   0.407  0.00  0.00    +0.017 A 
ATOM      7  C   UNL     1      -2.745  -2.687   0.365  0.00  0.00    +0.024 A 
ATOM      8  C   UNL     1      -3.035  -3.925  -0.195  0.00  0.00    +0.033 A 
ATOM      9  C   UNL     1      -2.013  -4.710  -0.712  0.00  0.00    +0.024 A 
ATOM     10  C   UNL     1      -0.709  -4.257  -0.676  0.00  0.00    +0.017 A 
BRANCH   5  11
ATOM     11  S   UNL     1       1.247  -2.447  -0.058  0.00  0.00    -0.088 S 
BRANCH  11  16
ATOM     12  C   UNL     1       1.594  -4.475   3.398  0.00  0.00    +0.001 A 
ATOM     13  C   UNL     1       2.934  -4.320   3.706  0.00  0.00    +0.001 A 
ATOM     14  C   UNL     1       3.760  -3.594   2.867  0.00  0.00    +0.021 A 
ATOM     15  C   UNL     1       3.249  -3.022   1.718  0.00  0.00    +0.055 A 
ATOM     16  C   UNL     1       1.903  -3.176   1.406  0.00  0.00    +0.031 A 
ATOM     17  C   UNL     1       1.077  -3.906   2.251  0.00  0.00    +0.016 A 
ATOM     18 CL   UNL     1       4.287  -2.110   0.666  0.00  0.00    -0.082 Cl
ENDBRANCH  11  16
ENDBRANCH   5  11
ENDBRANCH   1   8
BRANCH   2  19
ATOM     19  C   UNL     1      -6.052  -6.173  -0.027  0.00  0.00    +0.096 C 
BRANCH  19  20
ATOM     20  C   UNL     1      -6.073  -7.693   0.147  0.00  0.00    +0.009 C 
BRANCH  20  21
ATOM     21  C   UNL     1      -7.523  -8.179   0.206  0.00  0.00    +0.002 C 
BRANCH  21  22
ATOM     22  C   UNL     1      -7.545  -9.699   0.381  0.00  0.00    +0.016 C 
BRANCH  22  23
ATOM     23  C   UNL     1      -8.994 -10.184   0.440  0.00  0.00    +0.069 C 
ATOM     24  C   UNL     1      -9.059 -11.721   0.573  0.00  0.00    +0.108 C 
ATOM     25  C   UNL     1     -10.146 -12.211   1.534  0.00  0.00    +0.105 C 
ATOM     26  C   UNL     1     -10.955 -11.070   2.187  0.00  0.00    +0.093 C 
ATOM     27  S   UNL     1      -9.809  -9.648   2.006  0.00  0.00    -0.154 S 
ATOM     28  N   UNL     1      -9.400 -12.923   2.584  0.00  0.00    -0.294 N 
ATOM     29  C   UNL     1      -8.091 -12.870   2.302  0.00  0.00    +0.300 C 
ATOM     30  O   UNL     1      -7.240 -13.380   3.005  0.00  0.00    -0.253 OA
ATOM     31  N   UNL     1      -7.810 -12.204   1.184  0.00  0.00    -0.294 N 
ATOM     32  H   UNL     1      -9.793 -13.360   3.356  0.00  0.00    +0.151 HD
ATOM     33  H   UNL     1      -6.918 -12.063   0.829  0.00  0.00    +0.151 HD
ENDBRANCH  22  23
ENDBRANCH  21  22
ENDBRANCH  20  21
ENDBRANCH  19  20
ENDBRANCH   2  19
TORSDOF 8
