REMARK  Name = ZINC64579678
REMARK  8 active torsions:
REMARK  status: ('A' for Active; 'I' for Inactive)
REMARK    1  A    between atoms: C_1  and  C_2
REMARK    2  A    between atoms: C_2  and  N_3
REMARK    3  A    between atoms: C_4  and  C_6
REMARK    4  A    between atoms: C_9  and  C_12
REMARK    5  A    between atoms: C_12  and  N_13
REMARK    6  A    between atoms: C_14  and  C_16
REMARK    7  A    between atoms: N_18  and  C_19
REMARK    8  A    between atoms: N_28  and  C_29
REMARK                            x       y       z     vdW  Elec       q    Type
REMARK                         _______ _______ _______ _____ _____    ______ ____
ROOT
ATOM      1  N   UNL     1       2.682  -3.911   7.150  0.00  0.00    -0.303 N 
ATOM      2  C   UNL     1       3.110  -4.356   8.348  0.00  0.00    +0.300 C 
ATOM      3  O   UNL     1       4.285  -4.608   8.517  0.00  0.00    -0.265 OA
ATOM      4  H   UNL     1       1.742  -3.710   7.015  0.00  0.00    +0.149 HD
ENDROOT
BRANCH   2   5
ATOM      5  C   UNL     1       2.139  -4.540   9.467  0.00  0.00    +0.303 C 
ATOM      6  O   UNL     1       0.963  -4.289   9.298  0.00  0.00    -0.265 OA
ATOM      7  N   UNL     1       2.567  -4.986  10.665  0.00  0.00    -0.278 N 
ATOM      8  H   UNL     1       3.493  -5.250  10.781  0.00  0.00    +0.155 HD
BRANCH   7   9
ATOM      9  C   UNL     1       1.676  -5.066  11.741  0.00  0.00    +0.034 A 
ATOM     10  C   UNL     1       0.349  -5.416  11.520  0.00  0.00    +0.025 A 
ATOM     11  C   UNL     1      -0.526  -5.493  12.582  0.00  0.00    +0.025 A 
ATOM     12  C   UNL     1      -0.083  -5.222  13.873  0.00  0.00    +0.033 A 
ATOM     13  C   UNL     1       1.240  -4.876  14.097  0.00  0.00    -0.025 A 
ATOM     14  C   UNL     1       2.118  -4.803  13.029  0.00  0.00    +0.028 A 
ATOM     15  C   UNL     1       1.755  -4.588  15.483  0.00  0.00    +0.038 C 
ATOM     16  C   UNL     1       0.601  -4.230  16.419  0.00  0.00    +0.024 C 
ATOM     17  C   UNL     1      -0.479  -5.315  16.312  0.00  0.00    +0.105 C 
ATOM     18  N   UNL     1      -0.993  -5.302  14.935  0.00  0.00    -0.333 N 
ATOM     19  C   UNL     1      -2.434  -5.372  14.678  0.00  0.00    +0.129 C 
ENDBRANCH   7   9
ENDBRANCH   2   5
BRANCH   1  20
ATOM     20  C   UNL     1       3.635  -3.730   6.053  0.00  0.00    +0.140 C 
BRANCH  20  24
ATOM     21  C   UNL     1       1.569  -2.304   2.591  0.00  0.00    +0.037 A 
ATOM     22  C   UNL     1       2.100  -1.400   3.513  0.00  0.00    +0.013 A 
ATOM     23  C   UNL     1       2.765  -1.867   4.627  0.00  0.00    +0.006 A 
ATOM     24  C   UNL     1       2.906  -3.228   4.833  0.00  0.00    -0.030 A 
ATOM     25  C   UNL     1       2.383  -4.129   3.923  0.00  0.00    +0.006 A 
ATOM     26  C   UNL     1       1.710  -3.675   2.807  0.00  0.00    +0.013 A 
BRANCH  21  28
ATOM     27  N   UNL     1       0.719  -0.485   1.189  0.00  0.00    -0.312 N 
ATOM     28  C   UNL     1       0.854  -1.810   1.394  0.00  0.00    +0.244 C 
ATOM     29  O   UNL     1       0.389  -2.600   0.596  0.00  0.00    -0.270 OA
ATOM     30  H   UNL     1       1.091   0.145   1.826  0.00  0.00    +0.149 HD
BRANCH  27  32
ATOM     31  C   UNL     1       0.001   1.534   0.010  0.00  0.00    +0.024 C 
ATOM     32  C   UNL     1       0.011   0.004   0.003  0.00  0.00    +0.101 C 
ENDBRANCH  27  32
ENDBRANCH  21  28
ENDBRANCH  20  24
ENDBRANCH   1  20
TORSDOF 6
