REMARK  Name = ZINC26721056
REMARK  3 active torsions:
REMARK  status: ('A' for Active; 'I' for Inactive)
REMARK    1  A    between atoms: C_1  and  N_2
REMARK    2  A    between atoms: C_12  and  C_14
REMARK    3  A    between atoms: C_19  and  C_20
REMARK                            x       y       z     vdW  Elec       q    Type
REMARK                         _______ _______ _______ _____ _____    ______ ____
ROOT
ATOM      1  C   UNL     1      -2.547   8.831  -2.014  0.00  0.00    +0.131 C 
ATOM      2  N   UNL     1      -3.212   7.670  -1.407  0.00  0.00    -0.310 N 
ATOM      3  C   UNL     1      -3.487   7.899  -0.069  0.00  0.00    +0.043 A 
ATOM      4  C   UNL     1      -3.518   9.187   0.446  0.00  0.00    +0.024 A 
ATOM      5  C   UNL     1      -3.797   9.386   1.783  0.00  0.00    +0.002 A 
ATOM      6  C   UNL     1      -4.050   8.311   2.621  0.00  0.00    +0.001 A 
ATOM      7  C   UNL     1      -4.023   7.023   2.127  0.00  0.00    +0.015 A 
ATOM      8  C   UNL     1      -3.740   6.809   0.781  0.00  0.00    +0.058 A 
ATOM      9  C   UNL     1      -3.692   5.448   0.210  0.00  0.00    +0.247 C 
ATOM     10  O   UNL     1      -4.191   4.502   0.788  0.00  0.00    -0.270 OA
ATOM     11  N   UNL     1      -3.068   5.297  -0.982  0.00  0.00    -0.289 N 
ATOM     12  C   UNL     1      -2.430   6.450  -1.617  0.00  0.00    +0.196 C 
ATOM     13  H   UNL     1      -3.040   4.313  -1.474  0.00  0.00    +0.151 HD
ENDROOT
BRANCH  12  14
ATOM     14  C   UNL     1      -1.055   6.638  -1.031  0.00  0.00    +0.036 A 
ATOM     15  C   UNL     1      -0.663   6.278   0.211  0.00  0.00    +0.112 A 
ATOM     16  N   UNL     1       0.637   6.615   0.352  0.00  0.00    -0.284 N 
ATOM     17  H   UNL     1       1.158   6.412   1.299  0.00  0.00    +0.188 HD
ATOM     18  N   UNL     1       1.069   7.199  -0.846  0.00  0.00    -0.174 NA
ATOM     19  C   UNL     1       0.051   7.219  -1.681  0.00  0.00    +0.099 A 
BRANCH  19  20
ATOM     20  C   UNL     1       0.068   7.755  -3.065  0.00  0.00    +0.003 A 
ATOM     21  C   UNL     1       0.695   8.970  -3.337  0.00  0.00    +0.011 A 
ATOM     22  C   UNL     1       0.708   9.463  -4.625  0.00  0.00    +0.020 A 
ATOM     23  C   UNL     1       0.100   8.754  -5.647  0.00  0.00    +0.041 A 
ATOM     24  C   UNL     1      -0.528   7.550  -5.381  0.00  0.00    +0.020 A 
ATOM     25  C   UNL     1      -0.542   7.045  -4.097  0.00  0.00    +0.011 A 
ATOM     26 CL   UNL     1       0.120   9.381  -7.266  0.00  0.00    -0.084 Cl
ENDBRANCH  19  20
ENDBRANCH  12  14
TORSDOF 2
