REMARK  Name = ZINC45456685
REMARK  8 active torsions:
REMARK  status: ('A' for Active; 'I' for Inactive)
REMARK    1  A    between atoms: C_1  and  C_2
REMARK    2  A    between atoms: C_7  and  C_16
REMARK    3  A    between atoms: N_11  and  S_12
REMARK    4  A    between atoms: S_12  and  C_15
REMARK    5  A    between atoms: N_18  and  C_19
REMARK    6  A    between atoms: C_19  and  C_20
REMARK    7  A    between atoms: C_20  and  C_22
REMARK    8  A    between atoms: C_20  and  N_27
REMARK                            x       y       z     vdW  Elec       q    Type
REMARK                         _______ _______ _______ _____ _____    ______ ____
ROOT
ATOM      1  C   UNL     1      -3.190  -4.444   3.343  0.00  0.00    +0.244 C 
ATOM      2  O   UNL     1      -4.184  -4.838   2.762  0.00  0.00    -0.270 OA
ATOM      3  N   UNL     1      -3.041  -4.681   4.661  0.00  0.00    -0.312 N 
ATOM      4  H   UNL     1      -2.249  -4.367   5.124  0.00  0.00    +0.149 HD
ENDROOT
BRANCH   1  10
ATOM      5  C   UNL     1      -0.123  -0.179  -1.468  0.00  0.00    +0.030 C 
ATOM      6  C   UNL     1       0.109  -1.622  -1.013  0.00  0.00    +0.099 C 
ATOM      7  C   UNL     1      -1.230  -2.369  -0.905  0.00  0.00    +0.061 C 
ATOM      8  C   UNL     1      -1.323  -2.768   0.551  0.00  0.00    -0.022 A 
ATOM      9  C   UNL     1      -2.298  -3.457   1.237  0.00  0.00    +0.018 A 
ATOM     10  C   UNL     1      -2.148  -3.706   2.604  0.00  0.00    +0.037 A 
ATOM     11  C   UNL     1      -1.005  -3.250   3.266  0.00  0.00    +0.015 A 
ATOM     12  C   UNL     1      -0.037  -2.563   2.575  0.00  0.00    +0.026 A 
ATOM     13  C   UNL     1      -0.184  -2.313   1.205  0.00  0.00    +0.054 A 
ATOM     14  N   UNL     1       0.674  -1.644   0.338  0.00  0.00    -0.204 N 
BRANCH  14  15
ATOM     15  S   UNL     1       2.125  -0.971   0.769  0.00  0.00    +0.043 S 
ATOM     16  O   UNL     1       2.548  -1.716   1.903  0.00  0.00    -0.155 OA
ATOM     17  O   UNL     1       2.894  -0.970  -0.426  0.00  0.00    -0.155 OA
ATOM     18  C   UNL     1       1.722   0.731   1.255  0.00  0.00    +0.218 C 
ENDBRANCH  14  15
ENDBRANCH   1  10
BRANCH   3  19
ATOM     19  C   UNL     1      -4.076  -5.414   5.395  0.00  0.00    +0.097 C 
BRANCH  19  20
ATOM     20  C   UNL     1      -3.606  -5.660   6.830  0.00  0.00    +0.016 C 
BRANCH  20  21
ATOM     21  N   UNL     1      -2.327  -6.382   6.809  0.00  0.00    +0.387 N 
ATOM     22  C   UNL     1      -2.475  -7.615   6.028  0.00  0.00    -0.078 C 
ATOM     23  C   UNL     1      -1.126  -8.331   5.935  0.00  0.00    -0.019 C 
ATOM     24  C   UNL     1      -0.638  -8.673   7.345  0.00  0.00    -0.004 C 
ATOM     25  C   UNL     1      -0.558  -7.388   8.174  0.00  0.00    -0.019 C 
ATOM     26  C   UNL     1      -1.928  -6.708   8.184  0.00  0.00    -0.078 C 
ATOM     27  H   UNL     1      -1.620  -5.800   6.384  0.00  0.00    -0.081 HD
ENDBRANCH  20  21
BRANCH  20  28
ATOM     28  C   UNL     1      -4.635  -6.483   7.561  0.00  0.00    +0.093 A 
ATOM     29  C   UNL     1      -5.453  -6.037   8.532  0.00  0.00    +0.043 A 
ATOM     30  C   UNL     1      -6.248  -7.136   8.934  0.00  0.00    +0.041 A 
ATOM     31  C   UNL     1      -5.869  -8.186   8.184  0.00  0.00    +0.195 A 
ATOM     32  O   UNL     1      -4.896  -7.783   7.351  0.00  0.00    -0.469 OA
ENDBRANCH  20  28
ENDBRANCH  19  20
ENDBRANCH   3  19
TORSDOF 6
