REMARK  Name = ZINC39607219
REMARK  6 active torsions:
REMARK  status: ('A' for Active; 'I' for Inactive)
REMARK    1  A    between atoms: C_1  and  C_2
REMARK    2  A    between atoms: C_5  and  C_9
REMARK    3  A    between atoms: C_6  and  C_8
REMARK    4  A    between atoms: C_9  and  N_10
REMARK    5  A    between atoms: C_11  and  C_13
REMARK    6  A    between atoms: C_24  and  C_26
REMARK                            x       y       z     vdW  Elec       q    Type
REMARK                         _______ _______ _______ _____ _____    ______ ____
ROOT
ATOM      1  C   UNL     1      -3.730  -6.436   0.024  0.00  0.00    +0.100 C 
ATOM      2  C   UNL     1      -3.669  -6.299   1.562  0.00  0.00    +0.121 C 
ATOM      3  N   UNL     1      -4.409  -7.478   2.073  0.00  0.00    -0.300 N 
ATOM      4  C   UNL     1      -4.010  -8.583   1.169  0.00  0.00    +0.115 C 
ATOM      5  C   UNL     1      -3.953  -7.937  -0.230  0.00  0.00    -0.004 C 
ATOM      6  C   UNL     1      -2.790  -8.516  -1.031  0.00  0.00    -0.010 C 
ATOM      7  C   UNL     1      -3.063  -9.994  -1.321  0.00  0.00    -0.082 C 
ATOM      8  N   UNL     1      -4.316 -10.124  -2.075  0.00  0.00    +0.379 N 
ATOM      9  C   UNL     1      -5.441  -9.650  -1.261  0.00  0.00    -0.082 C 
ATOM     10  C   UNL     1      -5.270  -8.157  -0.968  0.00  0.00    -0.010 C 
ATOM     11  C   UNL     1      -5.253  -7.532   3.121  0.00  0.00    +0.219 C 
ATOM     12  O   UNL     1      -5.542  -6.518   3.720  0.00  0.00    -0.275 OA
ATOM     13  H   UNL     1      -4.257  -9.574  -2.919  0.00  0.00    -0.086 HD
ATOM     14  H   UNL     1      -4.462 -11.092  -2.318  0.00  0.00    -0.086 HD
ENDROOT
BRANCH  11  15
ATOM     15  C   UNL     1      -5.838  -8.853   3.550  0.00  0.00    +0.079 C 
ATOM     16  C   UNL     1      -7.170  -8.616   4.274  0.00  0.00    +0.017 C 
ATOM     17  C   UNL     1      -7.825  -9.974   4.538  0.00  0.00    +0.027 C 
ATOM     18  C   UNL     1      -6.836 -10.911   5.168  0.00  0.00    -0.031 C 
ATOM     19  C   UNL     1      -5.555 -10.729   5.155  0.00  0.00    -0.030 C 
ATOM     20  C   UNL     1      -4.877  -9.553   4.513  0.00  0.00    +0.039 C 
ENDBRANCH  11  15
BRANCH   1  22
ATOM     21  N   UNL     1      -2.418  -5.490  -1.847  0.00  0.00    -0.311 N 
ATOM     22  C   UNL     1      -2.431  -5.987  -0.594  0.00  0.00    +0.218 C 
ATOM     23  O   UNL     1      -1.398  -6.072   0.035  0.00  0.00    -0.275 OA
ATOM     24  H   UNL     1      -3.244  -5.422  -2.350  0.00  0.00    +0.149 HD
BRANCH  21  25
ATOM     25  C   UNL     1      -1.155  -5.053  -2.448  0.00  0.00    +0.139 C 
BRANCH  25  30
ATOM     26  C   UNL     1      -2.147  -3.098  -7.795  0.00  0.00    +0.044 C 
ATOM     27  C   UNL     1      -1.888  -3.608  -6.401  0.00  0.00    -0.050 A 
ATOM     28  C   UNL     1      -1.394  -4.886  -6.212  0.00  0.00    +0.004 A 
ATOM     29  C   UNL     1      -1.157  -5.353  -4.933  0.00  0.00    +0.006 A 
ATOM     30  C   UNL     1      -1.413  -4.543  -3.843  0.00  0.00    -0.027 A 
ATOM     31  C   UNL     1      -1.905  -3.265  -4.031  0.00  0.00    -0.046 A 
ATOM     32  C   UNL     1      -2.139  -2.796  -5.311  0.00  0.00    +0.007 A 
ATOM     33  C   UNL     1      -2.185  -2.383  -2.842  0.00  0.00    +0.044 C 
ENDBRANCH  25  30
ENDBRANCH  21  25
ENDBRANCH   1  22
TORSDOF 4
