REMARK  Name = ZINC01251161
REMARK  3 active torsions:
REMARK  status: ('A' for Active; 'I' for Inactive)
REMARK    1  A    between atoms: C_4  and  C_7
REMARK    2  A    between atoms: C_7  and  C_9
REMARK    3  A    between atoms: C_9  and  C_10
REMARK                            x       y       z     vdW  Elec       q    Type
REMARK                         _______ _______ _______ _____ _____    ______ ____
ROOT
ATOM      1  C   UNL     1       5.167  -2.672  -0.064  0.00  0.00    +0.165 C 
ATOM      2  C   UNL     1       5.197  -4.176   0.047  0.00  0.00    +0.238 C 
ATOM      3  O   UNL     1       5.266  -4.695   1.141  0.00  0.00    -0.273 OA
ATOM      4  N   UNL     1       5.147  -4.947  -1.054  0.00  0.00    -0.282 N 
ATOM      5  C   UNL     1       5.210  -4.380  -2.332  0.00  0.00    +0.055 A 
ATOM      6  C   UNL     1       4.958  -5.147  -3.458  0.00  0.00    +0.025 A 
ATOM      7  C   UNL     1       5.015  -4.569  -4.713  0.00  0.00    +0.002 A 
ATOM      8  C   UNL     1       5.322  -3.228  -4.851  0.00  0.00    +0.002 A 
ATOM      9  C   UNL     1       5.579  -2.455  -3.733  0.00  0.00    +0.025 A 
ATOM     10  C   UNL     1       5.528  -3.028  -2.475  0.00  0.00    +0.049 A 
ATOM     11  N   UNL     1       5.805  -2.270  -1.326  0.00  0.00    -0.331 N 
ATOM     12  H   UNL     1       5.067  -5.909  -0.961  0.00  0.00    +0.155 HD
ATOM     13  H   UNL     1       6.400  -1.505  -1.363  0.00  0.00    +0.147 HD
ENDROOT
BRANCH   1  14
ATOM     14  C   UNL     1       3.716  -2.186  -0.046  0.00  0.00    +0.111 C 
BRANCH  14  15
ATOM     15  C   UNL     1       3.691  -0.679  -0.038  0.00  0.00    +0.165 C 
ATOM     16  O   UNL     1       4.731  -0.056  -0.045  0.00  0.00    -0.292 OA
BRANCH  15  20
ATOM     17  C   UNL     1      -0.017   1.380   0.010  0.00  0.00    +0.000 A 
ATOM     18  C   UNL     1       1.168   2.095   0.002  0.00  0.00    +0.001 A 
ATOM     19  C   UNL     1       2.377   1.433  -0.013  0.00  0.00    +0.011 A 
ATOM     20  C   UNL     1       2.405   0.035  -0.021  0.00  0.00    +0.017 A 
ATOM     21  C   UNL     1       1.203  -0.681  -0.013  0.00  0.00    +0.011 A 
ATOM     22  C   UNL     1       0.002  -0.004   0.002  0.00  0.00    +0.001 A 
ENDBRANCH  15  20
ENDBRANCH  14  15
ENDBRANCH   1  14
TORSDOF 3
