REMARK  Name = ZINC67373187
REMARK  7 active torsions:
REMARK  status: ('A' for Active; 'I' for Inactive)
REMARK    1  A    between atoms: C_1  and  C_2
REMARK    2  A    between atoms: N_5  and  C_8
REMARK    3  A    between atoms: C_8  and  C_9
REMARK    4  A    between atoms: C_9  and  C_11
REMARK    5  A    between atoms: C_9  and  O_24
REMARK    6  A    between atoms: C_11  and  N_12
REMARK    7  A    between atoms: N_19  and  C_23
REMARK                            x       y       z     vdW  Elec       q    Type
REMARK                         _______ _______ _______ _____ _____    ______ ____
ROOT
ATOM      1  C   UNL     1       0.041  -5.922   2.735  0.00  0.00    +0.132 C 
ENDROOT
BRANCH   1   2
ATOM      2  N   UNL     1       0.630  -6.349   4.007  0.00  0.00    -0.326 N 
ATOM      3  C   UNL     1       0.790  -7.694   4.277  0.00  0.00    +0.134 A 
ATOM      4  C   UNL     1       1.349  -8.123   5.496  0.00  0.00    +0.092 A 
ATOM      5  C   UNL     1       1.488  -9.507   5.716  0.00  0.00    +0.164 A 
ATOM      6  N   UNL     1       1.087 -10.352   4.766  0.00  0.00    -0.216 NA
ATOM      7  C   UNL     1       0.571  -9.903   3.644  0.00  0.00    +0.225 A 
ATOM      8  N   UNL     1       0.417  -8.614   3.395  0.00  0.00    -0.220 NA
ATOM      9  N   UNL     1       2.045  -9.651   6.952  0.00  0.00    -0.248 N 
ATOM     10  N   UNL     1       2.250  -8.375   7.492  0.00  0.00    -0.162 NA
ATOM     11  C   UNL     1       1.845  -7.470   6.646  0.00  0.00    +0.141 A 
ATOM     12 BR   UNL     1       1.910  -5.599   6.913  0.00  0.00    -0.026 Br
ATOM     13  C   UNL     1       2.373 -10.922   7.603  0.00  0.00    +0.174 C 
ATOM     14  H   UNL     1       0.906  -5.687   4.660  0.00  0.00    +0.148 HD
ENDBRANCH   1   2
BRANCH   1  15
ATOM     15  C   UNL     1      -0.023  -4.394   2.690  0.00  0.00    +0.115 C 
BRANCH  15  16
ATOM     16  O   UNL     1       1.303  -3.862   2.691  0.00  0.00    -0.392 OA
ATOM     17  H   UNL     1       1.841  -4.147   1.940  0.00  0.00    +0.210 HD
ENDBRANCH  15  16
BRANCH  15  18
ATOM     18  C   UNL     1      -0.750  -3.952   1.419  0.00  0.00    -0.046 C 
BRANCH  18  23
ATOM     19  C   UNL     1      -2.158   1.567   1.124  0.00  0.00    +0.007 C 
ATOM     20  C   UNL     1      -2.222   0.038   1.151  0.00  0.00    -0.018 C 
ATOM     21  C   UNL     1      -1.674  -0.474   2.486  0.00  0.00    -0.016 C 
ATOM     22  C   UNL     1      -1.667  -2.005   2.474  0.00  0.00    -0.078 C 
ATOM     23  N   UNL     1      -0.817  -2.485   1.378  0.00  0.00    +0.381 N 
ATOM     24  C   UNL     1      -1.376  -2.057   0.090  0.00  0.00    -0.078 C 
ATOM     25  C   UNL     1      -1.372  -0.529   0.010  0.00  0.00    -0.016 C 
ATOM     26  H   UNL     1       0.112  -2.105   1.483  0.00  0.00    -0.082 HD
ENDBRANCH  18  23
ENDBRANCH  15  18
ENDBRANCH   1  15
TORSDOF 5
