REMARK  Name = ZINC48921181
REMARK  5 active torsions:
REMARK  status: ('A' for Active; 'I' for Inactive)
REMARK    1  A    between atoms: C_1  and  N_2
REMARK    2  A    between atoms: N_5  and  C_6
REMARK    3  A    between atoms: C_6  and  C_7
REMARK    4  A    between atoms: C_7  and  C_8
REMARK    5  A    between atoms: C_11  and  N_14
REMARK                            x       y       z     vdW  Elec       q    Type
REMARK                         _______ _______ _______ _____ _____    ______ ____
ROOT
ATOM      1  C   UNL     1       1.120  -4.237  -1.899  0.00  0.00    +0.054 C 
ENDROOT
BRANCH   1   2
ATOM      2  C   UNL     1       1.772  -4.976  -3.039  0.00  0.00    -0.046 A 
ATOM      3  C   UNL     1       1.030  -5.320  -4.154  0.00  0.00    +0.006 A 
ATOM      4  C   UNL     1       1.628  -5.998  -5.200  0.00  0.00    +0.033 A 
ATOM      5  C   UNL     1       2.968  -6.330  -5.132  0.00  0.00    +0.126 A 
ATOM      6  C   UNL     1       3.710  -5.985  -4.018  0.00  0.00    +0.033 A 
ATOM      7  C   UNL     1       3.113  -5.304  -2.974  0.00  0.00    +0.006 A 
BRANCH   5   8
ATOM      8  N   UNL     1       3.608  -7.056  -6.252  0.00  0.00    +0.056 N 
ATOM      9  O   UNL     1       2.959  -7.359  -7.226  0.00  0.00    -0.126 OA
ATOM     10  O   UNL     1       4.780  -7.347  -6.192  0.00  0.00    -0.126 OA
ENDBRANCH   5   8
ENDBRANCH   1   2
BRANCH   1  11
ATOM     11  C   UNL     1       1.237  -2.730  -2.134  0.00  0.00    +0.110 C 
BRANCH  11  16
ATOM     12  C   UNL     1      -0.018   1.461   0.010  0.00  0.00    +0.129 C 
ATOM     13  N   UNL     1       0.002  -0.004   0.002  0.00  0.00    -0.302 N 
ATOM     14  C   UNL     1       0.585  -0.664  -1.018  0.00  0.00    +0.299 C 
ATOM     15  O   UNL     1       1.095  -0.045  -1.931  0.00  0.00    -0.253 OA
ATOM     16  N   UNL     1       0.603  -2.012  -1.025  0.00  0.00    -0.299 N 
ATOM     17  H   UNL     1      -0.404  -0.499   0.731  0.00  0.00    +0.150 HD
ATOM     18  H   UNL     1       0.197  -2.507  -0.297  0.00  0.00    +0.150 HD
ENDBRANCH  11  16
ENDBRANCH   1  11
TORSDOF 4
