REMARK  Name = ZINC17067543
REMARK  5 active torsions:
REMARK  status: ('A' for Active; 'I' for Inactive)
REMARK    1  A    between atoms: C_1  and  C_2
REMARK    2  A    between atoms: C_9  and  C_11
REMARK    3  A    between atoms: N_13  and  N_14
REMARK    4  A    between atoms: C_15  and  C_16
REMARK    5  A    between atoms: C_19  and  N_21
REMARK                            x       y       z     vdW  Elec       q    Type
REMARK                         _______ _______ _______ _____ _____    ______ ____
ROOT
ATOM      1  N   UNL     1      -0.017   1.301   0.105  0.00  0.00    -0.185 NA
ATOM      2  C   UNL     1      -0.000   0.002   0.191  0.00  0.00    +0.176 C 
ENDROOT
BRANCH   2   3
ATOM      3  C   UNL     1      -1.257  -0.747   0.199  0.00  0.00    +0.150 A 
ATOM      4  C   UNL     1      -1.380  -2.105   0.279  0.00  0.00    +0.053 A 
ATOM      5  C   UNL     1      -2.755  -2.391   0.257  0.00  0.00    +0.066 A 
ATOM      6  C   UNL     1      -3.407  -1.202   0.158  0.00  0.00    +0.189 A 
ATOM      7  O   UNL     1      -2.497  -0.215   0.123  0.00  0.00    -0.440 OA
BRANCH   6   8
ATOM      8  N   UNL     1      -4.783  -1.036   0.102  0.00  0.00    -0.301 N 
ATOM      9  C   UNL     1      -5.362  -1.811  -1.004  0.00  0.00    +0.108 C 
ATOM     10  C   UNL     1      -6.888  -1.722  -0.946  0.00  0.00    +0.019 C 
ATOM     11  C   UNL     1      -7.313  -0.254  -1.050  0.00  0.00    +0.003 C 
ATOM     12  C   UNL     1      -6.658   0.540   0.084  0.00  0.00    +0.019 C 
ATOM     13  C   UNL     1      -5.138   0.385  -0.004  0.00  0.00    +0.108 C 
ENDBRANCH   6   8
ENDBRANCH   2   3
BRANCH   1  16
ATOM     14  C   UNL     1       1.170   3.363   0.009  0.00  0.00    +0.236 C 
ATOM     15  O   UNL     1       0.112   3.953  -0.064  0.00  0.00    -0.274 OA
ATOM     16  N   UNL     1       1.187   2.018   0.098  0.00  0.00    -0.207 N 
ATOM     17  H   UNL     1       2.033   1.547   0.157  0.00  0.00    +0.177 HD
BRANCH  14  25
ATOM     18  C   UNL     1       3.472   6.394  -0.758  0.00  0.00    +0.012 C 
ATOM     19  C   UNL     1       2.679   5.137  -1.125  0.00  0.00    -0.017 C 
ATOM     20  C   UNL     1       1.585   5.364  -2.155  0.00  0.00    +0.008 C 
ATOM     21  C   UNL     1       1.081   4.031  -2.708  0.00  0.00    +0.001 C 
ATOM     22  C   UNL     1       2.279   3.245  -3.255  0.00  0.00    +0.000 C 
ATOM     23  C   UNL     1       3.082   2.698  -2.075  0.00  0.00    +0.005 C 
ATOM     24  C   UNL     1       3.464   3.832  -1.127  0.00  0.00    +0.008 C 
ATOM     25  C   UNL     1       2.465   4.134   0.001  0.00  0.00    +0.086 C 
ENDBRANCH  14  25
ENDBRANCH   1  16
TORSDOF 4
