REMARK  Name = ZINC11635283
REMARK  5 active torsions:
REMARK  status: ('A' for Active; 'I' for Inactive)
REMARK    1  A    between atoms: C_1  and  C_2
REMARK    2  A    between atoms: C_7  and  S_8
REMARK    3  A    between atoms: S_8  and  O_11
REMARK    4  A    between atoms: O_11  and  C_12
REMARK    5  A    between atoms: C_15  and  C_18
REMARK                            x       y       z     vdW  Elec       q    Type
REMARK                         _______ _______ _______ _____ _____    ______ ____
ROOT
ATOM      1  S   UNL     1       2.638   1.051   0.085  0.00  0.00    +0.151 S 
ATOM      2  O   UNL     1       3.135   1.864   1.139  0.00  0.00    -0.131 OA
ATOM      3  O   UNL     1       1.541   1.445  -0.728  0.00  0.00    -0.131 OA
ENDROOT
BRANCH   1  10
ATOM      4  C   UNL     1       3.478   2.936  -2.119  0.00  0.00    +0.046 C 
ATOM      5  C   UNL     1       4.300   1.680  -1.986  0.00  0.00    -0.020 A 
ATOM      6  C   UNL     1       5.360   1.458  -2.844  0.00  0.00    +0.033 A 
ATOM      7  C   UNL     1       6.116   0.302  -2.721  0.00  0.00    +0.067 A 
ATOM      8  C   UNL     1       5.807  -0.629  -1.727  0.00  0.00    +0.069 A 
ATOM      9  C   UNL     1       4.739  -0.399  -0.874  0.00  0.00    +0.058 A 
ATOM     10  C   UNL     1       3.991   0.755  -1.004  0.00  0.00    +0.133 A 
ATOM     11  N   UNL     1       6.732  -1.664  -1.844  0.00  0.00    -0.306 N 
ATOM     12  H   UNL     1       6.767  -2.459  -1.289  0.00  0.00    +0.170 HD
ATOM     13  C   UNL     1       7.567  -1.374  -2.859  0.00  0.00    +0.325 A 
ATOM     14  O   UNL     1       8.493  -2.073  -3.227  0.00  0.00    -0.247 OA
ATOM     15  N   UNL     1       7.216  -0.198  -3.413  0.00  0.00    -0.306 N 
ATOM     16  H   UNL     1       7.661   0.233  -4.160  0.00  0.00    +0.170 HD
ENDBRANCH   1  10
BRANCH   1  17
ATOM     17  O   UNL     1       2.260  -0.286   0.707  0.00  0.00    -0.342 OA
BRANCH  17  18
ATOM     18  C   UNL     1       1.554  -1.101  -0.120  0.00  0.00    +0.157 A 
ATOM     19  C   UNL     1       0.178  -0.958  -0.227  0.00  0.00    +0.049 A 
ATOM     20  C   UNL     1      -0.537  -1.784  -1.073  0.00  0.00    +0.007 A 
ATOM     21  C   UNL     1       0.116  -2.760  -1.804  0.00  0.00    -0.044 A 
ATOM     22  C   UNL     1       1.487  -2.907  -1.694  0.00  0.00    +0.007 A 
ATOM     23  C   UNL     1       2.207  -2.080  -0.855  0.00  0.00    +0.049 A 
BRANCH  21  24
ATOM     24  C   UNL     1      -0.667  -3.663  -2.721  0.00  0.00    +0.019 C 
ATOM     25  C   UNL     1      -1.379  -2.820  -3.781  0.00  0.00    +0.008 C 
ATOM     26  C   UNL     1      -2.174  -3.738  -4.712  0.00  0.00    +0.001 C 
ATOM     27  C   UNL     1      -3.210  -4.516  -3.899  0.00  0.00    +0.000 C 
ATOM     28  C   UNL     1      -2.498  -5.359  -2.839  0.00  0.00    +0.001 C 
ATOM     29  C   UNL     1      -1.703  -4.441  -1.907  0.00  0.00    +0.008 C 
ENDBRANCH  21  24
ENDBRANCH  17  18
ENDBRANCH   1  17
TORSDOF 4
