REMARK  Name = ZINC65115167
REMARK  7 active torsions:
REMARK  status: ('A' for Active; 'I' for Inactive)
REMARK    1  A    between atoms: C_1  and  C_2
REMARK    2  A    between atoms: C_4  and  C_29
REMARK    3  A    between atoms: C_5  and  N_9
REMARK    4  A    between atoms: C_6  and  C_8
REMARK    5  A    between atoms: N_9  and  S_10
REMARK    6  A    between atoms: S_10  and  C_13
REMARK    7  A    between atoms: C_19  and  C_22
REMARK                            x       y       z     vdW  Elec       q    Type
REMARK                         _______ _______ _______ _____ _____    ______ ____
ROOT
ATOM      1  C   UNL     1      -1.413  -4.549   2.156  0.00  0.00    +0.109 A 
ATOM      2  C   UNL     1      -1.466  -3.448   2.999  0.00  0.00    +0.032 A 
ATOM      3  C   UNL     1      -2.632  -3.125   3.658  0.00  0.00    +0.051 A 
ATOM      4  C   UNL     1      -3.768  -3.907   3.477  0.00  0.00    +0.168 A 
ATOM      5  C   UNL     1      -3.709  -5.019   2.623  0.00  0.00    +0.055 A 
ATOM      6  C   UNL     1      -2.520  -5.327   1.961  0.00  0.00    +0.042 A 
ATOM      7  C   UNL     1      -5.048  -5.630   2.643  0.00  0.00    +0.176 A 
ATOM      8  N   UNL     1      -5.787  -4.912   3.446  0.00  0.00    -0.072 NA
ATOM      9  O   UNL     1      -5.021  -3.847   3.970  0.00  0.00    -0.354 OA
ENDROOT
BRANCH   7  10
ATOM     10  C   UNL     1      -5.478  -6.834   1.893  0.00  0.00    +0.269 C 
ATOM     11  O   UNL     1      -4.689  -7.415   1.175  0.00  0.00    -0.268 OA
ATOM     12  N   UNL     1      -6.743  -7.283   2.008  0.00  0.00    -0.296 N 
ATOM     13  C   UNL     1      -7.797  -6.675   2.833  0.00  0.00    +0.108 C 
ATOM     14  C   UNL     1      -9.063  -7.543   2.672  0.00  0.00    +0.020 C 
ATOM     15  C   UNL     1      -8.492  -8.909   2.212  0.00  0.00    +0.020 C 
ATOM     16  C   UNL     1      -7.301  -8.463   1.323  0.00  0.00    +0.108 C 
ENDBRANCH   7  10
BRANCH   1  17
ATOM     17  S   UNL     1       0.089  -4.942   1.324  0.00  0.00    +0.072 S 
ATOM     18  O   UNL     1      -0.014  -6.301   0.920  0.00  0.00    -0.150 OA
ATOM     19  O   UNL     1       1.146  -4.471   2.150  0.00  0.00    -0.150 OA
BRANCH  17  20
ATOM     20  N   UNL     1       0.133  -4.038  -0.062  0.00  0.00    -0.216 N 
ATOM     21  H   UNL     1       0.086  -4.474  -0.927  0.00  0.00    +0.174 HD
BRANCH  20  26
ATOM     22  C   UNL     1       0.559   1.608   0.247  0.00  0.00    +0.044 C 
ATOM     23  C   UNL     1       0.446   0.108   0.165  0.00  0.00    -0.050 A 
ATOM     24  C   UNL     1       1.516  -0.686   0.536  0.00  0.00    +0.008 A 
ATOM     25  C   UNL     1       1.415  -2.061   0.462  0.00  0.00    -0.028 A 
ATOM     26  C   UNL     1       0.238  -2.647   0.014  0.00  0.00    +0.054 A 
ATOM     27  C   UNL     1      -0.835  -1.847  -0.358  0.00  0.00    -0.028 A 
ATOM     28  C   UNL     1      -0.729  -0.472  -0.276  0.00  0.00    +0.008 A 
ATOM     29  C   UNL     1      -2.114  -2.478  -0.845  0.00  0.00    +0.046 C 
ATOM     30  C   UNL     1       2.582  -2.926   0.867  0.00  0.00    +0.046 C 
ENDBRANCH  20  26
ENDBRANCH  17  20
ENDBRANCH   1  17
TORSDOF 4
