REMARK  Name = ZINC40729889
REMARK  6 active torsions:
REMARK  status: ('A' for Active; 'I' for Inactive)
REMARK    1  A    between atoms: C_1  and  C_2
REMARK    2  A    between atoms: C_13  and  N_37
REMARK    3  A    between atoms: C_14  and  N_18
REMARK    4  A    between atoms: N_21  and  C_24
REMARK    5  A    between atoms: C_24  and  C_25
REMARK    6  A    between atoms: C_24  and  C_31
REMARK                            x       y       z     vdW  Elec       q    Type
REMARK                         _______ _______ _______ _____ _____    ______ ____
ROOT
ATOM      1  C   UNL     1       2.067   1.226  -1.720  0.00  0.00    +0.044 C 
ATOM      2  C   UNL     1       1.822  -0.247  -1.517  0.00  0.00    -0.049 A 
ATOM      3  C   UNL     1       0.527  -0.745  -1.487  0.00  0.00    +0.005 A 
ATOM      4  C   UNL     1       0.277  -2.079  -1.304  0.00  0.00    +0.029 A 
ATOM      5  C   UNL     1       1.340  -2.998  -1.139  0.00  0.00    +0.080 A 
ATOM      6  C   UNL     1       2.645  -2.455  -1.175  0.00  0.00    +0.041 A 
ATOM      7  C   UNL     1       2.886  -1.117  -1.364  0.00  0.00    +0.020 A 
ATOM      8  S   UNL     1       3.660  -3.893  -0.937  0.00  0.00    -0.052 S 
ATOM      9  C   UNL     1       2.334  -5.085  -0.809  0.00  0.00    +0.165 A 
ATOM     10  N   UNL     1       1.267  -4.333  -0.951  0.00  0.00    -0.225 NA
ATOM     11  N   UNL     1       2.413  -6.451  -0.611  0.00  0.00    -0.277 N 
ATOM     12  C   UNL     1       1.249  -7.211  -0.540  0.00  0.00    +0.150 A 
ATOM     13  C   UNL     1       1.316  -8.590  -0.335  0.00  0.00    +0.106 A 
ATOM     14  C   UNL     1       0.118  -9.306  -0.270  0.00  0.00    +0.147 A 
ATOM     15  N   UNL     1      -1.032  -8.650  -0.406  0.00  0.00    -0.219 NA
ATOM     16  C   UNL     1      -1.050  -7.347  -0.598  0.00  0.00    +0.225 A 
ATOM     17  N   UNL     1       0.056  -6.634  -0.660  0.00  0.00    -0.219 NA
ATOM     18  H   UNL     1       3.278  -6.879  -0.523  0.00  0.00    +0.156 HD
ENDROOT
BRANCH  14  19
ATOM     19  N   UNL     1       0.128 -10.680  -0.068  0.00  0.00    -0.311 N 
ATOM     20  C   UNL     1       0.005 -11.245   1.284  0.00  0.00    +0.122 C 
ATOM     21  C   UNL     1      -1.109 -12.297   1.273  0.00  0.00    +0.104 C 
ATOM     22  N   UNL     1      -0.843 -13.277   0.212  0.00  0.00    -0.289 NA
ATOM     23  C   UNL     1      -0.864 -12.646  -1.114  0.00  0.00    +0.104 C 
ATOM     24  C   UNL     1       0.254 -11.609  -1.202  0.00  0.00    +0.122 C 
BRANCH  22  25
ATOM     25  C   UNL     1      -1.792 -14.396   0.278  0.00  0.00    +0.117 C 
BRANCH  25  26
ATOM     26  C   UNL     1      -1.488 -15.379  -0.823  0.00  0.00    -0.026 A 
ATOM     27  C   UNL     1      -0.176 -15.683  -1.135  0.00  0.00    +0.005 A 
ATOM     28  C   UNL     1       0.103 -16.584  -2.145  0.00  0.00    +0.000 A 
ATOM     29  C   UNL     1      -0.929 -17.183  -2.843  0.00  0.00    +0.000 A 
ATOM     30  C   UNL     1      -2.241 -16.880  -2.530  0.00  0.00    +0.000 A 
ATOM     31  C   UNL     1      -2.521 -15.981  -1.517  0.00  0.00    +0.005 A 
ENDBRANCH  25  26
BRANCH  25  32
ATOM     32  C   UNL     1      -1.667 -15.084   1.613  0.00  0.00    -0.026 A 
ATOM     33  C   UNL     1      -0.420 -15.271   2.180  0.00  0.00    +0.005 A 
ATOM     34  C   UNL     1      -0.304 -15.901   3.405  0.00  0.00    +0.000 A 
ATOM     35  C   UNL     1      -1.437 -16.343   4.064  0.00  0.00    +0.000 A 
ATOM     36  C   UNL     1      -2.683 -16.155   3.498  0.00  0.00    +0.000 A 
ATOM     37  C   UNL     1      -2.799 -15.521   2.275  0.00  0.00    +0.005 A 
ENDBRANCH  25  32
ENDBRANCH  22  25
ENDBRANCH  14  19
BRANCH  13  38
ATOM     38  N   UNL     1       2.552  -9.240  -0.197  0.00  0.00    -0.353 N 
ATOM     39  H   UNL     1       3.377  -8.748  -0.334  0.00  0.00    +0.143 HD
ATOM     40  H   UNL     1       2.582 -10.182   0.034  0.00  0.00    +0.143 HD
ENDBRANCH  13  38
TORSDOF 5
