REMARK  Name = ZINC67469278
REMARK  7 active torsions:
REMARK  status: ('A' for Active; 'I' for Inactive)
REMARK    1  A    between atoms: C_1  and  C_2
REMARK    2  A    between atoms: C_2  and  C_4
REMARK    3  A    between atoms: C_2  and  N_15
REMARK    4  A    between atoms: C_8  and  S_10
REMARK    5  A    between atoms: S_10  and  N_13
REMARK    6  A    between atoms: N_13  and  C_14
REMARK    7  A    between atoms: N_18  and  N_19
REMARK                            x       y       z     vdW  Elec       q    Type
REMARK                         _______ _______ _______ _____ _____    ______ ____
ROOT
ATOM      1  N   UNL     1       0.711  -0.489   1.189  0.00  0.00    -0.292 N 
ATOM      2  C   UNL     1       0.051  -0.633   2.355  0.00  0.00    +0.316 C 
ATOM      3  O   UNL     1      -1.132  -0.361   2.423  0.00  0.00    -0.251 OA
ATOM      4  N   UNL     1       0.703  -1.080   3.447  0.00  0.00    -0.219 N 
ATOM      5  H   UNL     1       1.654  -0.707   1.135  0.00  0.00    +0.151 HD
ATOM      6  H   UNL     1       0.229  -1.184   4.287  0.00  0.00    +0.174 HD
ENDROOT
BRANCH   4   7
ATOM      7  N   UNL     1       2.066  -1.394   3.370  0.00  0.00    -0.246 N 
ATOM      8  C   UNL     1       2.739  -1.855   4.497  0.00  0.00    +0.157 A 
ATOM      9  C   UNL     1       4.098  -2.163   4.424  0.00  0.00    +0.050 A 
ATOM     10  C   UNL     1       4.721  -2.619   5.574  0.00  0.00    +0.045 A 
ATOM     11  C   UNL     1       3.956  -2.740   6.728  0.00  0.00    +0.152 A 
ATOM     12  N   UNL     1       2.676  -2.425   6.705  0.00  0.00    -0.136 NA
ATOM     13  N   UNL     1       2.094  -1.998   5.644  0.00  0.00    -0.132 NA
ATOM     14 CL   UNL     1       4.686  -3.306   8.198  0.00  0.00    -0.060 Cl
ATOM     15  H   UNL     1       2.541  -1.290   2.530  0.00  0.00    +0.172 HD
ENDBRANCH   4   7
BRANCH   1  17
ATOM     16  C   UNL     1      -0.019   1.526   0.010  0.00  0.00    +0.033 C 
ATOM     17  C   UNL     1       0.002  -0.004   0.002  0.00  0.00    +0.102 C 
BRANCH  17  18
ATOM     18  C   UNL     1       0.707  -0.490  -1.238  0.00  0.00    -0.026 A 
ATOM     19  C   UNL     1       2.089  -0.511  -1.284  0.00  0.00    +0.005 A 
ATOM     20  C   UNL     1       2.736  -0.957  -2.421  0.00  0.00    +0.002 A 
ATOM     21  C   UNL     1       2.002  -1.382  -3.512  0.00  0.00    +0.028 A 
ATOM     22  C   UNL     1       0.620  -1.362  -3.466  0.00  0.00    +0.106 A 
ATOM     23  C   UNL     1      -0.027  -0.920  -2.327  0.00  0.00    +0.034 A 
BRANCH  22  24
ATOM     24  S   UNL     1      -0.316  -1.904  -4.857  0.00  0.00    +0.058 S 
ATOM     25  O   UNL     1      -1.586  -1.274  -4.762  0.00  0.00    -0.153 OA
ATOM     26  O   UNL     1       0.524  -1.758  -5.994  0.00  0.00    -0.153 OA
BRANCH  24  27
ATOM     27  N   UNL     1      -0.578  -3.528  -4.668  0.00  0.00    -0.193 NA
ATOM     28  C   UNL     1      -1.396  -4.014  -3.554  0.00  0.00    +0.127 C 
ATOM     29  H   UNL     1      -0.190  -4.158  -5.295  0.00  0.00    +0.148 HD
ENDBRANCH  24  27
ENDBRANCH  22  24
ENDBRANCH  17  18
ENDBRANCH   1  17
TORSDOF 5
