REMARK  Name = ZINC67391647
REMARK  11 active torsions:
REMARK  status: ('A' for Active; 'I' for Inactive)
REMARK    1  A    between atoms: C_1  and  C_2
REMARK    2  A    between atoms: C_4  and  C_27
REMARK    3  A    between atoms: N_5  and  C_7
REMARK    4  A    between atoms: C_7  and  C_8
REMARK    5  A    between atoms: C_8  and  C_10
REMARK    6  A    between atoms: C_8  and  C_11
REMARK    7  A    between atoms: C_11  and  N_12
REMARK    8  A    between atoms: N_15  and  N_16
REMARK    9  A    between atoms: C_17  and  C_19
REMARK   10  A    between atoms: C_19  and  C_20
REMARK   11  A    between atoms: C_20  and  C_21
REMARK                            x       y       z     vdW  Elec       q    Type
REMARK                         _______ _______ _______ _____ _____    ______ ____
ROOT
ATOM      1  N   UNL     1       2.915  -5.434   2.748  0.00  0.00    -0.298 N 
ATOM      2  C   UNL     1       3.181  -6.571   3.422  0.00  0.00    +0.316 C 
ATOM      3  O   UNL     1       2.271  -7.232   3.882  0.00  0.00    -0.251 OA
ATOM      4  N   UNL     1       4.457  -6.974   3.585  0.00  0.00    -0.218 N 
ATOM      5  H   UNL     1       3.641  -4.907   2.381  0.00  0.00    +0.150 HD
ATOM      6  H   UNL     1       4.648  -7.792   4.069  0.00  0.00    +0.174 HD
ENDROOT
BRANCH   4   7
ATOM      7  N   UNL     1       5.506  -6.212   3.054  0.00  0.00    -0.233 N 
ATOM      8  C   UNL     1       6.781  -6.615   3.217  0.00  0.00    +0.229 C 
ATOM      9  O   UNL     1       7.021  -7.638   3.823  0.00  0.00    -0.274 OA
ATOM     10  H   UNL     1       5.314  -5.394   2.569  0.00  0.00    +0.173 HD
BRANCH   8  11
ATOM     11  C   UNL     1       7.910  -5.796   2.646  0.00  0.00    +0.097 C 
BRANCH  11  12
ATOM     12  C   UNL     1       9.244  -6.470   2.970  0.00  0.00    +0.013 C 
BRANCH  12  13
ATOM     13  C   UNL     1      10.390  -5.638   2.390  0.00  0.00    -0.011 C 
ATOM     14  C   UNL     1      10.297  -5.636   0.863  0.00  0.00    +0.003 C 
ATOM     15  C   UNL     1      11.443  -4.804   0.283  0.00  0.00    +0.000 C 
ATOM     16  C   UNL     1      12.781  -5.410   0.712  0.00  0.00    +0.000 C 
ATOM     17  C   UNL     1      12.873  -5.411   2.239  0.00  0.00    +0.000 C 
ATOM     18  C   UNL     1      11.728  -6.243   2.819  0.00  0.00    +0.003 C 
ENDBRANCH  12  13
ENDBRANCH  11  12
ENDBRANCH   8  11
ENDBRANCH   4   7
BRANCH   1  19
ATOM     19  C   UNL     1       1.528  -4.995   2.571  0.00  0.00    +0.110 C 
BRANCH  19  20
ATOM     20  C   UNL     1       1.504  -3.688   1.777  0.00  0.00    +0.024 C 
ATOM     21  C   UNL     1       2.177  -2.583   2.595  0.00  0.00    +0.011 C 
BRANCH  20  22
ATOM     22  C   UNL     1       0.055  -3.295   1.485  0.00  0.00    +0.148 C 
BRANCH  22  27
ATOM     23  C   UNL     1      -0.018   1.503   0.010  0.00  0.00    +0.067 C 
ATOM     24  C   UNL     1       0.002  -0.004   0.002  0.00  0.00    +0.060 A 
ATOM     25  C   UNL     1       0.008  -0.818  -1.135  0.00  0.00    +0.047 A 
ATOM     26  C   UNL     1       0.028  -2.107  -0.725  0.00  0.00    +0.036 A 
ATOM     27  N   UNL     1       0.034  -2.109   0.625  0.00  0.00    -0.268 N 
ATOM     28  N   UNL     1       0.023  -0.777   1.058  0.00  0.00    -0.176 NA
ATOM     29  C   UNL     1       0.040  -3.323  -1.615  0.00  0.00    +0.065 C 
ENDBRANCH  22  27
ENDBRANCH  20  22
ENDBRANCH  19  20
ENDBRANCH   1  19
TORSDOF 8
