REMARK  Name = ZINC41033404
REMARK  4 active torsions:
REMARK  status: ('A' for Active; 'I' for Inactive)
REMARK    1  A    between atoms: C_1  and  C_2
REMARK    2  A    between atoms: C_5  and  C_8
REMARK    3  A    between atoms: C_5  and  N_21
REMARK    4  A    between atoms: C_14  and  C_17
REMARK                            x       y       z     vdW  Elec       q    Type
REMARK                         _______ _______ _______ _____ _____    ______ ____
ROOT
ATOM      1  C   UNL     1      -2.115  -0.061   3.751  0.00  0.00    +0.126 A 
ATOM      2  N   UNL     1      -3.196   0.675   3.788  0.00  0.00    -0.135 NA
ATOM      3  N   UNL     1      -3.534   0.910   5.007  0.00  0.00    -0.129 NA
ATOM      4  C   UNL     1      -2.672   0.328   5.824  0.00  0.00    +0.161 A 
ATOM      5  N   UNL     1      -1.747  -0.312   5.037  0.00  0.00    -0.287 N 
ATOM      6  C   UNL     1      -0.724  -1.014   5.603  0.00  0.00    +0.106 A 
ATOM      7  C   UNL     1      -0.608  -1.092   6.946  0.00  0.00    +0.071 A 
ATOM      8  C   UNL     1      -1.541  -0.451   7.778  0.00  0.00    +0.017 A 
ATOM      9  C   UNL     1      -2.562   0.259   7.226  0.00  0.00    +0.049 A 
ENDROOT
BRANCH   1  14
ATOM     10  C   UNL     1      -0.019   1.526   0.010  0.00  0.00    +0.007 C 
ATOM     11  C   UNL     1       0.002  -0.004   0.002  0.00  0.00    -0.014 C 
ATOM     12  C   UNL     1      -1.433  -0.534   0.013  0.00  0.00    +0.002 C 
ATOM     13  C   UNL     1      -2.149  -0.040   1.272  0.00  0.00    -0.005 C 
ATOM     14  C   UNL     1      -1.409  -0.547   2.511  0.00  0.00    -0.009 C 
ATOM     15  C   UNL     1       0.026  -0.018   2.500  0.00  0.00    -0.005 C 
ATOM     16  C   UNL     1       0.742  -0.511   1.242  0.00  0.00    +0.002 C 
BRANCH  14  17
ATOM     17  N   UNL     1      -1.389  -2.016   2.503  0.00  0.00    +0.387 N 
ATOM     18  H   UNL     1      -0.917  -2.341   1.673  0.00  0.00    -0.089 HD
ATOM     19  H   UNL     1      -0.901  -2.350   3.321  0.00  0.00    -0.089 HD
ATOM     20  H   UNL     1      -2.336  -2.365   2.510  0.00  0.00    -0.089 HD
ENDBRANCH  14  17
ENDBRANCH   1  14
BRANCH   7  21
ATOM     21  C   UNL     1       0.529  -1.872   7.555  0.00  0.00    +0.419 C 
ATOM     22  F   UNL     1       1.586  -1.004   7.848  0.00  0.00    -0.166 F 
ATOM     23  F   UNL     1       0.092  -2.489   8.732  0.00  0.00    -0.166 F 
ATOM     24  F   UNL     1       0.963  -2.847   6.651  0.00  0.00    -0.166 F 
ENDBRANCH   7  21
TORSDOF 3
