REMARK  Name = ZINC52634774
REMARK  3 active torsions:
REMARK  status: ('A' for Active; 'I' for Inactive)
REMARK    1  A    between atoms: C_1  and  N_2
REMARK    2  A    between atoms: C_7  and  C_13
REMARK    3  A    between atoms: C_10  and  N_12
REMARK                            x       y       z     vdW  Elec       q    Type
REMARK                         _______ _______ _______ _____ _____    ______ ____
ROOT
ATOM      1  C   UNL     1      -0.018   1.461   0.010  0.00  0.00    +0.129 C 
ATOM      2  N   UNL     1       0.002  -0.004   0.002  0.00  0.00    -0.329 N 
ATOM      3  C   UNL     1       0.009  -0.824  -1.124  0.00  0.00    +0.054 A 
ATOM      4  C   UNL     1      -0.002  -0.527  -2.484  0.00  0.00    +0.044 A 
ATOM      5  C   UNL     1       0.008  -1.561  -3.405  0.00  0.00    +0.113 A 
ATOM      6  N   UNL     1       0.027  -2.818  -3.017  0.00  0.00    -0.252 NA
ATOM      7  C   UNL     1       0.038  -3.156  -1.728  0.00  0.00    +0.108 A 
ATOM      8  C   UNL     1       0.029  -2.165  -0.735  0.00  0.00    +0.076 A 
ATOM      9  N   UNL     1       0.037  -2.253   0.654  0.00  0.00    -0.338 N 
ATOM     10  C   UNL     1       0.025  -0.881   1.180  0.00  0.00    +0.097 C 
ATOM     11  H   UNL     1       0.050  -3.069   1.179  0.00  0.00    +0.146 HD
ENDROOT
BRANCH   7  12
ATOM     12  C   UNL     1       0.059  -4.575  -1.344  0.00  0.00    +0.075 C 
ATOM     13  N   UNL     1       0.066  -5.059  -0.134  0.00  0.00    -0.242 NA
ATOM     14  C   UNL     1       0.086  -6.406  -0.099  0.00  0.00    +0.117 C 
ATOM     15  C   UNL     1       0.095  -6.947  -1.318  0.00  0.00    +0.034 C 
ATOM     16  C   UNL     1       0.071  -5.771  -2.277  0.00  0.00    +0.103 C 
ATOM     17 BR   UNL     1       0.123  -8.786  -1.758  0.00  0.00    -0.052 Br
ATOM     18 BR   UNL     1       0.102  -7.416   1.500  0.00  0.00    -0.028 Br
ENDBRANCH   7  12
BRANCH  10  19
ATOM     19  N   UNL     1       1.234  -0.630   1.976  0.00  0.00    +0.400 N 
ATOM     20  H   UNL     1       1.242   0.332   2.280  0.00  0.00    -0.085 HD
ATOM     21  H   UNL     1       1.239  -1.238   2.781  0.00  0.00    -0.085 HD
ATOM     22  H   UNL     1       2.051  -0.812   1.412  0.00  0.00    -0.085 HD
ENDBRANCH  10  19
TORSDOF 2
