REMARK  Name = ZINC09673142
REMARK  7 active torsions:
REMARK  status: ('A' for Active; 'I' for Inactive)
REMARK    1  A    between atoms: C_1  and  C_2
REMARK    2  A    between atoms: C_5  and  S_25
REMARK    3  A    between atoms: C_10  and  C_11
REMARK    4  A    between atoms: N_13  and  C_14
REMARK    5  A    between atoms: C_19  and  C_24
REMARK    6  A    between atoms: C_21  and  C_23
REMARK    7  A    between atoms: S_25  and  N_28
REMARK                            x       y       z     vdW  Elec       q    Type
REMARK                         _______ _______ _______ _____ _____    ______ ____
ROOT
ATOM      1  C   UNL     1       3.638   0.938  -0.028  0.00  0.00    +0.048 C 
ATOM      2  C   UNL     1       2.136   0.822  -0.014  0.00  0.00    +0.008 A 
ATOM      3  C   UNL     1       1.349  -0.411  -0.013  0.00  0.00    +0.026 A 
ATOM      4  C   UNL     1       1.670  -1.771  -0.023  0.00  0.00    +0.040 A 
ATOM      5  C   UNL     1       0.670  -2.702  -0.018  0.00  0.00    +0.106 A 
ATOM      6  C   UNL     1      -0.660  -2.306  -0.003  0.00  0.00    +0.032 A 
ATOM      7  C   UNL     1      -0.998  -0.970   0.007  0.00  0.00    +0.049 A 
ATOM      8  C   UNL     1       0.002  -0.004   0.002  0.00  0.00    +0.136 A 
ATOM      9  O   UNL     1      -0.016   1.343   0.009  0.00  0.00    -0.450 OA
ATOM     10  C   UNL     1       1.238   1.841   0.000  0.00  0.00    +0.193 A 
ENDROOT
BRANCH  10  11
ATOM     11  C   UNL     1       1.581   3.270   0.004  0.00  0.00    +0.280 C 
ATOM     12  O   UNL     1       2.747   3.616  -0.005  0.00  0.00    -0.267 OA
ATOM     13  N   UNL     1       0.603   4.197   0.019  0.00  0.00    -0.306 N 
ATOM     14  H   UNL     1      -0.327   3.922   0.027  0.00  0.00    +0.149 HD
BRANCH  13  15
ATOM     15  C   UNL     1       0.945   5.622   0.024  0.00  0.00    +0.076 C 
ATOM     16  C   UNL     1       1.172   6.096  -1.413  0.00  0.00    +0.022 C 
ATOM     17  C   UNL     1       1.529   7.584  -1.409  0.00  0.00    +0.002 C 
ATOM     18  C   UNL     1       0.383   8.382  -0.783  0.00  0.00    +0.003 C 
ATOM     19  C   UNL     1       0.156   7.907   0.654  0.00  0.00    -0.009 C 
ATOM     20  C   UNL     1      -0.201   6.420   0.649  0.00  0.00    +0.009 C 
ATOM     21  C   UNL     1      -0.428   5.945   2.086  0.00  0.00    +0.009 C 
ATOM     22  C   UNL     1      -0.990   8.705   1.279  0.00  0.00    +0.008 C 
ENDBRANCH  13  15
ENDBRANCH  10  11
BRANCH   5  23
ATOM     23  S   UNL     1       1.072  -4.418  -0.030  0.00  0.00    +0.061 S 
ATOM     24  O   UNL     1      -0.052  -5.095  -0.574  0.00  0.00    -0.153 OA
ATOM     25  O   UNL     1       2.372  -4.526  -0.594  0.00  0.00    -0.153 OA
BRANCH  23  26
ATOM     26  N   UNL     1       1.199  -4.902   1.548  0.00  0.00    -0.177 NA
ATOM     27  C   UNL     1       2.489  -4.820   2.197  0.00  0.00    +0.109 C 
ATOM     28  C   UNL     1       3.272  -6.131   1.976  0.00  0.00    +0.017 C 
ATOM     29  C   UNL     1       2.673  -7.222   2.762  0.00  0.00    +0.001 C 
ATOM     30  C   UNL     1       1.239  -7.565   2.369  0.00  0.00    +0.001 C 
ATOM     31  C   UNL     1       0.288  -6.646   3.094  0.00  0.00    +0.017 C 
ATOM     32  C   UNL     1      -0.008  -5.405   2.233  0.00  0.00    +0.109 C 
ENDBRANCH  23  26
ENDBRANCH   5  23
TORSDOF 4
