REMARK  Name = ZINC01430779
REMARK  6 active torsions:
REMARK  status: ('A' for Active; 'I' for Inactive)
REMARK    1  A    between atoms: C_5  and  C_7
REMARK    2  A    between atoms: C_7  and  S_8
REMARK    3  A    between atoms: S_8  and  C_9
REMARK    4  A    between atoms: C_16  and  N_29
REMARK    5  A    between atoms: C_17  and  C_27
REMARK    6  A    between atoms: C_18  and  C_20
REMARK                            x       y       z     vdW  Elec       q    Type
REMARK                         _______ _______ _______ _____ _____    ______ ____
ROOT
ATOM      1  C   UNL     1      -1.520  -3.139  -3.435  0.00  0.00    +0.193 A 
ATOM      2  N   UNL     1      -1.740  -1.835  -3.532  0.00  0.00    -0.207 NA
ATOM      3  C   UNL     1      -1.675  -1.054  -2.457  0.00  0.00    +0.128 A 
ATOM      4  C   UNL     1      -1.373  -1.628  -1.224  0.00  0.00    +0.067 A 
ATOM      5  C   UNL     1      -1.150  -2.993  -1.161  0.00  0.00    +0.232 A 
ATOM      6  N   UNL     1      -1.230  -3.714  -2.277  0.00  0.00    -0.186 NA
ATOM      7  O   UNL     1      -0.854  -3.594   0.013  0.00  0.00    -0.423 OA
ATOM      8  C   UNL     1      -1.132  -2.974   1.173  0.00  0.00    +0.200 C 
ATOM      9  C   UNL     1      -1.349  -1.641   1.238  0.00  0.00    +0.098 C 
ATOM     10  C   UNL     1      -1.293  -0.775   0.011  0.00  0.00    +0.103 C 
ATOM     11  N   UNL     1      -1.906   0.309  -2.562  0.00  0.00    -0.343 N 
ATOM     12  H   UNL     1      -1.858   0.871  -1.772  0.00  0.00    +0.144 HD
ATOM     13  H   UNL     1      -2.116   0.700  -3.424  0.00  0.00    +0.144 HD
ENDROOT
BRANCH  10  14
ATOM     14  C   UNL     1       0.002  -0.004   0.002  0.00  0.00    -0.032 A 
ATOM     15  C   UNL     1      -0.017   1.378   0.010  0.00  0.00    +0.005 A 
ATOM     16  C   UNL     1       1.170   2.087   0.002  0.00  0.00    +0.003 A 
ATOM     17  C   UNL     1       2.377   1.414  -0.013  0.00  0.00    +0.038 A 
ATOM     18  C   UNL     1       2.397   0.029  -0.021  0.00  0.00    +0.124 A 
ATOM     19  C   UNL     1       1.208  -0.679  -0.013  0.00  0.00    +0.043 A 
ATOM     20  F   UNL     1       3.577  -0.629  -0.036  0.00  0.00    -0.205 F 
ENDBRANCH  10  14
BRANCH   8  21
ATOM     21  N   UNL     1      -1.195  -3.716   2.325  0.00  0.00    -0.328 N 
ATOM     22  H   UNL     1      -1.041  -4.673   2.294  0.00  0.00    +0.145 HD
ATOM     23  H   UNL     1      -1.395  -3.284   3.170  0.00  0.00    +0.145 HD
ENDBRANCH   8  21
BRANCH   9  24
ATOM     24  C   UNL     1      -1.639  -1.044   2.507  0.00  0.00    +0.101 C 
ATOM     25  N   UNL     1      -1.869  -0.569   3.513  0.00  0.00    -0.191 NA
ENDBRANCH   9  24
BRANCH   1  26
ATOM     26  S   UNL     1      -1.616  -4.134  -4.885  0.00  0.00    -0.081 S 
BRANCH  26  27
ATOM     27  C   UNL     1      -2.025  -2.866  -6.110  0.00  0.00    +0.114 C 
BRANCH  27  32
ATOM     28  C   UNL     1      -3.514  -4.566  -9.135  0.00  0.00    +0.000 A 
ATOM     29  C   UNL     1      -2.410  -4.677  -9.961  0.00  0.00    +0.001 A 
ATOM     30  C   UNL     1      -1.182  -4.203  -9.541  0.00  0.00    +0.020 A 
ATOM     31  C   UNL     1      -1.058  -3.611  -8.296  0.00  0.00    +0.045 A 
ATOM     32  C   UNL     1      -2.161  -3.505  -7.468  0.00  0.00    -0.019 A 
ATOM     33  C   UNL     1      -3.389  -3.979  -7.890  0.00  0.00    +0.006 A 
ATOM     34 CL   UNL     1       0.483  -3.009  -7.771  0.00  0.00    -0.083 Cl
ENDBRANCH  27  32
ENDBRANCH  26  27
ENDBRANCH   1  26
TORSDOF 6
