REMARK  Name = ZINC31813992
REMARK  8 active torsions:
REMARK  status: ('A' for Active; 'I' for Inactive)
REMARK    1  A    between atoms: C_1  and  C_2
REMARK    2  A    between atoms: C_2  and  N_3
REMARK    3  A    between atoms: C_7  and  C_9
REMARK    4  A    between atoms: C_9  and  N_10
REMARK    5  A    between atoms: C_11  and  C_13
REMARK    6  A    between atoms: C_15  and  C_18
REMARK    7  A    between atoms: C_18  and  O_19
REMARK    8  A    between atoms: O_19  and  C_20
REMARK                            x       y       z     vdW  Elec       q    Type
REMARK                         _______ _______ _______ _____ _____    ______ ____
ROOT
ATOM      1  C   UNL     1      -3.500  -1.306   3.777  0.00  0.00    +0.313 A 
ATOM      2  N   UNL     1      -4.366  -1.442   4.751  0.00  0.00    -0.184 NA
ATOM      3  C   UNL     1      -5.449  -0.702   4.508  0.00  0.00    +0.209 A 
ATOM      4  N   UNL     1      -5.294  -0.080   3.374  0.00  0.00    -0.057 NA
ATOM      5  O   UNL     1      -4.019  -0.455   2.875  0.00  0.00    -0.328 OA
ENDROOT
BRANCH   1   7
ATOM      6  N   UNL     1      -1.377  -1.737   2.629  0.00  0.00    -0.309 N 
ATOM      7  C   UNL     1      -2.177  -1.969   3.688  0.00  0.00    +0.302 C 
ATOM      8  O   UNL     1      -1.815  -2.722   4.570  0.00  0.00    -0.265 OA
ATOM      9  H   UNL     1      -1.666  -1.136   1.925  0.00  0.00    +0.149 HD
BRANCH   6  10
ATOM     10  C   UNL     1      -0.070  -2.393   2.541  0.00  0.00    +0.089 C 
BRANCH  10  15
ATOM     11  N   UNL     1       0.713  -0.491   1.192  0.00  0.00    +0.382 N 
ATOM     12  C   UNL     1       2.136  -0.100   1.116  0.00  0.00    -0.078 C 
ATOM     13  C   UNL     1       2.907  -1.290   1.740  0.00  0.00    -0.020 C 
ATOM     14  C   UNL     1       2.078  -2.500   1.235  0.00  0.00    -0.016 C 
ATOM     15  C   UNL     1       0.632  -1.962   1.251  0.00  0.00    -0.051 C 
ATOM     16  H   UNL     1       0.298  -0.094   2.022  0.00  0.00    -0.081 HD
BRANCH  11  18
ATOM     17  C   UNL     1      -0.019   1.526   0.010  0.00  0.00    -0.017 C 
ATOM     18  C   UNL     1       0.002  -0.004   0.002  0.00  0.00    -0.082 C 
ENDBRANCH  11  18
ENDBRANCH  10  15
ENDBRANCH   6  10
ENDBRANCH   1   7
BRANCH   3  19
ATOM     19  C   UNL     1      -6.658  -0.603   5.402  0.00  0.00    +0.308 C 
BRANCH  19  20
ATOM     20  O   UNL     1      -6.476   0.467   6.332  0.00  0.00    -0.484 OA
BRANCH  20  21
ATOM     21  C   UNL     1      -7.482   0.693   7.217  0.00  0.00    +0.123 A 
ATOM     22  C   UNL     1      -8.619  -0.103   7.194  0.00  0.00    +0.046 A 
ATOM     23  C   UNL     1      -9.644   0.127   8.092  0.00  0.00    +0.009 A 
ATOM     24  C   UNL     1      -9.539   1.147   9.017  0.00  0.00    -0.025 A 
ATOM     25  C   UNL     1      -8.403   1.946   9.045  0.00  0.00    +0.040 A 
ATOM     26  C   UNL     1      -7.371   1.715   8.147  0.00  0.00    +0.069 A 
ATOM     27  N   UNL     1      -8.300   2.979   9.983  0.00  0.00    -0.285 N 
ATOM     28  C   UNL     1      -9.083   2.987  11.077  0.00  0.00    +0.218 C 
ATOM     29  O   UNL     1      -8.990   3.897  11.873  0.00  0.00    -0.275 OA
ATOM     30  C   UNL     1     -10.072   1.880  11.325  0.00  0.00    +0.101 C 
ATOM     31  C   UNL     1     -10.656   1.397   9.997  0.00  0.00    +0.046 C 
ATOM     32  H   UNL     1      -7.659   3.693   9.844  0.00  0.00    +0.155 HD
ENDBRANCH  20  21
ENDBRANCH  19  20
ENDBRANCH   3  19
TORSDOF 7
