REMARK  Name = ZINC63351383
REMARK  10 active torsions:
REMARK  status: ('A' for Active; 'I' for Inactive)
REMARK    1  A    between atoms: C_1  and  C_2
REMARK    2  A    between atoms: C_2  and  C_4
REMARK    3  A    between atoms: C_10  and  C_44
REMARK    4  A    between atoms: N_22  and  O_23
REMARK    5  A    between atoms: O_23  and  C_24
REMARK    6  A    between atoms: C_24  and  C_25
REMARK    7  A    between atoms: N_27  and  C_28
REMARK    8  A    between atoms: C_28  and  C_29
REMARK    9  A    between atoms: C_29  and  C_30
REMARK   10  A    between atoms: C_42  and  C_43
REMARK                            x       y       z     vdW  Elec       q    Type
REMARK                         _______ _______ _______ _____ _____    ______ ____
ROOT
ATOM      1  C   UNL     1      -1.293  -0.775   0.010  0.00  0.00    +0.061 C 
ATOM      2  C   UNL     1      -1.704  -1.109   1.459  0.00  0.00    +0.012 C 
ATOM      3  C   UNL     1      -1.738  -2.650   1.560  0.00  0.00    +0.005 C 
ATOM      4  C   UNL     1      -0.774  -3.119   0.429  0.00  0.00    -0.001 C 
ATOM      5  C   UNL     1      -1.109  -2.125  -0.696  0.00  0.00    -0.019 C 
ATOM      6  C   UNL     1      -0.045  -2.081  -1.770  0.00  0.00    +0.008 C 
ATOM      7  C   UNL     1       1.318  -1.776  -1.156  0.00  0.00    +0.005 C 
ATOM      8  C   UNL     1       1.676  -2.885  -0.154  0.00  0.00    +0.002 C 
ATOM      9  C   UNL     1       0.649  -2.930   0.972  0.00  0.00    -0.003 C 
ATOM     10  C   UNL     1       0.901  -4.051   1.977  0.00  0.00    +0.008 C 
ATOM     11  C   UNL     1       2.379  -4.373   2.141  0.00  0.00    +0.031 C 
ATOM     12  C   UNL     1       3.198  -3.152   1.801  0.00  0.00    -0.062 C 
ATOM     13  C   UNL     1       3.999  -2.605   2.702  0.00  0.00    +0.026 C 
ATOM     14  C   UNL     1       4.790  -1.410   2.384  0.00  0.00    +0.080 C 
ATOM     15  N   UNL     1       5.588  -0.905   3.270  0.00  0.00    -0.089 NA
ATOM     16  C   UNL     1       4.673  -0.773   1.021  0.00  0.00    +0.059 C 
ATOM     17  C   UNL     1       3.281  -1.069   0.453  0.00  0.00    +0.017 C 
ATOM     18  C   UNL     1       3.072  -2.559   0.393  0.00  0.00    -0.007 C 
ATOM     19  C   UNL     1       4.133  -3.188  -0.512  0.00  0.00    +0.016 C 
ATOM     20  C   UNL     1      -2.434  -2.533  -1.344  0.00  0.00    +0.012 C 
ENDROOT
BRANCH   1  22
ATOM     21  C   UNL     1       0.368   0.842  -1.190  0.00  0.00    +0.086 C 
ATOM     22  C   UNL     1       0.002  -0.004   0.002  0.00  0.00    +0.134 C 
ATOM     23  O   UNL     1       0.747  -0.064   0.951  0.00  0.00    -0.297 OA
ENDBRANCH   1  22
BRANCH  15  24
ATOM     24  O   UNL     1       6.351   0.248   2.962  0.00  0.00    -0.384 OA
BRANCH  24  25
ATOM     25  C   UNL     1       7.186   0.696   4.031  0.00  0.00    +0.358 C 
BRANCH  25  26
ATOM     26  C   UNL     1       7.948   1.920   3.594  0.00  0.00    +0.253 C 
ATOM     27  O   UNL     1       7.791   2.366   2.477  0.00  0.00    -0.272 OA
ATOM     28  N   UNL     1       8.803   2.521   4.445  0.00  0.00    -0.312 N 
ATOM     29  H   UNL     1       8.929   2.164   5.339  0.00  0.00    +0.149 HD
BRANCH  28  30
ATOM     30  C   UNL     1       9.544   3.711   4.021  0.00  0.00    +0.106 C 
BRANCH  30  31
ATOM     31  C   UNL     1      10.438   4.191   5.166  0.00  0.00    +0.047 C 
BRANCH  31  32
ATOM     32  C   UNL     1      11.212   5.434   4.723  0.00  0.00    +0.104 C 
ATOM     33  C   UNL     1      12.148   5.885   5.821  0.00  0.00    +0.007 C 
ATOM     34  C   UNL     1      11.759   7.136   6.156  0.00  0.00    -0.004 A 
ATOM     35  C   UNL     1      12.258   8.102   7.142  0.00  0.00    +0.010 A 
ATOM     36  C   UNL     1      11.647   9.304   7.250  0.00  0.00    +0.001 A 
ATOM     37  C   UNL     1      10.552   9.649   6.446  0.00  0.00    +0.002 A 
ATOM     38  C   UNL     1      10.037   8.815   5.518  0.00  0.00    +0.026 A 
ATOM     39  C   UNL     1      10.601   7.524   5.319  0.00  0.00    +0.043 A 
ATOM     40  N   UNL     1      10.287   6.551   4.497  0.00  0.00    -0.378 N 
ATOM     41  H   UNL     1       9.566   6.566   3.849  0.00  0.00    +0.160 HD
ENDBRANCH  31  32
ENDBRANCH  30  31
ENDBRANCH  28  30
ENDBRANCH  25  26
ENDBRANCH  24  25
ENDBRANCH  15  24
TORSDOF 7
