REMARK  Name = ZINC15320539
REMARK  8 active torsions:
REMARK  status: ('A' for Active; 'I' for Inactive)
REMARK    1  A    between atoms: C_1  and  C_2
REMARK    2  A    between atoms: C_2  and  C_3
REMARK    3  A    between atoms: C_2  and  C_4
REMARK    4  A    between atoms: C_4  and  C_5
REMARK    5  A    between atoms: C_5  and  C_25
REMARK    6  A    between atoms: C_10  and  C_12
REMARK    7  A    between atoms: C_17  and  O_18
REMARK    8  A    between atoms: N_21  and  C_24
REMARK                            x       y       z     vdW  Elec       q    Type
REMARK                         _______ _______ _______ _____ _____    ______ ____
ROOT
ATOM      1  C   UNL     1       2.810  -3.611   0.855  0.00  0.00    +0.048 C 
ATOM      2  C   UNL     1       1.681  -3.862   1.786  0.00  0.00    +0.086 C 
ATOM      3  C   UNL     1       1.388  -2.400   2.310  0.00  0.00    +0.077 C 
ATOM      4  C   UNL     1       1.315  -1.711   0.968  0.00  0.00    -0.023 C 
ATOM      5  C   UNL     1       0.245  -2.720   3.195  0.00  0.00    +0.224 C 
ATOM      6  O   UNL     1      -0.736  -2.038   3.405  0.00  0.00    -0.275 OA
ATOM      7  N   UNL     1       0.531  -3.950   3.726  0.00  0.00    -0.245 N 
ATOM      8  C   UNL     1       1.527  -4.600   3.041  0.00  0.00    +0.225 C 
ATOM      9  O   UNL     1       2.158  -5.572   3.399  0.00  0.00    -0.275 OA
ATOM     10  C   UNL     1      -0.151  -4.510   4.895  0.00  0.00    +0.141 C 
ATOM     11  N   UNL     1       2.502  -2.277   0.259  0.00  0.00    +0.396 N 
ATOM     12  H   UNL     1       2.291  -2.383  -0.740  0.00  0.00    -0.083 HD
ATOM     13  H   UNL     1       3.307  -1.651   0.374  0.00  0.00    -0.083 HD
ENDROOT
BRANCH   4  14
ATOM     14  C   UNL     1       1.437  -0.217   1.126  0.00  0.00    -0.019 A 
ATOM     15  C   UNL     1       2.659   0.401   0.940  0.00  0.00    +0.005 A 
ATOM     16  C   UNL     1       2.771   1.771   1.085  0.00  0.00    +0.000 A 
ATOM     17  C   UNL     1       1.661   2.527   1.415  0.00  0.00    +0.004 A 
ATOM     18  C   UNL     1       0.437   1.914   1.601  0.00  0.00    +0.045 A 
ATOM     19  C   UNL     1       0.322   0.539   1.457  0.00  0.00    +0.118 A 
BRANCH  19  20
ATOM     20  O   UNL     1      -0.881  -0.066   1.640  0.00  0.00    -0.507 OA
ATOM     21  H   UNL     1      -1.412  -0.136   0.835  0.00  0.00    +0.292 HD
ENDBRANCH  19  20
ENDBRANCH   4  14
BRANCH   1  22
ATOM     22  C   UNL     1       2.856  -4.673  -0.214  0.00  0.00    +0.346 C 
ATOM     23  O   UNL     1       2.380  -5.763  -0.003  0.00  0.00    -0.248 OA
ATOM     24  O   UNL     1       3.425  -4.407  -1.400  0.00  0.00    -0.248 OA
ENDBRANCH   1  22
BRANCH   1  25
ATOM     25  C   UNL     1       4.134  -3.569   1.621  0.00  0.00    +0.002 C 
BRANCH  25  27
ATOM     26  C   UNL     1       5.209  -2.059  -0.054  0.00  0.00    +0.007 C 
ATOM     27  C   UNL     1       5.292  -3.425   0.631  0.00  0.00    -0.018 C 
ATOM     28  C   UNL     1       6.621  -3.540   1.380  0.00  0.00    +0.007 C 
ENDBRANCH  25  27
ENDBRANCH   1  25
TORSDOF 5
