REMARK  Name = ZINC04673549
REMARK  5 active torsions:
REMARK  status: ('A' for Active; 'I' for Inactive)
REMARK    1  A    between atoms: C_1  and  C_2
REMARK    2  A    between atoms: C_2  and  C_3
REMARK    3  A    between atoms: C_3  and  C_17
REMARK    4  A    between atoms: N_4  and  N_5
REMARK    5  A    between atoms: C_12  and  C_16
REMARK                            x       y       z     vdW  Elec       q    Type
REMARK                         _______ _______ _______ _____ _____    ______ ____
ROOT
ATOM      1  N   UNL     1       2.413  -1.297   0.117  0.00  0.00    -0.214 N 
ATOM      2  C   UNL     1       3.697  -1.803   0.219  0.00  0.00    +0.201 A 
ATOM      3  N   UNL     1       4.537  -2.111  -0.733  0.00  0.00    -0.137 NA
ATOM      4  N   UNL     1       5.805  -2.608  -0.449  0.00  0.00    -0.169 N 
ATOM      5  C   UNL     1       6.772  -2.962  -1.346  0.00  0.00    +0.275 A 
ATOM      6  O   UNL     1       6.564  -2.849  -2.545  0.00  0.00    -0.266 OA
ATOM      7  C   UNL     1       7.996  -3.454  -0.893  0.00  0.00    +0.095 A 
ATOM      8  C   UNL     1       8.223  -3.580   0.462  0.00  0.00    +0.046 A 
ATOM      9  N   UNL     1       7.259  -3.226   1.308  0.00  0.00    -0.227 NA
ATOM     10  C   UNL     1       6.113  -2.765   0.874  0.00  0.00    +0.201 A 
ATOM     11  S   UNL     1       4.631  -2.208   1.686  0.00  0.00    -0.011 S 
ATOM     12  C   UNL     1       9.538  -4.108   0.973  0.00  0.00    +0.066 C 
ATOM     13  H   UNL     1       1.897  -1.117   0.919  0.00  0.00    +0.177 HD
ENDROOT
BRANCH   1  15
ATOM     14  C   UNL     1       0.707  -0.491  -1.238  0.00  0.00    +0.034 C 
ATOM     15  N   UNL     1       1.857  -1.046  -1.144  0.00  0.00    -0.190 NA
ATOM     16  C   UNL     1       0.051  -0.340  -2.586  0.00  0.00    +0.062 C 
BRANCH  14  18
ATOM     17  C   UNL     1      -0.830  -1.116   0.605  0.00  0.00    +0.010 C 
ATOM     18  C   UNL     1       0.009   0.011   0.000  0.00  0.00    +0.049 C 
ENDBRANCH  14  18
ENDBRANCH   1  15
TORSDOF 2
