REMARK  Name = ZINC39666909
REMARK  10 active torsions:
REMARK  status: ('A' for Active; 'I' for Inactive)
REMARK    1  A    between atoms: C_1  and  C_2
REMARK    2  A    between atoms: C_2  and  C_3
REMARK    3  A    between atoms: C_3  and  C_4
REMARK    4  A    between atoms: C_3  and  C_6
REMARK    5  A    between atoms: C_4  and  C_5
REMARK    6  A    between atoms: C_6  and  N_7
REMARK    7  A    between atoms: C_8  and  C_10
REMARK    8  A    between atoms: C_21  and  C_23
REMARK    9  A    between atoms: C_30  and  C_34
REMARK   10  A    between atoms: N_32  and  C_33
REMARK                            x       y       z     vdW  Elec       q    Type
REMARK                         _______ _______ _______ _____ _____    ______ ____
ROOT
ATOM      1  C   UNL     1       2.180  -6.095   3.636  0.00  0.00    +0.100 C 
ATOM      2  C   UNL     1       3.648  -5.809   3.248  0.00  0.00    +0.121 C 
ATOM      3  N   UNL     1       4.343  -7.105   3.431  0.00  0.00    -0.296 N 
ATOM      4  C   UNL     1       3.375  -8.115   2.939  0.00  0.00    +0.115 C 
ATOM      5  C   UNL     1       2.005  -7.609   3.432  0.00  0.00    -0.004 C 
ATOM      6  C   UNL     1       0.934  -7.880   2.379  0.00  0.00    -0.010 C 
ATOM      7  C   UNL     1       0.737  -9.392   2.236  0.00  0.00    -0.082 C 
ATOM      8  N   UNL     1       0.336  -9.960   3.528  0.00  0.00    +0.379 N 
ATOM      9  C   UNL     1       1.411  -9.777   4.511  0.00  0.00    -0.082 C 
ATOM     10  C   UNL     1       1.637  -8.281   4.751  0.00  0.00    -0.010 C 
ATOM     11  C   UNL     1       5.576  -7.317   3.932  0.00  0.00    +0.250 C 
ATOM     12  O   UNL     1       6.046  -8.438   3.934  0.00  0.00    -0.270 OA
ATOM     13  H   UNL     1      -0.499  -9.495   3.854  0.00  0.00    -0.086 HD
ATOM     14  H   UNL     1       0.147 -10.945   3.417  0.00  0.00    -0.086 HD
ENDROOT
BRANCH  11  15
ATOM     15  C   UNL     1       6.354  -6.189   4.479  0.00  0.00    +0.074 A 
ATOM     16  C   UNL     1       6.261  -4.915   3.901  0.00  0.00    +0.127 A 
ATOM     17  N   UNL     1       6.944  -3.899   4.372  0.00  0.00    -0.235 NA
ATOM     18  C   UNL     1       7.757  -4.023   5.417  0.00  0.00    +0.160 A 
ATOM     19  C   UNL     1       7.907  -5.271   6.056  0.00  0.00    +0.060 A 
ATOM     20  C   UNL     1       7.190  -6.375   5.583  0.00  0.00    +0.067 A 
ATOM     21 CL   UNL     1       7.338  -7.929   6.342  0.00  0.00    -0.082 Cl
ATOM     22  C   UNL     1       8.854  -5.066   7.146  0.00  0.00    +0.071 A 
ATOM     23  N   UNL     1       9.210  -3.814   7.128  0.00  0.00    -0.174 NA
ATOM     24  N   UNL     1       8.561  -3.145   6.086  0.00  0.00    -0.249 N 
ATOM     25  C   UNL     1       8.719  -1.724   5.763  0.00  0.00    +0.174 C 
ATOM     26  C   UNL     1       9.333  -6.114   8.118  0.00  0.00    +0.068 C 
ENDBRANCH  11  15
BRANCH   1  28
ATOM     27  N   UNL     1       0.036  -4.941   3.198  0.00  0.00    -0.315 N 
ATOM     28  C   UNL     1       1.241  -5.332   2.737  0.00  0.00    +0.218 C 
ATOM     29  O   UNL     1       1.569  -5.071   1.600  0.00  0.00    -0.275 OA
ATOM     30  H   UNL     1      -0.226  -5.150   4.108  0.00  0.00    +0.149 HD
BRANCH  27  31
ATOM     31  C   UNL     1      -0.876  -4.199   2.324  0.00  0.00    +0.107 C 
BRANCH  31  32
ATOM     32  C   UNL     1      -2.212  -3.992   3.041  0.00  0.00    +0.006 C 
BRANCH  32  34
ATOM     33  C   UNL     1      -4.404  -2.795   2.954  0.00  0.00    +0.004 C 
ATOM     34  C   UNL     1      -3.118  -3.104   2.185  0.00  0.00    +0.002 C 
ENDBRANCH  32  34
BRANCH  32  35
ATOM     35  C   UNL     1      -2.888  -5.347   3.261  0.00  0.00    +0.002 C 
ATOM     36  C   UNL     1      -3.174  -6.001   1.907  0.00  0.00    +0.004 C 
ENDBRANCH  32  35
ENDBRANCH  31  32
ENDBRANCH  27  31
ENDBRANCH   1  28
TORSDOF 6
