REMARK  Name = ZINC20129997
REMARK  6 active torsions:
REMARK  status: ('A' for Active; 'I' for Inactive)
REMARK    1  A    between atoms: C_1  and  C_2
REMARK    2  A    between atoms: C_2  and  C_25
REMARK    3  A    between atoms: C_4  and  N_18
REMARK    4  A    between atoms: C_9  and  O_15
REMARK    5  A    between atoms: O_15  and  C_16
REMARK    6  A    between atoms: N_18  and  C_19
REMARK                            x       y       z     vdW  Elec       q    Type
REMARK                         _______ _______ _______ _____ _____    ______ ____
ROOT
ATOM      1  C   UNL     1      -4.596   1.262   1.818  0.00  0.00    +0.011 C 
ATOM      2  C   UNL     1      -3.836   0.730   3.034  0.00  0.00    -0.024 C 
ATOM      3  C   UNL     1      -2.402   1.276   3.027  0.00  0.00    +0.058 C 
ATOM      4  C   UNL     1      -1.702   0.789   1.782  0.00  0.00    +0.020 C 
ATOM      5  C   UNL     1      -2.035  -0.373   1.227  0.00  0.00    +0.052 C 
ATOM      6  C   UNL     1      -3.052  -1.234   1.736  0.00  0.00    +0.058 C 
ATOM      7  N   UNL     1      -3.357  -2.359   1.179  0.00  0.00    -0.243 NA
ATOM      8  C   UNL     1      -2.920  -3.038   0.103  0.00  0.00    +0.158 A 
ATOM      9  C   UNL     1      -3.469  -4.282  -0.256  0.00  0.00    +0.245 A 
ATOM     10  N   UNL     1      -2.994  -4.904  -1.330  0.00  0.00    -0.200 NA
ATOM     11  C   UNL     1      -2.028  -4.396  -2.068  0.00  0.00    +0.226 A 
ATOM     12  N   UNL     1      -1.472  -3.226  -1.778  0.00  0.00    -0.226 NA
ATOM     13  C   UNL     1      -1.888  -2.555  -0.735  0.00  0.00    +0.134 A 
ATOM     14  S   UNL     1      -1.223  -0.981  -0.241  0.00  0.00    -0.064 S 
ATOM     15  C   UNL     1      -3.793  -0.798   2.982  0.00  0.00    +0.063 C 
ATOM     16  C   UNL     1      -4.545   1.177   4.315  0.00  0.00    +0.011 C 
ENDROOT
BRANCH   9  17
ATOM     17  O   UNL     1      -4.464  -4.836   0.479  0.00  0.00    -0.478 OA
ATOM     18  C   UNL     1      -4.965  -6.102   0.044  0.00  0.00    +0.279 C 
ENDBRANCH   9  17
BRANCH   4  19
ATOM     19  N   UNL     1      -0.698   1.558   1.213  0.00  0.00    -0.343 N 
ATOM     20  H   UNL     1      -0.244   1.252   0.260  0.00  0.00    +0.146 HD
BRANCH  19  21
ATOM     21  C   UNL     1      -0.243   2.779   1.883  0.00  0.00    +0.070 C 
ATOM     22  C   UNL     1       0.739   2.413   2.998  0.00  0.00    +0.022 C 
ATOM     23  C   UNL     1       1.215   3.688   3.697  0.00  0.00    +0.002 C 
ATOM     24  C   UNL     1       1.911   4.597   2.683  0.00  0.00    +0.000 C 
ATOM     25  C   UNL     1       0.929   4.963   1.568  0.00  0.00    +0.002 C 
ATOM     26  C   UNL     1       0.453   3.688   0.869  0.00  0.00    +0.022 C 
ENDBRANCH  19  21
ENDBRANCH   4  19
TORSDOF 3
