REMARK  Name = ZINC14146962
REMARK  8 active torsions:
REMARK  status: ('A' for Active; 'I' for Inactive)
REMARK    1  A    between atoms: C_1  and  C_2
REMARK    2  A    between atoms: C_6  and  N_9
REMARK    3  A    between atoms: C_7  and  C_8
REMARK    4  A    between atoms: C_13  and  C_15
REMARK    5  A    between atoms: C_15  and  O_16
REMARK    6  A    between atoms: O_16  and  C_17
REMARK    7  A    between atoms: C_17  and  C_19
REMARK    8  A    between atoms: C_19  and  O_25
REMARK                            x       y       z     vdW  Elec       q    Type
REMARK                         _______ _______ _______ _____ _____    ______ ____
ROOT
ATOM      1  N   UNL     1      -2.985  -5.176   0.003  0.00  0.00    -0.269 N 
ATOM      2  C   UNL     1      -1.928  -4.341  -0.007  0.00  0.00    +0.310 C 
ATOM      3  O   UNL     1      -0.798  -4.790  -0.012  0.00  0.00    -0.252 OA
ATOM      4  N   UNL     1      -2.123  -3.007  -0.010  0.00  0.00    -0.237 N 
ATOM      5  C   UNL     1      -1.066  -2.171  -0.020  0.00  0.00    +0.258 C 
ATOM      6  O   UNL     1       0.061  -2.619  -0.025  0.00  0.00    -0.272 OA
ATOM      7  H   UNL     1      -3.884  -4.821   0.089  0.00  0.00    +0.156 HD
ATOM      8  H   UNL     1      -3.025  -2.649  -0.006  0.00  0.00    +0.159 HD
ENDROOT
BRANCH   1  14
ATOM      9  C   UNL     1      -4.558  -9.761   0.827  0.00  0.00    +0.044 C 
ATOM     10  C   UNL     1      -3.534  -8.802   0.278  0.00  0.00    -0.046 A 
ATOM     11  C   UNL     1      -2.395  -9.286  -0.340  0.00  0.00    +0.004 A 
ATOM     12  C   UNL     1      -1.452  -8.410  -0.844  0.00  0.00    +0.002 A 
ATOM     13  C   UNL     1      -1.645  -7.046  -0.732  0.00  0.00    +0.023 A 
ATOM     14  C   UNL     1      -2.787  -6.557  -0.112  0.00  0.00    +0.038 A 
ATOM     15  C   UNL     1      -3.730  -7.440   0.398  0.00  0.00    -0.026 A 
ATOM     16  C   UNL     1      -4.967  -6.913   1.077  0.00  0.00    +0.046 C 
ENDBRANCH   1  14
BRANCH   5  17
ATOM     17  C   UNL     1      -1.284  -0.680  -0.024  0.00  0.00    +0.328 C 
BRANCH  17  18
ATOM     18  O   UNL     1       0.001  -0.003  -0.034  0.00  0.00    -0.453 OA
BRANCH  18  19
ATOM     19  C   UNL     1      -0.018   1.339  -0.039  0.00  0.00    +0.340 C 
ATOM     20  O   UNL     1      -1.073   1.928  -0.039  0.00  0.00    -0.248 OA
BRANCH  19  21
ATOM     21  C   UNL     1       1.276   2.110  -0.049  0.00  0.00    +0.162 C 
ATOM     22  C   UNL     1       1.787   2.269   1.384  0.00  0.00    +0.046 C 
ATOM     23  C   UNL     1       3.102   3.052   1.374  0.00  0.00    +0.003 C 
ATOM     24  C   UNL     1       2.867   4.434   0.760  0.00  0.00    +0.000 C 
ATOM     25  C   UNL     1       2.356   4.276  -0.673  0.00  0.00    +0.003 C 
ATOM     26  C   UNL     1       1.041   3.492  -0.662  0.00  0.00    +0.046 C 
BRANCH  21  27
ATOM     27  O   UNL     1       2.246   1.403  -0.825  0.00  0.00    -0.377 OA
ATOM     28  H   UNL     1       2.445   0.517  -0.494  0.00  0.00    +0.211 HD
ENDBRANCH  21  27
ENDBRANCH  19  21
ENDBRANCH  18  19
ENDBRANCH  17  18
ENDBRANCH   5  17
TORSDOF 6
