REMARK  Name = ZINC59264443
REMARK  10 active torsions:
REMARK  status: ('A' for Active; 'I' for Inactive)
REMARK    1  A    between atoms: C_1  and  C_2
REMARK    2  A    between atoms: C_2  and  O_3
REMARK    3  A    between atoms: O_3  and  C_4
REMARK    4  A    between atoms: C_9  and  N_10
REMARK    5  A    between atoms: N_13  and  C_14
REMARK    6  A    between atoms: C_14  and  C_15
REMARK    7  A    between atoms: C_15  and  C_17
REMARK    8  A    between atoms: C_15  and  N_24
REMARK    9  A    between atoms: N_24  and  C_25
REMARK   10  A    between atoms: N_24  and  C_26
REMARK                            x       y       z     vdW  Elec       q    Type
REMARK                         _______ _______ _______ _____ _____    ______ ____
ROOT
ATOM      1  N   UNL     1       2.076  -1.479   3.348  0.00  0.00    -0.266 N 
ATOM      2  C   UNL     1       2.606  -1.998   4.473  0.00  0.00    +0.304 C 
ATOM      3  O   UNL     1       2.693  -3.203   4.604  0.00  0.00    -0.253 OA
ATOM      4  N   UNL     1       3.040  -1.180   5.453  0.00  0.00    -0.300 N 
ATOM      5  H   UNL     1       2.085  -0.520   3.205  0.00  0.00    +0.156 HD
ATOM      6  H   UNL     1       2.970  -0.218   5.348  0.00  0.00    +0.150 HD
ENDROOT
BRANCH   1  12
ATOM      7  C   UNL     1       1.429  -1.915   1.055  0.00  0.00    +0.144 A 
ATOM      8  C   UNL     1       0.876  -2.758   0.105  0.00  0.00    +0.085 A 
ATOM      9  C   UNL     1       0.401  -4.004   0.477  0.00  0.00    +0.127 A 
ATOM     10  C   UNL     1       0.478  -4.410   1.798  0.00  0.00    +0.040 A 
ATOM     11  C   UNL     1       1.029  -3.574   2.751  0.00  0.00    +0.030 A 
ATOM     12  C   UNL     1       1.512  -2.327   2.383  0.00  0.00    +0.077 A 
ATOM     13  F   UNL     1      -0.138  -4.824  -0.451  0.00  0.00    -0.205 F 
BRANCH   7  14
ATOM     14  O   UNL     1       1.896  -0.691   0.691  0.00  0.00    -0.490 OA
BRANCH  14  16
ATOM     15  C   UNL     1       2.353   1.066  -0.904  0.00  0.00    +0.048 C 
ATOM     16  C   UNL     1       1.779  -0.336  -0.688  0.00  0.00    +0.226 C 
ENDBRANCH  14  16
ENDBRANCH   7  14
ENDBRANCH   1  12
BRANCH   4  17
ATOM     17  C   UNL     1       3.616  -1.744   6.676  0.00  0.00    +0.095 C 
BRANCH  17  18
ATOM     18  C   UNL     1       3.909  -0.616   7.668  0.00  0.00    -0.021 C 
BRANCH  18  19
ATOM     19  C   UNL     1       2.625   0.090   8.019  0.00  0.00    -0.057 A 
ATOM     20  C   UNL     1       1.768  -0.458   8.956  0.00  0.00    +0.002 A 
ATOM     21  C   UNL     1       0.591   0.189   9.279  0.00  0.00    +0.003 A 
ATOM     22  C   UNL     1       0.267   1.385   8.666  0.00  0.00    +0.038 A 
ATOM     23  C   UNL     1       1.124   1.934   7.728  0.00  0.00    +0.124 A 
ATOM     24  C   UNL     1       2.307   1.288   7.409  0.00  0.00    +0.040 A 
ATOM     25  F   UNL     1       0.809   3.103   7.127  0.00  0.00    -0.205 F 
ENDBRANCH  18  19
BRANCH  18  26
ATOM     26  N   UNL     1       4.507  -1.179   8.886  0.00  0.00    +0.382 N 
ATOM     27  C   UNL     1       5.813  -1.769   8.563  0.00  0.00    -0.096 C 
ATOM     28  C   UNL     1       4.684  -0.114   9.882  0.00  0.00    -0.096 C 
ATOM     29  H   UNL     1       3.899  -1.892   9.261  0.00  0.00    -0.082 HD
ENDBRANCH  18  26
ENDBRANCH  17  18
ENDBRANCH   4  17
TORSDOF 7
