REMARK  Name = ZINC22735672
REMARK  7 active torsions:
REMARK  status: ('A' for Active; 'I' for Inactive)
REMARK    1  A    between atoms: C_1  and  N_2
REMARK    2  A    between atoms: C_9  and  C_11
REMARK    3  A    between atoms: C_11  and  C_13
REMARK    4  A    between atoms: C_11  and  N_28
REMARK    5  A    between atoms: C_13  and  N_14
REMARK    6  A    between atoms: N_14  and  S_15
REMARK    7  A    between atoms: S_15  and  C_18
REMARK                            x       y       z     vdW  Elec       q    Type
REMARK                         _______ _______ _______ _____ _____    ______ ____
ROOT
ATOM      1  C   UNL     1       5.329  -0.398  -3.773  0.00  0.00    +0.102 C 
ENDROOT
BRANCH   1  10
ATOM      2  C   UNL     1       7.636   5.183  -6.079  0.00  0.00    +0.129 C 
ATOM      3  N   UNL     1       6.661   4.274  -6.697  0.00  0.00    -0.332 N 
ATOM      4  C   UNL     1       7.199   3.687  -7.943  0.00  0.00    +0.109 C 
ATOM      5  C   UNL     1       6.516   2.301  -7.987  0.00  0.00    +0.056 C 
ATOM      6  C   UNL     1       6.224   2.024  -6.526  0.00  0.00    -0.025 A 
ATOM      7  C   UNL     1       6.336   3.222  -5.831  0.00  0.00    +0.033 A 
ATOM      8  C   UNL     1       6.123   3.230  -4.454  0.00  0.00    +0.024 A 
ATOM      9  C   UNL     1       5.794   2.063  -3.797  0.00  0.00    +0.007 A 
ATOM     10  C   UNL     1       5.685   0.875  -4.497  0.00  0.00    -0.029 A 
ATOM     11  C   UNL     1       5.899   0.859  -5.863  0.00  0.00    +0.010 A 
ENDBRANCH   1  10
BRANCH   1  12
ATOM     12  N   UNL     1       6.464  -0.825  -2.945  0.00  0.00    -0.290 NA
ATOM     13  C   UNL     1       6.837   0.221  -1.982  0.00  0.00    +0.113 C 
ATOM     14  C   UNL     1       7.982  -0.288  -1.102  0.00  0.00    +0.175 C 
ATOM     15  O   UNL     1       9.080  -0.675  -1.933  0.00  0.00    -0.377 OA
ATOM     16  C   UNL     1       8.752  -1.692  -2.883  0.00  0.00    +0.175 C 
ATOM     17  C   UNL     1       7.615  -1.198  -3.781  0.00  0.00    +0.113 C 
ENDBRANCH   1  12
BRANCH   1  18
ATOM     18  C   UNL     1       4.110  -0.152  -2.880  0.00  0.00    +0.129 C 
BRANCH  18  19
ATOM     19  N   UNL     1       3.836  -1.353  -2.088  0.00  0.00    -0.188 NA
ATOM     20  H   UNL     1       4.164  -2.339  -2.451  0.00  0.00    +0.148 HD
BRANCH  19  21
ATOM     21  S   UNL     1       2.825  -1.269  -0.779  0.00  0.00    +0.059 S 
ATOM     22  O   UNL     1       3.256  -0.158  -0.004  0.00  0.00    -0.153 OA
ATOM     23  O   UNL     1       2.742  -2.583  -0.245  0.00  0.00    -0.153 OA
BRANCH  21  24
ATOM     24  C   UNL     1       1.220  -0.869  -1.385  0.00  0.00    +0.109 A 
ATOM     25  C   UNL     1       0.344  -1.878  -1.738  0.00  0.00    +0.032 A 
ATOM     26  C   UNL     1      -0.915  -1.568  -2.216  0.00  0.00    +0.051 A 
ATOM     27  C   UNL     1      -1.303  -0.243  -2.343  0.00  0.00    +0.162 A 
ATOM     28  C   UNL     1      -0.424   0.772  -1.985  0.00  0.00    +0.164 A 
ATOM     29  C   UNL     1       0.839   0.454  -1.507  0.00  0.00    +0.078 A 
ATOM     30  O   UNL     1      -0.787   2.079  -2.094  0.00  0.00    -0.485 OA
ATOM     31  C   UNL     1      -1.917   2.366  -2.925  0.00  0.00    +0.270 C 
ATOM     32  C   UNL     1      -3.033   1.371  -2.580  0.00  0.00    +0.270 C 
ATOM     33  O   UNL     1      -2.543   0.047  -2.823  0.00  0.00    -0.485 OA
ENDBRANCH  21  24
ENDBRANCH  19  21
ENDBRANCH  18  19
ENDBRANCH   1  18
TORSDOF 6
