REMARK  Name = ZINC65381648
REMARK  2 active torsions:
REMARK  status: ('A' for Active; 'I' for Inactive)
REMARK    1  A    between atoms: C_1  and  C_2
REMARK    2  A    between atoms: C_7  and  N_8
REMARK                            x       y       z     vdW  Elec       q    Type
REMARK                         _______ _______ _______ _____ _____    ______ ____
ROOT
ATOM      1  N   UNL     1       0.025  -0.014   2.416  0.00  0.00    -0.330 N 
ATOM      2  C   UNL     1      -1.238   0.333   3.082  0.00  0.00    +0.107 C 
ATOM      3  C   UNL     1      -1.198  -0.195   4.519  0.00  0.00    +0.047 C 
ATOM      4  C   UNL     1       0.052   0.337   5.221  0.00  0.00    +0.064 C 
ATOM      5  C   UNL     1       1.303  -0.151   4.490  0.00  0.00    +0.047 C 
ATOM      6  C   UNL     1       1.290   0.373   3.055  0.00  0.00    +0.107 C 
ATOM      7  C   UNL     1       0.077  -0.148   6.648  0.00  0.00    +0.057 A 
ATOM      8  H   UNL     1       0.482   0.177   9.726  0.00  0.00    +0.166 HD
ATOM      9  C   UNL     1       0.394   0.648   7.695  0.00  0.00    +0.039 A 
ATOM     10  N   UNL     1       0.312  -0.114   8.817  0.00  0.00    -0.349 N 
ATOM     11  C   UNL     1      -0.050  -1.358   8.424  0.00  0.00    +0.171 A 
ATOM     12  N   UNL     1      -0.188  -1.366   7.123  0.00  0.00    -0.348 N 
ATOM     13  C   UNL     1       0.760   2.102   7.553  0.00  0.00    +0.070 C 
ATOM     14  C   UNL     1       1.091   2.362   6.076  0.00  0.00    +0.088 C 
ATOM     15  N   UNL     1       0.026   1.808   5.228  0.00  0.00    -0.305 NA
ATOM     16  H   UNL     1       0.083   2.175   4.289  0.00  0.00    +0.123 HD
ATOM     17  H   UNL     1      -0.442  -2.134   6.589  0.00  0.00    +0.166 HD
ENDROOT
BRANCH   1  24
ATOM     18  C   UNL     1      -0.018   1.503   0.010  0.00  0.00    +0.046 C 
ATOM     19  C   UNL     1       0.002  -0.004   0.002  0.00  0.00    -0.027 A 
ATOM     20  C   UNL     1       0.006  -0.689  -1.198  0.00  0.00    +0.043 A 
ATOM     21  C   UNL     1       0.025  -2.073  -1.206  0.00  0.00    +0.124 A 
ATOM     22  C   UNL     1       0.040  -2.774  -0.012  0.00  0.00    +0.040 A 
ATOM     23  C   UNL     1       0.036  -2.094   1.190  0.00  0.00    +0.026 A 
ATOM     24  C   UNL     1       0.023  -0.705   1.200  0.00  0.00    +0.033 A 
ATOM     25  F   UNL     1       0.029  -2.740  -2.381  0.00  0.00    -0.205 F 
ENDBRANCH   1  24
TORSDOF 1
