REMARK  Name = ZINC16026454
REMARK  5 active torsions:
REMARK  status: ('A' for Active; 'I' for Inactive)
REMARK    1  A    between atoms: C_2  and  C_3
REMARK    2  A    between atoms: C_3  and  N_4
REMARK    3  A    between atoms: C_9  and  C_26
REMARK    4  A    between atoms: C_26  and  C_27
REMARK    5  A    between atoms: C_27  and  C_28
REMARK                            x       y       z     vdW  Elec       q    Type
REMARK                         _______ _______ _______ _____ _____    ______ ____
ROOT
ATOM      1  N   UNL     1      -1.112   2.033   0.018  0.00  0.00    -0.238 N 
ATOM      2  C   UNL     1      -0.795   3.329   0.318  0.00  0.00    +0.227 C 
ATOM      3  O   UNL     1      -1.484   4.309   0.135  0.00  0.00    -0.275 OA
ATOM      4  C   UNL     1       0.585   3.287   0.914  0.00  0.00    +0.107 C 
ATOM      5  C   UNL     1       1.625   4.324   0.469  0.00  0.00    +0.068 C 
ATOM      6  N   UNL     1       2.905   3.543   0.504  0.00  0.00    -0.295 NA
ATOM      7  C   UNL     1       2.557   2.106   0.279  0.00  0.00    +0.136 C 
ATOM      8  C   UNL     1       1.118   2.108   0.003  0.00  0.00    +0.122 C 
ATOM      9  C   UNL     1      -0.014   1.208   0.009  0.00  0.00    +0.229 C 
ATOM     10  O   UNL     1       0.002  -0.004   0.002  0.00  0.00    -0.275 OA
ATOM     11  C   UNL     1       2.964   1.297   1.483  0.00  0.00    +0.003 A 
ATOM     12  C   UNL     1       2.571   1.309   2.803  0.00  0.00    +0.008 A 
ATOM     13  C   UNL     1       3.136   0.421   3.701  0.00  0.00    +0.000 A 
ATOM     14  C   UNL     1       4.095  -0.478   3.270  0.00  0.00    +0.002 A 
ATOM     15  C   UNL     1       4.492  -0.492   1.949  0.00  0.00    +0.023 A 
ATOM     16  C   UNL     1       3.930   0.401   1.039  0.00  0.00    +0.039 A 
ATOM     17  N   UNL     1       4.163   0.581  -0.326  0.00  0.00    -0.283 N 
ATOM     18  C   UNL     1       3.404   1.561  -0.847  0.00  0.00    +0.243 C 
ATOM     19  O   UNL     1       3.400   1.937  -2.000  0.00  0.00    -0.273 OA
ATOM     20  H   UNL     1       3.578   3.906  -0.287  0.00  0.00    +0.123 HD
ATOM     21  H   UNL     1       4.901  -0.049  -0.845  0.00  0.00    +0.155 HD
ENDROOT
BRANCH   1  22
ATOM     22  C   UNL     1      -2.474   1.572  -0.261  0.00  0.00    +0.143 C 
BRANCH  22  24
ATOM     23  C   UNL     1      -4.278   1.672   1.382  0.00  0.00    +0.005 C 
ATOM     24  C   UNL     1      -3.133   1.145   1.026  0.00  0.00    -0.015 C 
ENDBRANCH  22  24
ENDBRANCH   1  22
BRANCH   5  25
ATOM     25  C   UNL     1       1.676   5.495   1.452  0.00  0.00    +0.028 C 
BRANCH  25  26
ATOM     26  C   UNL     1       2.628   6.567   0.918  0.00  0.00    +0.097 C 
BRANCH  26  27
ATOM     27  C   UNL     1       2.679   7.721   1.886  0.00  0.00    +0.211 C 
ATOM     28  O   UNL     1       2.019   7.689   2.903  0.00  0.00    -0.276 OA
ATOM     29  N   UNL     1       3.458   8.789   1.621  0.00  0.00    -0.329 N 
ATOM     30  H   UNL     1       3.495   9.631   2.328  0.00  0.00    +0.145 HD
ATOM     31  H   UNL     1       4.057   8.818   0.699  0.00  0.00    +0.145 HD
ENDBRANCH  26  27
ENDBRANCH  25  26
ENDBRANCH   5  25
TORSDOF 5
