REMARK  Name = ZINC19594905
REMARK  7 active torsions:
REMARK  status: ('A' for Active; 'I' for Inactive)
REMARK    1  A    between atoms: C_1  and  C_2
REMARK    2  A    between atoms: C_2  and  S_3
REMARK    3  A    between atoms: S_3  and  C_4
REMARK    4  A    between atoms: C_5  and  C_19
REMARK    5  A    between atoms: C_6  and  C_13
REMARK    6  A    between atoms: C_7  and  C_11
REMARK    7  A    between atoms: C_8  and  N_10
REMARK                            x       y       z     vdW  Elec       q    Type
REMARK                         _______ _______ _______ _____ _____    ______ ____
ROOT
ATOM      1  C   UNL     1       2.408   1.334  -0.013  0.00  0.00    +0.117 A 
ATOM      2  C   UNL     1       1.217   2.084   0.002  0.00  0.00    +0.093 A 
ATOM      3  C   UNL     1      -0.017   1.405   0.010  0.00  0.00    +0.023 A 
ATOM      4  C   UNL     1       0.002  -0.004   0.002  0.00  0.00    +0.100 A 
ATOM      5  C   UNL     1       1.242  -0.669  -0.013  0.00  0.00    +0.136 A 
ATOM      6  N   UNL     1       2.378   0.010  -0.020  0.00  0.00    -0.224 NA
ENDROOT
BRANCH   3   7
ATOM      7  C   UNL     1      -1.296   2.149   0.020  0.00  0.00    -0.015 A 
ATOM      8  C   UNL     1      -1.648   2.953  -1.065  0.00  0.00    +0.008 A 
ATOM      9  C   UNL     1      -2.844   3.640  -1.052  0.00  0.00    +0.001 A 
ATOM     10  C   UNL     1      -3.689   3.542   0.039  0.00  0.00    +0.000 A 
ATOM     11  C   UNL     1      -3.344   2.751   1.121  0.00  0.00    +0.001 A 
ATOM     12  C   UNL     1      -2.153   2.055   1.117  0.00  0.00    +0.008 A 
ENDBRANCH   3   7
BRANCH   5  13
ATOM     13  N   UNL     1       1.274  -2.049  -0.021  0.00  0.00    -0.342 N 
ATOM     14  H   UNL     1       2.239  -2.577  -0.033  0.00  0.00    +0.144 HD
ATOM     15  H   UNL     1       0.335  -2.621  -0.015  0.00  0.00    +0.144 HD
ENDBRANCH   5  13
BRANCH   4  16
ATOM     16  C   UNL     1      -1.222  -0.748   0.010  0.00  0.00    +0.103 C 
ATOM     17  N   UNL     1      -2.192  -1.338   0.017  0.00  0.00    -0.191 NA
ENDBRANCH   4  16
BRANCH   2  18
ATOM     18  C   UNL     1       1.259   3.516   0.009  0.00  0.00    +0.102 C 
ATOM     19  N   UNL     1       1.292   4.651   0.014  0.00  0.00    -0.191 NA
ENDBRANCH   2  18
BRANCH   1  20
ATOM     20  S   UNL     1       3.960   2.168  -0.022  0.00  0.00    -0.105 S 
BRANCH  20  22
ATOM     21  C   UNL     1       6.529   1.240  -0.050  0.00  0.00    +0.015 C 
ATOM     22  C   UNL     1       5.081   0.747  -0.040  0.00  0.00    +0.072 C 
ENDBRANCH  20  22
ENDBRANCH   1  20
TORSDOF 6
