REMARK  Name = ZINC64981116
REMARK  6 active torsions:
REMARK  status: ('A' for Active; 'I' for Inactive)
REMARK    1  A    between atoms: C_1  and  C_2
REMARK    2  A    between atoms: C_2  and  C_3
REMARK    3  A    between atoms: C_3  and  C_4
REMARK    4  A    between atoms: C_4  and  N_5
REMARK    5  A    between atoms: N_18  and  N_19
REMARK    6  A    between atoms: C_20  and  C_21
REMARK                            x       y       z     vdW  Elec       q    Type
REMARK                         _______ _______ _______ _____ _____    ______ ____
ROOT
ATOM      1  N   UNL     1       1.425  -2.500  -2.470  0.00  0.00    -0.323 N 
ATOM      2  C   UNL     1       0.805  -2.760  -3.682  0.00  0.00    +0.053 A 
ATOM      3  C   UNL     1      -0.520  -2.666  -4.095  0.00  0.00    +0.026 A 
ATOM      4  C   UNL     1      -0.865  -2.995  -5.388  0.00  0.00    +0.002 A 
ATOM      5  C   UNL     1       0.099  -3.422  -6.288  0.00  0.00    +0.001 A 
ATOM      6  C   UNL     1       1.417  -3.522  -5.898  0.00  0.00    +0.012 A 
ATOM      7  C   UNL     1       1.780  -3.192  -4.595  0.00  0.00    +0.029 A 
ATOM      8  C   UNL     1       3.061  -3.186  -3.868  0.00  0.00    +0.138 A 
ATOM      9  C   UNL     1       2.773  -2.742  -2.561  0.00  0.00    +0.166 A 
ATOM     10  N   UNL     1       3.776  -2.640  -1.694  0.00  0.00    -0.192 NA
ATOM     11  C   UNL     1       5.005  -2.953  -2.084  0.00  0.00    +0.256 A 
ATOM     12  N   UNL     1       5.252  -3.366  -3.323  0.00  0.00    -0.111 NA
ATOM     13  N   UNL     1       4.309  -3.487  -4.194  0.00  0.00    -0.142 NA
ATOM     14  N   UNL     1       6.050  -2.848  -1.183  0.00  0.00    -0.204 N 
ATOM     15  H   UNL     1       5.881  -2.547  -0.276  0.00  0.00    +0.177 HD
ENDROOT
BRANCH  14  16
ATOM     16  N   UNL     1       7.353  -3.175  -1.580  0.00  0.00    -0.188 NA
ATOM     17  C   UNL     1       8.334  -3.076  -0.735  0.00  0.00    +0.138 C 
BRANCH  17  18
ATOM     18  C   UNL     1       9.705  -3.421  -1.153  0.00  0.00    -0.005 A 
ATOM     19  C   UNL     1       9.953  -3.848  -2.460  0.00  0.00    +0.012 A 
ATOM     20  C   UNL     1      11.238  -4.168  -2.845  0.00  0.00    +0.039 A 
ATOM     21  C   UNL     1      12.282  -4.067  -1.939  0.00  0.00    +0.123 A 
ATOM     22  C   UNL     1      12.042  -3.643  -0.641  0.00  0.00    +0.039 A 
ATOM     23  C   UNL     1      10.762  -3.315  -0.246  0.00  0.00    +0.012 A 
ATOM     24  F   UNL     1      13.538  -4.383  -2.322  0.00  0.00    -0.205 F 
ENDBRANCH  17  18
ENDBRANCH  14  16
BRANCH   1  25
ATOM     25  C   UNL     1       0.739  -2.027  -1.265  0.00  0.00    +0.124 C 
BRANCH  25  26
ATOM     26  C   UNL     1       0.718  -0.497  -1.257  0.00  0.00    +0.021 C 
BRANCH  26  28
ATOM     27  C   UNL     1      -0.019   1.526   0.010  0.00  0.00    +0.004 C 
ATOM     28  C   UNL     1       0.002  -0.004   0.002  0.00  0.00    -0.002 C 
ENDBRANCH  26  28
ENDBRANCH  25  26
ENDBRANCH   1  25
TORSDOF 5
