REMARK  Name = ZINC63373975
REMARK  10 active torsions:
REMARK  status: ('A' for Active; 'I' for Inactive)
REMARK    1  A    between atoms: C_1  and  C_2
REMARK    2  A    between atoms: C_2  and  C_4
REMARK    3  A    between atoms: C_2  and  N_10
REMARK    4  A    between atoms: C_11  and  C_13
REMARK    5  A    between atoms: C_13  and  C_15
REMARK    6  A    between atoms: C_13  and  N_19
REMARK    7  A    between atoms: C_15  and  C_16
REMARK    8  A    between atoms: C_16  and  C_17
REMARK    9  A    between atoms: C_16  and  C_18
REMARK   10  A    between atoms: C_22  and  C_38
REMARK                            x       y       z     vdW  Elec       q    Type
REMARK                         _______ _______ _______ _____ _____    ______ ____
ROOT
ATOM      1  N   UNL     1       4.181  -1.104  -2.214  0.00  0.00    -0.212 N 
ATOM      2  C   UNL     1       5.083  -0.392  -2.922  0.00  0.00    +0.249 C 
ATOM      3  O   UNL     1       4.863   0.338  -3.864  0.00  0.00    -0.273 OA
ATOM      4  C   UNL     1       6.425  -0.695  -2.294  0.00  0.00    +0.136 C 
ATOM      5  C   UNL     1       7.375  -1.308  -3.321  0.00  0.00    +0.139 C 
ATOM      6  C   UNL     1       7.589  -2.763  -2.930  0.00  0.00    -0.034 C 
ATOM      7  C   UNL     1       7.252  -3.487  -3.995  0.00  0.00    -0.001 A 
ATOM      8  C   UNL     1       7.307  -4.936  -4.247  0.00  0.00    +0.010 A 
ATOM      9  C   UNL     1       6.866  -5.348  -5.465  0.00  0.00    +0.001 A 
ATOM     10  C   UNL     1       6.382  -4.474  -6.444  0.00  0.00    +0.002 A 
ATOM     11  C   UNL     1       6.301  -3.128  -6.299  0.00  0.00    +0.026 A 
ATOM     12  C   UNL     1       6.740  -2.574  -5.061  0.00  0.00    +0.043 A 
ATOM     13  N   UNL     1       6.793  -1.322  -4.664  0.00  0.00    -0.375 N 
ATOM     14  C   UNL     1       8.028  -3.204  -1.556  0.00  0.00    +0.052 C 
ATOM     15  C   UNL     1       7.090  -2.519  -0.542  0.00  0.00    +0.115 C 
ATOM     16  N   UNL     1       6.106  -1.737  -1.296  0.00  0.00    -0.269 N 
ATOM     17  C   UNL     1       4.770  -1.839  -1.261  0.00  0.00    +0.313 C 
ATOM     18  O   UNL     1       4.163  -2.521  -0.459  0.00  0.00    -0.252 OA
ATOM     19  C   UNL     1       7.023   0.548  -1.632  0.00  0.00    +0.044 C 
ATOM     20  H   UNL     1       6.497  -0.544  -5.163  0.00  0.00    +0.160 HD
ENDROOT
BRANCH   1  21
ATOM     21  C   UNL     1       2.736  -1.073  -2.455  0.00  0.00    +0.171 C 
BRANCH  21  23
ATOM     22  N   UNL     1       0.688  -0.476  -1.203  0.00  0.00    -0.307 N 
ATOM     23  C   UNL     1       2.031  -0.587  -1.215  0.00  0.00    +0.235 C 
ATOM     24  O   UNL     1       2.672  -0.295  -0.228  0.00  0.00    -0.274 OA
ATOM     25  H   UNL     1       0.175  -0.710  -1.993  0.00  0.00    +0.149 HD
BRANCH  22  27
ATOM     26  C   UNL     1      -0.019   1.526   0.010  0.00  0.00    +0.033 C 
ATOM     27  C   UNL     1       0.002  -0.004   0.002  0.00  0.00    +0.100 C 
BRANCH  27  28
ATOM     28  C   UNL     1      -1.412  -0.526   0.013  0.00  0.00    -0.027 A 
ATOM     29  C   UNL     1      -2.141  -0.569  -1.161  0.00  0.00    +0.005 A 
ATOM     30  C   UNL     1      -3.438  -1.047  -1.151  0.00  0.00    +0.000 A 
ATOM     31  C   UNL     1      -4.005  -1.483   0.032  0.00  0.00    +0.000 A 
ATOM     32  C   UNL     1      -3.275  -1.441   1.205  0.00  0.00    +0.000 A 
ATOM     33  C   UNL     1      -1.977  -0.966   1.195  0.00  0.00    +0.005 A 
ENDBRANCH  27  28
ENDBRANCH  22  27
ENDBRANCH  21  23
BRANCH  21  34
ATOM     34  C   UNL     1       2.247  -2.480  -2.801  0.00  0.00    +0.035 C 
BRANCH  34  35
ATOM     35  C   UNL     1       2.868  -2.925  -4.127  0.00  0.00    -0.015 C 
ATOM     36  C   UNL     1       2.479  -4.376  -4.412  0.00  0.00    +0.007 C 
ATOM     37  C   UNL     1       2.356  -2.028  -5.256  0.00  0.00    +0.007 C 
ENDBRANCH  34  35
ENDBRANCH  21  34
ENDBRANCH   1  21
TORSDOF 6
