REMARK  Name = ZINC42431231
REMARK  7 active torsions:
REMARK  status: ('A' for Active; 'I' for Inactive)
REMARK    1  A    between atoms: C_1  and  N_2
REMARK    2  A    between atoms: N_2  and  C_3
REMARK    3  A    between atoms: C_3  and  C_4
REMARK    4  A    between atoms: C_4  and  C_5
REMARK    5  A    between atoms: C_5  and  C_6
REMARK    6  A    between atoms: N_11  and  C_12
REMARK    7  A    between atoms: C_18  and  N_20
REMARK                            x       y       z     vdW  Elec       q    Type
REMARK                         _______ _______ _______ _____ _____    ______ ____
ROOT
ATOM      1  C   UNL     1      -0.018   1.461   0.010  0.00  0.00    +0.133 C 
ATOM      2  N   UNL     1       0.002  -0.004   0.002  0.00  0.00    -0.289 N 
ATOM      3  C   UNL     1       0.000  -0.672  -1.169  0.00  0.00    +0.302 C 
ATOM      4  O   UNL     1       0.017  -1.887  -1.175  0.00  0.00    -0.253 OA
ATOM      5  N   UNL     1      -0.020   0.009  -2.332  0.00  0.00    -0.298 N 
ATOM      6  H   UNL     1      -0.033   0.978  -2.327  0.00  0.00    +0.150 HD
ENDROOT
BRANCH   5   7
ATOM      7  C   UNL     1      -0.022  -0.717  -3.605  0.00  0.00    +0.060 C 
ATOM      8  C   UNL     1      -1.458  -1.099  -3.972  0.00  0.00    +0.021 C 
ATOM      9  C   UNL     1      -2.304   0.169  -4.106  0.00  0.00    +0.002 C 
ATOM     10  C   UNL     1      -1.717   1.060  -5.203  0.00  0.00    -0.001 C 
ATOM     11  C   UNL     1      -0.281   1.442  -4.835  0.00  0.00    -0.014 C 
ATOM     12  C   UNL     1       0.565   0.174  -4.701  0.00  0.00    -0.054 C 
BRANCH  12  13
ATOM     13  N   UNL     1       1.943   0.540  -4.349  0.00  0.00    +0.381 N 
ATOM     14  H   UNL     1       2.501  -0.296  -4.260  0.00  0.00    -0.090 HD
ATOM     15  H   UNL     1       2.330   1.128  -5.072  0.00  0.00    -0.090 HD
ATOM     16  H   UNL     1       1.945   1.040  -3.472  0.00  0.00    -0.090 HD
ENDBRANCH  12  13
ENDBRANCH   5   7
BRANCH   2  17
ATOM     17  C   UNL     1       0.024  -0.743   1.267  0.00  0.00    +0.109 C 
BRANCH  17  18
ATOM     18  C   UNL     1      -1.411  -1.020   1.720  0.00  0.00    +0.030 C 
BRANCH  18  19
ATOM     19  C   UNL     1      -1.387  -1.792   3.041  0.00  0.00    +0.126 C 
BRANCH  19  20
ATOM     20  C   UNL     1      -2.800  -2.065   3.488  0.00  0.00    +0.356 C 
ATOM     21  O   UNL     1      -3.739  -1.678   2.813  0.00  0.00    -0.246 OA
ATOM     22  O   UNL     1      -3.005  -2.673   4.525  0.00  0.00    -0.246 OA
ENDBRANCH  19  20
ENDBRANCH  18  19
ENDBRANCH  17  18
ENDBRANCH   2  17
TORSDOF 6
