REMARK  Name = ZINC39559941
REMARK  19 active torsions:
REMARK  status: ('A' for Active; 'I' for Inactive)
REMARK    1  A    between atoms: C_1  and  C_2
REMARK    2  A    between atoms: C_2  and  C_4
REMARK    3  A    between atoms: C_2  and  C_32
REMARK    4  A    between atoms: C_8  and  C_31
REMARK    5  A    between atoms: C_9  and  C_30
REMARK    6  A    between atoms: C_17  and  C_26
REMARK    7  A    between atoms: C_19  and  C_20
REMARK    8  A    between atoms: C_19  and  C_21
REMARK    9  A    between atoms: C_21  and  C_22
REMARK   10  A    between atoms: C_22  and  C_23
REMARK   11  A    between atoms: C_26  and  C_27
REMARK   12  A    between atoms: C_26  and  C_28
REMARK   13  A    between atoms: C_26  and  O_29
REMARK   14  A    between atoms: C_32  and  C_34
REMARK   15  A    between atoms: C_32  and  O_40
REMARK   16  A    between atoms: C_34  and  C_35
REMARK   17  A    between atoms: C_36  and  C_37
REMARK   18  A    between atoms: C_36  and  C_38
REMARK   19  A    between atoms: C_38  and  O_39
REMARK                            x       y       z     vdW  Elec       q    Type
REMARK                         _______ _______ _______ _____ _____    ______ ____
ROOT
ATOM      1  C   UNL     1       2.811  -1.196  -3.866  0.00  0.00    +0.001 C 
ATOM      2  C   UNL     1       2.291  -0.389  -5.082  0.00  0.00    +0.005 C 
ATOM      3  C   UNL     1       1.245  -1.293  -5.792  0.00  0.00    +0.012 C 
ATOM      4  C   UNL     1       0.789  -2.229  -4.671  0.00  0.00    -0.004 C 
ATOM      5  C   UNL     1       2.133  -2.559  -3.965  0.00  0.00    -0.013 C 
ATOM      6  C   UNL     1       1.762  -3.228  -2.650  0.00  0.00    +0.087 C 
ATOM      7  C   UNL     1       1.064  -4.517  -3.048  0.00  0.00    +0.160 C 
ATOM      8  O   UNL     1       1.158  -5.498  -2.341  0.00  0.00    -0.292 OA
ATOM      9  C   UNL     1       0.272  -4.581  -4.292  0.00  0.00    +0.001 C 
ATOM     10  C   UNL     1       0.144  -3.512  -5.091  0.00  0.00    -0.056 C 
ATOM     11  C   UNL     1      -0.607  -3.543  -6.396  0.00  0.00    +0.032 C 
ATOM     12  C   UNL     1      -1.562  -4.733  -6.449  0.00  0.00    +0.011 C 
ATOM     13  C   UNL     1      -0.771  -5.993  -6.077  0.00  0.00    +0.031 C 
ATOM     14  C   UNL     1      -0.387  -5.903  -4.597  0.00  0.00    +0.002 C 
ATOM     15  C   UNL     1      -1.649  -6.044  -3.744  0.00  0.00    +0.016 C 
ATOM     16  C   UNL     1       2.969  -3.503  -4.832  0.00  0.00    +0.013 C 
ATOM     17  C   UNL     1      -0.132  -1.477  -3.709  0.00  0.00    +0.016 C 
ENDROOT
BRANCH  13  18
ATOM     18  C   UNL     1      -1.635  -7.234  -6.311  0.00  0.00    +0.064 C 
ATOM     19  C   UNL     1      -2.027  -7.312  -7.788  0.00  0.00    +0.041 C 
ATOM     20  C   UNL     1      -0.845  -8.486  -5.926  0.00  0.00    +0.041 C 
BRANCH  18  21
ATOM     21  O   UNL     1      -2.815  -7.150  -5.509  0.00  0.00    -0.389 OA
ATOM     22  H   UNL     1      -3.366  -6.378  -5.699  0.00  0.00    +0.210 HD
ENDBRANCH  18  21
ENDBRANCH  13  18
BRANCH   1  24
ATOM     23  C   UNL     1       1.222   0.419  -2.813  0.00  0.00    +0.010 C 
ATOM     24  C   UNL     1       2.417  -0.502  -2.561  0.00  0.00    +0.018 C 
BRANCH  24  25
ATOM     25  C   UNL     1       3.598   0.324  -2.046  0.00  0.00    +0.121 C 
BRANCH  25  26
ATOM     26  O   UNL     1       4.750  -0.513  -1.929  0.00  0.00    -0.391 OA
ATOM     27  H   UNL     1       4.612  -1.298  -1.381  0.00  0.00    +0.210 HD
ENDBRANCH  25  26
BRANCH  25  28
ATOM     28  C   UNL     1       3.252   0.910  -0.676  0.00  0.00    +0.058 C 
BRANCH  28  29
ATOM     29  C   UNL     1       4.363   1.822  -0.225  0.00  0.00    -0.023 C 
ATOM     30  C   UNL     1       4.112   3.080   0.040  0.00  0.00    -0.051 C 
ATOM     31  C   UNL     1       5.245   4.031   0.330  0.00  0.00    +0.041 C 
BRANCH  30  32
ATOM     32  C   UNL     1       2.689   3.578   0.054  0.00  0.00    +0.186 C 
BRANCH  32  33
ATOM     33  O   UNL     1       2.390   4.128   1.338  0.00  0.00    -0.391 OA
ATOM     34  H   UNL     1       1.488   4.469   1.420  0.00  0.00    +0.210 HD
ENDBRANCH  32  33
ENDBRANCH  30  32
ENDBRANCH  28  29
ENDBRANCH  25  28
ENDBRANCH  24  25
ENDBRANCH   1  24
BRANCH  14  35
ATOM     35  C   UNL     1       0.580  -7.037  -4.253  0.00  0.00    +0.023 C 
BRANCH  35  36
ATOM     36  C   UNL     1       1.875  -6.863  -5.048  0.00  0.00    +0.126 C 
BRANCH  36  37
ATOM     37  C   UNL     1       2.760  -8.065  -4.838  0.00  0.00    +0.356 C 
ATOM     38  O   UNL     1       2.388  -8.976  -4.118  0.00  0.00    -0.246 OA
ATOM     39  O   UNL     1       3.846  -8.125  -5.387  0.00  0.00    -0.246 OA
ENDBRANCH  36  37
ENDBRANCH  35  36
ENDBRANCH  14  35
TORSDOF 12
