REMARK  Name = ZINC14540704
REMARK  11 active torsions:
REMARK  status: ('A' for Active; 'I' for Inactive)
REMARK    1  A    between atoms: C_1  and  C_2
REMARK    2  A    between atoms: C_2  and  C_3
REMARK    3  A    between atoms: C_2  and  C_4
REMARK    4  A    between atoms: C_2  and  C_26
REMARK    5  A    between atoms: C_4  and  N_62
REMARK    6  A    between atoms: C_5  and  N_62
REMARK    7  A    between atoms: C_11  and  C_21
REMARK    8  A    between atoms: N_13  and  C_14
REMARK    9  A    between atoms: C_14  and  C_15
REMARK   10  A    between atoms: N_23  and  C_24
REMARK   11  A    between atoms: C_26  and  O_27
REMARK                            x       y       z     vdW  Elec       q    Type
REMARK                         _______ _______ _______ _____ _____    ______ ____
ROOT
ATOM      1  C   UNL     1       2.210   1.304  -1.117  0.00  0.00    -0.067 C 
ATOM      2  C   UNL     1       1.431   2.005  -0.001  0.00  0.00    -0.009 C 
ATOM      3  C   UNL     1      -0.018   1.503   0.010  0.00  0.00    +0.054 C 
ATOM      4  C   UNL     1       0.002  -0.004   0.002  0.00  0.00    +0.043 A 
ATOM      5  C   UNL     1       1.088  -0.743  -0.334  0.00  0.00    +0.004 A 
ATOM      6  C   UNL     1       0.694  -2.086  -0.210  0.00  0.00    +0.150 A 
ATOM      7  N   UNL     1      -0.569  -2.076   0.180  0.00  0.00    -0.166 NA
ATOM      8  N   UNL     1      -0.985  -0.863   0.306  0.00  0.00    -0.267 N 
ATOM      9  C   UNL     1       2.415  -0.172  -0.750  0.00  0.00    +0.023 C 
ENDROOT
BRANCH   6  10
ATOM     10  C   UNL     1       1.529  -3.278  -0.466  0.00  0.00    +0.264 C 
ATOM     11  O   UNL     1       2.683  -3.146  -0.823  0.00  0.00    -0.268 OA
ATOM     12  N   UNL     1       1.010  -4.511  -0.303  0.00  0.00    -0.313 N 
ATOM     13  C   UNL     1       1.838  -5.693  -0.556  0.00  0.00    +0.128 C 
ATOM     14  H   UNL     1       0.089  -4.616  -0.018  0.00  0.00    +0.149 HD
ENDBRANCH   6  10
BRANCH   1  15
ATOM     15  N   UNL     1       3.526   1.950  -1.279  0.00  0.00    +0.382 N 
ATOM     16  H   UNL     1       3.869   2.256  -0.360  0.00  0.00    -0.085 HD
ATOM     17  H   UNL     1       4.187   1.276  -1.683  0.00  0.00    -0.085 HD
BRANCH  15  18
ATOM     18  C   UNL     1       3.417   3.119  -2.171  0.00  0.00    -0.074 C 
BRANCH  18  20
ATOM     19  C   UNL     1       5.299   4.214  -0.946  0.00  0.00    +0.011 C 
ATOM     20  C   UNL     1       4.795   3.767  -2.320  0.00  0.00    -0.027 C 
ATOM     21  C   UNL     1       5.773   2.754  -2.918  0.00  0.00    +0.011 C 
BRANCH  20  22
ATOM     22  C   UNL     1       4.690   4.982  -3.244  0.00  0.00    +0.160 C 
BRANCH  22  23
ATOM     23  O   UNL     1       5.977   5.587  -3.383  0.00  0.00    -0.395 OA
ATOM     24  H   UNL     1       5.986   6.365  -3.957  0.00  0.00    +0.209 HD
ENDBRANCH  22  23
ENDBRANCH  20  22
ENDBRANCH  18  20
ENDBRANCH  15  18
ENDBRANCH   1  15
BRANCH   8  25
ATOM     25  C   UNL     1      -2.336  -0.477   0.722  0.00  0.00    +0.147 C 
BRANCH  25  26
ATOM     26  C   UNL     1      -3.230  -0.343  -0.512  0.00  0.00    +0.010 C 
ATOM     27  C   UNL     1      -2.729   0.811  -1.382  0.00  0.00    +0.005 C 
ATOM     28  C   UNL     1      -3.624   0.945  -2.616  0.00  0.00    +0.000 C 
ATOM     29  C   UNL     1      -5.062   1.226  -2.176  0.00  0.00    +0.000 C 
ATOM     30  C   UNL     1      -5.563   0.071  -1.305  0.00  0.00    +0.000 C 
ATOM     31  C   UNL     1      -4.668  -0.062  -0.071  0.00  0.00    +0.005 C 
ENDBRANCH  25  26
ENDBRANCH   8  25
TORSDOF 8
