REMARK  Name = ZINC23118108
REMARK  7 active torsions:
REMARK  status: ('A' for Active; 'I' for Inactive)
REMARK    1  A    between atoms: C_1  and  C_2
REMARK    2  A    between atoms: C_7  and  N_8
REMARK    3  A    between atoms: N_8  and  C_9
REMARK    4  A    between atoms: N_8  and  S_23
REMARK    5  A    between atoms: C_9  and  C_10
REMARK    6  A    between atoms: N_12  and  C_13
REMARK    7  A    between atoms: S_23  and  C_26
REMARK                            x       y       z     vdW  Elec       q    Type
REMARK                         _______ _______ _______ _____ _____    ______ ____
ROOT
ATOM      1  C   UNL     1      -0.982  -0.240   2.668  0.00  0.00    +0.233 C 
ATOM      2  O   UNL     1       0.091   0.060   3.147  0.00  0.00    -0.274 OA
ATOM      3  N   UNL     1      -1.633  -1.335   3.108  0.00  0.00    -0.308 N 
ATOM      4  H   UNL     1      -2.607  -1.608   2.674  0.00  0.00    +0.149 HD
ENDROOT
BRANCH   3   5
ATOM      5  C   UNL     1      -1.045  -2.162   4.165  0.00  0.00    +0.035 C 
ATOM      6  C   UNL     1       0.308  -2.701   3.697  0.00  0.00    +0.029 C 
ATOM      7  C   UNL     1       0.923  -3.565   4.800  0.00  0.00    -0.008 C 
ATOM      8  C   UNL     1      -0.012  -4.735   5.111  0.00  0.00    +0.007 C 
ATOM      9  C   UNL     1      -1.365  -4.197   5.579  0.00  0.00    -0.008 C 
ATOM     10  C   UNL     1      -1.980  -3.333   4.476  0.00  0.00    +0.029 C 
ATOM     11  C   UNL     1      -1.170  -3.352   6.839  0.00  0.00    +0.007 C 
ATOM     12  C   UNL     1      -0.235  -2.181   6.528  0.00  0.00    -0.008 C 
ATOM     13  C   UNL     1       1.119  -2.719   6.060  0.00  0.00    +0.007 C 
ATOM     14  C   UNL     1      -0.849  -1.317   5.425  0.00  0.00    +0.029 C 
ENDBRANCH   3   5
BRANCH   1  15
ATOM     15  C   UNL     1      -1.587   0.610   1.581  0.00  0.00    +0.226 C 
BRANCH  15  16
ATOM     16  N   UNL     1      -0.692   1.731   1.284  0.00  0.00    -0.199 N 
BRANCH  16  23
ATOM     17  C   UNL     1      -2.902   3.477   0.884  0.00  0.00    +0.046 C 
ATOM     18  C   UNL     1      -1.818   3.779   1.886  0.00  0.00    -0.028 A 
ATOM     19  C   UNL     1      -1.878   4.932   2.644  0.00  0.00    +0.005 A 
ATOM     20  C   UNL     1      -0.884   5.210   3.564  0.00  0.00    +0.000 A 
ATOM     21  C   UNL     1       0.174   4.335   3.728  0.00  0.00    +0.002 A 
ATOM     22  C   UNL     1       0.238   3.178   2.977  0.00  0.00    +0.025 A 
ATOM     23  C   UNL     1      -0.756   2.898   2.048  0.00  0.00    +0.054 A 
ENDBRANCH  16  23
BRANCH  16  24
ATOM     24  S   UNL     1       0.396   1.615   0.040  0.00  0.00    +0.043 S 
ATOM     25  O   UNL     1       0.617   0.220  -0.118  0.00  0.00    -0.155 OA
ATOM     26  O   UNL     1       1.461   2.480   0.408  0.00  0.00    -0.155 OA
ATOM     27  C   UNL     1      -0.477   2.277  -1.406  0.00  0.00    +0.218 C 
ENDBRANCH  16  24
ENDBRANCH  15  16
ENDBRANCH   1  15
TORSDOF 5
