REMARK  Name = ZINC32932817
REMARK  5 active torsions:
REMARK  status: ('A' for Active; 'I' for Inactive)
REMARK    1  A    between atoms: C_8  and  C_26
REMARK    2  A    between atoms: N_10  and  C_12
REMARK    3  A    between atoms: C_12  and  C_13
REMARK    4  A    between atoms: C_16  and  S_18
REMARK    5  A    between atoms: S_18  and  N_21
REMARK                            x       y       z     vdW  Elec       q    Type
REMARK                         _______ _______ _______ _____ _____    ______ ____
ROOT
ATOM      1  C   UNL     1       0.108   1.343   0.812  0.00  0.00    +0.000 A 
ATOM      2  C   UNL     1       1.279   1.995   0.476  0.00  0.00    +0.000 A 
ATOM      3  C   UNL     1       1.246   3.328   0.117  0.00  0.00    +0.002 A 
ATOM      4  C   UNL     1       0.042   4.017   0.093  0.00  0.00    -0.061 A 
ATOM      5  C   UNL     1      -1.125   3.367   0.430  0.00  0.00    -0.047 A 
ATOM      6  C   UNL     1      -1.091   2.026   0.783  0.00  0.00    +0.004 A 
ATOM      7  C   UNL     1      -2.455   4.076   0.425  0.00  0.00    +0.029 C 
ATOM      8  C   UNL     1      -2.352   5.375  -0.375  0.00  0.00    +0.024 C 
ATOM      9  N   UNL     1      -1.185   6.129   0.109  0.00  0.00    +0.395 N 
ATOM     10  C   UNL     1       0.056   5.469  -0.309  0.00  0.00    -0.041 C 
ATOM     11  H   UNL     1      -1.211   6.149   1.208  0.00  0.00    -0.080 HD
ENDROOT
BRANCH   8  12
ATOM     12  C   UNL     1      -3.601   6.195  -0.181  0.00  0.00    +0.197 C 
ATOM     13  O   UNL     1      -3.699   6.933   0.776  0.00  0.00    -0.278 OA
ATOM     14  N   UNL     1      -4.609   6.108  -1.071  0.00  0.00    -0.331 N 
ATOM     15  H   UNL     1      -5.521   6.706  -0.930  0.00  0.00    +0.145 HD
ATOM     16  H   UNL     1      -4.520   5.438  -1.940  0.00  0.00    +0.145 HD
ENDBRANCH   8  12
BRANCH   9  17
ATOM     17  C   UNL     1      -1.225   7.520  -0.362  0.00  0.00    -0.002 C 
BRANCH  17  18
ATOM     18  C   UNL     1      -1.238   7.540  -1.869  0.00  0.00    +0.091 A 
ATOM     19  C   UNL     1      -2.336   7.517  -2.646  0.00  0.00    +0.045 A 
ATOM     20  C   UNL     1      -1.889   7.552  -3.987  0.00  0.00    +0.071 A 
ATOM     21  C   UNL     1      -0.545   7.586  -3.949  0.00  0.00    +0.258 A 
ATOM     22  O   UNL     1      -0.156   7.579  -2.663  0.00  0.00    -0.444 OA
BRANCH  21  23
ATOM     23  S   UNL     1       0.525   7.633  -5.348  0.00  0.00    +0.094 S 
ATOM     24  O   UNL     1       1.775   7.109  -4.922  0.00  0.00    -0.150 OA
ATOM     25  O   UNL     1      -0.203   7.078  -6.435  0.00  0.00    -0.150 OA
BRANCH  23  26
ATOM     26  N   UNL     1       0.781   9.227  -5.715  0.00  0.00    -0.174 NA
ATOM     27  C   UNL     1      -0.031  10.036  -6.636  0.00  0.00    +0.109 C 
ATOM     28  C   UNL     1       0.595  11.446  -6.682  0.00  0.00    +0.018 C 
ATOM     29  C   UNL     1       2.057  11.189  -6.231  0.00  0.00    +0.018 C 
ATOM     30  C   UNL     1       1.866  10.069  -5.178  0.00  0.00    +0.109 C 
ENDBRANCH  23  26
ENDBRANCH  21  23
ENDBRANCH  17  18
ENDBRANCH   9  17
TORSDOF 5
