REMARK  Name = ZINC63384363
REMARK  8 active torsions:
REMARK  status: ('A' for Active; 'I' for Inactive)
REMARK    1  A    between atoms: C_1  and  C_2
REMARK    2  A    between atoms: C_2  and  C_3
REMARK    3  A    between atoms: C_3  and  N_4
REMARK    4  A    between atoms: C_5  and  C_7
REMARK    5  A    between atoms: C_7  and  C_9
REMARK    6  A    between atoms: C_7  and  N_16
REMARK    7  A    between atoms: C_9  and  C_10
REMARK    8  A    between atoms: C_17  and  C_19
REMARK                            x       y       z     vdW  Elec       q    Type
REMARK                         _______ _______ _______ _____ _____    ______ ____
ROOT
ATOM      1  C   UNL     1      -5.601  -6.452   0.514  0.00  0.00    +0.167 C 
ATOM      2  C   UNL     1      -6.461  -5.605   1.472  0.00  0.00    +0.065 C 
ATOM      3  C   UNL     1      -7.034  -6.548   2.500  0.00  0.00    -0.034 C 
ATOM      4  C   UNL     1      -7.027  -6.486   3.829  0.00  0.00    -0.001 A 
ATOM      5  C   UNL     1      -6.553  -5.445   4.755  0.00  0.00    +0.010 A 
ATOM      6  C   UNL     1      -6.684  -5.718   6.080  0.00  0.00    +0.001 A 
ATOM      7  C   UNL     1      -7.232  -6.907   6.570  0.00  0.00    +0.002 A 
ATOM      8  C   UNL     1      -7.699  -7.915   5.790  0.00  0.00    +0.026 A 
ATOM      9  C   UNL     1      -7.623  -7.741   4.378  0.00  0.00    +0.043 A 
ATOM     10  N   UNL     1      -8.008  -8.521   3.412  0.00  0.00    -0.375 N 
ATOM     11  C   UNL     1      -7.758  -7.839   2.141  0.00  0.00    +0.131 C 
ATOM     12  C   UNL     1      -6.830  -8.643   1.232  0.00  0.00    +0.134 C 
ATOM     13  N   UNL     1      -5.614  -7.840   0.995  0.00  0.00    -0.276 N 
ATOM     14  C   UNL     1      -4.539  -8.587   1.310  0.00  0.00    +0.248 C 
ATOM     15  O   UNL     1      -3.384  -8.262   1.118  0.00  0.00    -0.270 OA
ATOM     16  C   UNL     1      -4.966  -9.849   1.919  0.00  0.00    +0.042 A 
ATOM     17  C   UNL     1      -6.384  -9.909   1.884  0.00  0.00    -0.013 A 
ATOM     18  C   UNL     1      -7.085 -10.981   2.388  0.00  0.00    +0.006 A 
ATOM     19  C   UNL     1      -6.342 -12.023   2.934  0.00  0.00    +0.000 A 
ATOM     20  C   UNL     1      -4.962 -11.991   2.971  0.00  0.00    +0.001 A 
ATOM     21  C   UNL     1      -4.221 -10.897   2.465  0.00  0.00    +0.013 A 
ATOM     22  H   UNL     1      -8.395  -9.404   3.516  0.00  0.00    +0.160 HD
ENDROOT
BRANCH   1  24
ATOM     23  N   UNL     1      -3.434  -6.000   1.619  0.00  0.00    -0.302 N 
ATOM     24  C   UNL     1      -4.187  -5.930   0.503  0.00  0.00    +0.235 C 
ATOM     25  O   UNL     1      -3.726  -5.448  -0.509  0.00  0.00    -0.274 OA
ATOM     26  H   UNL     1      -3.803  -6.387   2.429  0.00  0.00    +0.150 HD
BRANCH  23  27
ATOM     27  C   UNL     1      -2.060  -5.493   1.609  0.00  0.00    +0.163 C 
BRANCH  27  29
ATOM     28  N   UNL     1       0.043  -5.889   2.850  0.00  0.00    -0.314 N 
ATOM     29  C   UNL     1      -1.257  -6.196   2.674  0.00  0.00    +0.234 C 
ATOM     30  O   UNL     1      -1.782  -7.037   3.373  0.00  0.00    -0.274 OA
ATOM     31  H   UNL     1       0.463  -5.216   2.291  0.00  0.00    +0.149 HD
BRANCH  28  32
ATOM     32  C   UNL     1       0.824  -6.571   3.885  0.00  0.00    +0.104 C 
BRANCH  32  34
ATOM     33  C   UNL     1       3.074  -6.754   4.955  0.00  0.00    +0.005 C 
ATOM     34  C   UNL     1       2.259  -6.042   3.874  0.00  0.00    +0.015 C 
ENDBRANCH  32  34
ENDBRANCH  28  32
ENDBRANCH  27  29
BRANCH  27  35
ATOM     35  C   UNL     1      -2.069  -3.989   1.886  0.00  0.00    +0.067 C 
BRANCH  35  36
ATOM     36  C   UNL     1      -2.766  -3.274   0.757  0.00  0.00    -0.045 A 
ATOM     37  C   UNL     1      -2.042  -2.839  -0.337  0.00  0.00    +0.004 A 
ATOM     38  C   UNL     1      -2.682  -2.184  -1.373  0.00  0.00    +0.000 A 
ATOM     39  C   UNL     1      -4.045  -1.964  -1.314  0.00  0.00    +0.000 A 
ATOM     40  C   UNL     1      -4.769  -2.400  -0.220  0.00  0.00    +0.000 A 
ATOM     41  C   UNL     1      -4.131  -3.059   0.814  0.00  0.00    +0.004 A 
ENDBRANCH  35  36
ENDBRANCH  27  35
ENDBRANCH  23  27
ENDBRANCH   1  24
TORSDOF 7
