REMARK  Name = ZINC43146966
REMARK  9 active torsions:
REMARK  status: ('A' for Active; 'I' for Inactive)
REMARK    1  A    between atoms: C_1  and  C_2
REMARK    2  A    between atoms: C_2  and  C_5
REMARK    3  A    between atoms: N_3  and  O_4
REMARK    4  A    between atoms: C_5  and  C_6
REMARK    5  A    between atoms: C_8  and  C_22
REMARK    6  A    between atoms: C_12  and  C_20
REMARK    7  A    between atoms: C_12  and  C_21
REMARK    8  A    between atoms: C_17  and  C_18
REMARK    9  A    between atoms: C_17  and  O_19
REMARK                            x       y       z     vdW  Elec       q    Type
REMARK                         _______ _______ _______ _____ _____    ______ ____
ROOT
ATOM      1  C   UNL     1      -1.581  -0.603  -2.409  0.00  0.00    +0.032 C 
ATOM      2  C   UNL     1      -1.777  -1.724  -3.433  0.00  0.00    -0.023 C 
ATOM      3  C   UNL     1      -1.925  -3.050  -2.669  0.00  0.00    +0.007 C 
ATOM      4  C   UNL     1      -2.185  -4.186  -3.656  0.00  0.00    +0.001 C 
ATOM      5  C   UNL     1      -3.497  -3.948  -4.391  0.00  0.00    +0.007 C 
ATOM      6  C   UNL     1      -3.510  -2.604  -5.118  0.00  0.00    -0.032 C 
ATOM      7  C   UNL     1      -3.046  -1.472  -4.229  0.00  0.00    +0.001 C 
ATOM      8  C   UNL     1      -2.925  -0.145  -4.977  0.00  0.00    +0.007 C 
ATOM      9  C   UNL     1      -2.913   0.968  -3.926  0.00  0.00    +0.035 C 
ATOM     10  C   UNL     1      -1.762   0.805  -2.946  0.00  0.00    +0.067 C 
ATOM     11  C   UNL     1      -0.464   1.323  -3.576  0.00  0.00    +0.041 C 
ATOM     12  C   UNL     1      -4.982  -2.336  -5.515  0.00  0.00    +0.011 C 
ATOM     13  C   UNL     1      -2.706  -2.705  -6.414  0.00  0.00    +0.011 C 
ATOM     14  C   UNL     1      -0.531  -1.816  -4.313  0.00  0.00    +0.012 C 
ENDROOT
BRANCH  10  15
ATOM     15  O   UNL     1      -2.042   1.663  -1.813  0.00  0.00    -0.389 OA
ATOM     16  H   UNL     1      -2.249   2.577  -2.053  0.00  0.00    +0.210 HD
ENDBRANCH  10  15
BRANCH   1  17
ATOM     17  C   UNL     1      -0.169  -0.722  -1.812  0.00  0.00    +0.060 C 
BRANCH  17  19
ATOM     18  C   UNL     1      -0.899  -2.216   0.200  0.00  0.00    +0.064 C 
ATOM     19  C   UNL     1      -0.059  -2.008  -1.034  0.00  0.00    +0.055 C 
ATOM     20  N   UNL     1       0.747  -2.923  -1.421  0.00  0.00    -0.097 NA
BRANCH  20  21
ATOM     21  O   UNL     1       0.850  -4.132  -0.691  0.00  0.00    -0.409 OA
ATOM     22  H   UNL     1       1.484  -4.762  -1.060  0.00  0.00    +0.328 HD
ENDBRANCH  20  21
ENDBRANCH  17  19
ENDBRANCH   1  17
TORSDOF 4
