REMARK  Name = ZINC09217054
REMARK  6 active torsions:
REMARK  status: ('A' for Active; 'I' for Inactive)
REMARK    1  A    between atoms: C_5  and  N_7
REMARK    2  A    between atoms: N_7  and  S_8
REMARK    3  A    between atoms: S_8  and  C_11
REMARK    4  A    between atoms: C_13  and  N_23
REMARK    5  A    between atoms: C_16  and  N_17
REMARK    6  A    between atoms: C_24  and  C_26
REMARK                            x       y       z     vdW  Elec       q    Type
REMARK                         _______ _______ _______ _____ _____    ______ ____
ROOT
ATOM      1  C   UNL     1       0.404  -4.607   0.051  0.00  0.00    +0.132 A 
ATOM      2  C   UNL     1       0.079  -5.408   1.129  0.00  0.00    +0.054 A 
ATOM      3  C   UNL     1       0.246  -6.784   1.045  0.00  0.00    +0.036 A 
ATOM      4  C   UNL     1       0.740  -7.351  -0.124  0.00  0.00    +0.025 A 
ATOM      5  C   UNL     1       1.062  -6.545  -1.197  0.00  0.00    +0.025 A 
ATOM      6  C   UNL     1       0.890  -5.175  -1.112  0.00  0.00    +0.041 A 
ENDROOT
BRANCH   6   7
ATOM      7  N   UNL     1       1.212  -4.362  -2.203  0.00  0.00    -0.392 NA
ATOM      8  C   UNL     1       0.387  -4.743  -3.356  0.00  0.00    +0.085 C 
ATOM      9  C   UNL     1       0.677  -3.804  -4.528  0.00  0.00    +0.017 C 
ATOM     10  C   UNL     1       2.158  -3.907  -4.903  0.00  0.00    +0.003 C 
ATOM     11  C   UNL     1       3.010  -3.580  -3.673  0.00  0.00    +0.017 C 
ATOM     12  C   UNL     1       2.633  -4.527  -2.532  0.00  0.00    +0.085 C 
ATOM     13  H   UNL     1       1.032  -3.398  -1.967  0.00  0.00    +0.126 HD
ENDBRANCH   6   7
BRANCH   3  14
ATOM     14  N   UNL     1      -0.081  -7.598   2.134  0.00  0.00    -0.281 N 
ATOM     15  C   UNL     1      -1.105  -7.261   2.943  0.00  0.00    +0.250 C 
ATOM     16  O   UNL     1      -1.804  -6.303   2.673  0.00  0.00    -0.270 OA
ATOM     17  H   UNL     1       0.428  -8.405   2.307  0.00  0.00    +0.155 HD
BRANCH  15  18
ATOM     18  C   UNL     1      -1.377  -8.053   4.157  0.00  0.00    +0.053 A 
ATOM     19  C   UNL     1      -0.563  -9.165   4.480  0.00  0.00    +0.020 A 
ATOM     20  C   UNL     1      -0.837  -9.878   5.605  0.00  0.00    +0.071 A 
ATOM     21  C   UNL     1      -1.919  -9.497   6.421  0.00  0.00    +0.249 A 
ATOM     22  N   UNL     1      -2.679  -8.436   6.095  0.00  0.00    -0.328 N 
ATOM     23  C   UNL     1      -2.424  -7.712   4.989  0.00  0.00    +0.099 A 
ATOM     24  O   UNL     1      -2.169 -10.133   7.431  0.00  0.00    -0.268 OA
ATOM     25  H   UNL     1      -3.421  -8.187   6.668  0.00  0.00    +0.168 HD
ENDBRANCH  15  18
ENDBRANCH   3  14
BRANCH   1  26
ATOM     26  S   UNL     1       0.193  -2.861   0.157  0.00  0.00    +0.093 S 
ATOM     27  O   UNL     1      -0.288  -2.589   1.466  0.00  0.00    -0.148 OA
ATOM     28  O   UNL     1      -0.513  -2.466  -1.011  0.00  0.00    -0.148 OA
BRANCH  26  29
ATOM     29  N   UNL     1       1.698  -2.179   0.055  0.00  0.00    -0.096 NA
BRANCH  29  34
ATOM     30  C   UNL     1       0.865   1.393   0.306  0.00  0.00    +0.002 A 
ATOM     31  C   UNL     1       2.123   1.962   0.221  0.00  0.00    +0.002 A 
ATOM     32  C   UNL     1       3.240   1.159   0.080  0.00  0.00    +0.022 A 
ATOM     33  C   UNL     1       3.103  -0.215   0.025  0.00  0.00    +0.065 A 
ATOM     34  C   UNL     1       1.841  -0.790   0.111  0.00  0.00    +0.093 A 
ATOM     35  C   UNL     1       0.721   0.020   0.252  0.00  0.00    +0.028 A 
ATOM     36 CL   UNL     1       4.506  -1.222  -0.152  0.00  0.00    -0.082 Cl
ENDBRANCH  29  34
ENDBRANCH  26  29
ENDBRANCH   1  26
TORSDOF 6
