REMARK  Name = ZINC25068732
REMARK  11 active torsions:
REMARK  status: ('A' for Active; 'I' for Inactive)
REMARK    1  A    between atoms: C_1  and  C_2
REMARK    2  A    between atoms: C_5  and  C_8
REMARK    3  A    between atoms: C_8  and  C_10
REMARK    4  A    between atoms: C_8  and  N_15
REMARK    5  A    between atoms: C_16  and  C_18
REMARK    6  A    between atoms: C_18  and  C_19
REMARK    7  A    between atoms: C_19  and  N_20
REMARK    8  A    between atoms: N_20  and  C_21
REMARK    9  A    between atoms: C_24  and  S_30
REMARK   10  A    between atoms: C_26  and  N_27
REMARK   11  A    between atoms: S_30  and  N_33
REMARK                            x       y       z     vdW  Elec       q    Type
REMARK                         _______ _______ _______ _____ _____    ______ ____
ROOT
ATOM      1  C   UNL     1       2.256  -4.244   3.027  0.00  0.00    +0.114 C 
ENDROOT
BRANCH   1   3
ATOM      2  N   UNL     1       2.982  -3.619   0.746  0.00  0.00    -0.304 N 
ATOM      3  C   UNL     1       3.091  -3.426   2.075  0.00  0.00    +0.215 C 
ATOM      4  O   UNL     1       3.861  -2.594   2.506  0.00  0.00    -0.276 OA
ATOM      5  H   UNL     1       2.283  -4.374   0.355  0.00  0.00    +0.150 HD
BRANCH   2   6
ATOM      6  C   UNL     1       3.794  -2.825  -0.179  0.00  0.00    +0.140 C 
BRANCH   6  11
ATOM      7  C   UNL     1       4.484  -5.735  -5.123  0.00  0.00    +0.044 C 
ATOM      8  C   UNL     1       4.303  -4.975  -3.834  0.00  0.00    -0.050 A 
ATOM      9  C   UNL     1       5.360  -4.262  -3.299  0.00  0.00    +0.004 A 
ATOM     10  C   UNL     1       5.195  -3.566  -2.116  0.00  0.00    +0.006 A 
ATOM     11  C   UNL     1       3.973  -3.583  -1.468  0.00  0.00    -0.022 A 
ATOM     12  C   UNL     1       2.919  -4.301  -2.001  0.00  0.00    +0.006 A 
ATOM     13  C   UNL     1       3.082  -4.993  -3.187  0.00  0.00    +0.004 A 
ENDBRANCH   6  11
BRANCH   6  14
ATOM     14  C   UNL     1       3.101  -1.516  -0.458  0.00  0.00    +0.014 A 
ATOM     15  C   UNL     1       3.635  -0.276  -0.579  0.00  0.00    +0.013 A 
ATOM     16  C   UNL     1       2.797   0.792  -0.839  0.00  0.00    +0.008 A 
ATOM     17  C   UNL     1       1.467   0.569  -0.966  0.00  0.00    +0.045 A 
ATOM     18  S   UNL     1       1.363  -1.196  -0.715  0.00  0.00    -0.099 S 
ENDBRANCH   6  14
ENDBRANCH   2   6
ENDBRANCH   1   3
BRANCH   1  19
ATOM     19  C   UNL     1       2.569  -3.830   4.466  0.00  0.00    +0.111 C 
BRANCH  19  20
ATOM     20  N   UNL     1       1.757  -4.625   5.391  0.00  0.00    -0.342 N 
ATOM     21  H   UNL     1       1.058  -5.379   5.000  0.00  0.00    +0.146 HD
BRANCH  20  22
ATOM     22  C   UNL     1       1.870  -4.424   6.768  0.00  0.00    +0.058 A 
ATOM     23  C   UNL     1       2.837  -3.561   7.269  0.00  0.00    +0.027 A 
ATOM     24  C   UNL     1       2.946  -3.365   8.632  0.00  0.00    +0.030 A 
ATOM     25  C   UNL     1       2.094  -4.027   9.498  0.00  0.00    +0.107 A 
ATOM     26  C   UNL     1       1.131  -4.887   9.002  0.00  0.00    +0.063 A 
ATOM     27  C   UNL     1       1.013  -5.083   7.640  0.00  0.00    +0.149 A 
BRANCH  27  28
ATOM     28  N   UNL     1      -0.022  -5.999   7.111  0.00  0.00    +0.058 N 
ATOM     29  O   UNL     1      -0.606  -5.725   6.077  0.00  0.00    -0.126 OA
ATOM     30  O   UNL     1      -0.290  -7.026   7.708  0.00  0.00    -0.126 OA
ENDBRANCH  27  28
BRANCH  25  31
ATOM     31  S   UNL     1       2.237  -3.775  11.236  0.00  0.00    +0.056 S 
ATOM     32  O   UNL     1       1.685  -4.926  11.860  0.00  0.00    -0.153 OA
ATOM     33  O   UNL     1       3.570  -3.345  11.475  0.00  0.00    -0.153 OA
BRANCH  31  34
ATOM     34  N   UNL     1       1.252  -2.504  11.629  0.00  0.00    -0.204 NA
ATOM     35  H   UNL     1       1.312  -2.314  12.710  0.00  0.00    +0.144 HD
ATOM     36  H   UNL     1       0.214  -2.747  11.357  0.00  0.00    +0.144 HD
ENDBRANCH  31  34
ENDBRANCH  25  31
ENDBRANCH  20  22
ENDBRANCH  19  20
ENDBRANCH   1  19
TORSDOF 10
