REMARK  Name = ZINC20610965
REMARK  6 active torsions:
REMARK  status: ('A' for Active; 'I' for Inactive)
REMARK    1  A    between atoms: C_1  and  O_2
REMARK    2  A    between atoms: O_2  and  C_3
REMARK    3  A    between atoms: C_6  and  C_9
REMARK    4  A    between atoms: C_9  and  N_10
REMARK    5  A    between atoms: C_15  and  C_33
REMARK    6  A    between atoms: C_33  and  C_34
REMARK                            x       y       z     vdW  Elec       q    Type
REMARK                         _______ _______ _______ _____ _____    ______ ____
ROOT
ATOM      1  N   UNL     1      -5.423  -2.855  -1.343  0.00  0.00    -0.237 N 
ATOM      2  C   UNL     1      -6.161  -1.969  -2.021  0.00  0.00    +0.227 C 
ATOM      3  O   UNL     1      -6.540  -0.900  -1.593  0.00  0.00    -0.275 OA
ATOM      4  C   UNL     1      -6.449  -2.507  -3.404  0.00  0.00    +0.107 C 
ATOM      5  C   UNL     1      -5.714  -1.644  -4.451  0.00  0.00    +0.076 C 
ATOM      6  N   UNL     1      -4.356  -2.242  -4.553  0.00  0.00    -0.295 NA
ATOM      7  C   UNL     1      -4.592  -3.694  -4.458  0.00  0.00    +0.136 C 
ATOM      8  C   UNL     1      -5.721  -3.880  -3.413  0.00  0.00    +0.122 C 
ATOM      9  C   UNL     1      -5.117  -3.963  -2.029  0.00  0.00    +0.229 C 
ATOM     10  O   UNL     1      -4.460  -4.889  -1.605  0.00  0.00    -0.275 OA
ATOM     11  C   UNL     1      -4.976  -4.279  -5.787  0.00  0.00    +0.005 A 
ATOM     12  C   UNL     1      -6.008  -4.038  -6.666  0.00  0.00    +0.027 A 
ATOM     13  C   UNL     1      -6.097  -4.760  -7.845  0.00  0.00    +0.041 A 
ATOM     14  C   UNL     1      -5.146  -5.724  -8.135  0.00  0.00    +0.022 A 
ATOM     15  C   UNL     1      -4.112  -5.968  -7.256  0.00  0.00    +0.025 A 
ATOM     16  C   UNL     1      -4.015  -5.246  -6.069  0.00  0.00    +0.039 A 
ATOM     17  N   UNL     1      -3.076  -5.308  -5.037  0.00  0.00    -0.283 N 
ATOM     18  C   UNL     1      -3.343  -4.428  -4.053  0.00  0.00    +0.243 C 
ATOM     19  O   UNL     1      -2.701  -4.259  -3.038  0.00  0.00    -0.273 OA
ATOM     20 CL   UNL     1      -7.397  -4.458  -8.954  0.00  0.00    -0.084 Cl
ATOM     21  H   UNL     1      -3.921  -2.003  -5.432  0.00  0.00    +0.124 HD
ATOM     22  H   UNL     1      -2.319  -5.915  -5.029  0.00  0.00    +0.155 HD
ENDROOT
BRANCH   1  23
ATOM     23  C   UNL     1      -4.981  -2.629   0.035  0.00  0.00    +0.151 C 
BRANCH  23  27
ATOM     24  C   UNL     1      -1.200  -0.637   0.010  0.00  0.00    +0.120 A 
ATOM     25  C   UNL     1      -2.375   0.101   0.019  0.00  0.00    +0.046 A 
ATOM     26  C   UNL     1      -3.596  -0.545   0.027  0.00  0.00    +0.009 A 
ATOM     27  C   UNL     1      -3.648  -1.927   0.026  0.00  0.00    -0.029 A 
ATOM     28  C   UNL     1      -2.479  -2.665   0.017  0.00  0.00    +0.009 A 
ATOM     29  C   UNL     1      -1.255  -2.024   0.003  0.00  0.00    +0.046 A 
BRANCH  24  31
ATOM     30  C   UNL     1      -0.017   1.425   0.010  0.00  0.00    +0.277 C 
ATOM     31  O   UNL     1       0.002  -0.004   0.002  0.00  0.00    -0.495 OA
ENDBRANCH  24  31
ENDBRANCH  23  27
ENDBRANCH   1  23
BRANCH   5  32
ATOM     32  C   UNL     1      -5.625  -0.192  -3.976  0.00  0.00    +0.115 C 
BRANCH  32  33
ATOM     33  C   UNL     1      -5.015   0.655  -5.063  0.00  0.00    +0.212 C 
ATOM     34  O   UNL     1      -4.684   0.148  -6.114  0.00  0.00    -0.276 OA
ATOM     35  N   UNL     1      -4.837   1.977  -4.867  0.00  0.00    -0.329 N 
ATOM     36  H   UNL     1      -5.101   2.382  -4.027  0.00  0.00    +0.145 HD
ATOM     37  H   UNL     1      -4.444   2.522  -5.567  0.00  0.00    +0.145 HD
ENDBRANCH  32  33
ENDBRANCH   5  32
TORSDOF 5
