REMARK  Name = ZINC07057384
REMARK  11 active torsions:
REMARK  status: ('A' for Active; 'I' for Inactive)
REMARK    1  A    between atoms: C_1  and  C_2
REMARK    2  A    between atoms: C_3  and  C_27
REMARK    3  A    between atoms: C_4  and  C_26
REMARK    4  A    between atoms: C_7  and  C_8
REMARK    5  A    between atoms: C_8  and  C_10
REMARK    6  A    between atoms: C_10  and  C_12
REMARK    7  A    between atoms: C_10  and  O_13
REMARK    8  A    between atoms: O_13  and  C_14
REMARK    9  A    between atoms: C_14  and  C_16
REMARK   10  A    between atoms: C_27  and  O_29
REMARK   11  A    between atoms: O_29  and  C_30
REMARK                            x       y       z     vdW  Elec       q    Type
REMARK                         _______ _______ _______ _____ _____    ______ ____
ROOT
ATOM      1  C   UNL     1       1.724   2.061   4.168  0.00  0.00    +0.246 C 
ATOM      2  C   UNL     1       1.752   3.581   4.341  0.00  0.00    +0.061 C 
ENDROOT
BRANCH   1   3
ATOM      3  C   UNL     1       1.235   1.722   2.783  0.00  0.00    +0.219 C 
ATOM      4  O   UNL     1       2.020   1.343   1.938  0.00  0.00    -0.287 OA
BRANCH   3  11
ATOM      5  C   UNL     1      -0.013   1.086   0.008  0.00  0.00    +0.047 C 
ATOM      6  C   UNL     1      -0.718   1.572   1.248  0.00  0.00    -0.008 A 
ATOM      7  C   UNL     1      -2.098   1.839   1.381  0.00  0.00    +0.083 A 
ATOM      8  C   UNL     1      -2.309   2.259   2.683  0.00  0.00    +0.028 A 
ATOM      9  N   UNL     1      -1.134   2.266   3.328  0.00  0.00    -0.355 N 
ATOM     10  H   UNL     1      -1.087   2.576   4.383  0.00  0.00    +0.166 HD
ATOM     11  C   UNL     1      -0.139   1.847   2.468  0.00  0.00    +0.090 A 
ATOM     12  C   UNL     1      -3.638   2.651   3.274  0.00  0.00    +0.064 C 
BRANCH   7  13
ATOM     13  C   UNL     1      -3.121   1.694   0.332  0.00  0.00    +0.341 C 
ATOM     14  O   UNL     1      -3.708   0.638   0.197  0.00  0.00    -0.245 OA
BRANCH  13  15
ATOM     15  O   UNL     1      -3.408   2.732  -0.478  0.00  0.00    -0.464 OA
ATOM     16  C   UNL     1      -4.427   2.518  -1.489  0.00  0.00    +0.280 C 
ENDBRANCH  13  15
ENDBRANCH   7  13
ENDBRANCH   3  11
ENDBRANCH   1   3
BRANCH   1  17
ATOM     17  O   UNL     1       3.063   1.529   4.352  0.00  0.00    -0.450 OA
BRANCH  17  18
ATOM     18  C   UNL     1       3.413   1.174   5.604  0.00  0.00    +0.340 C 
ATOM     19  O   UNL     1       2.622   1.306   6.517  0.00  0.00    -0.245 OA
BRANCH  18  20
ATOM     20  C   UNL     1       4.755   0.626   5.867  0.00  0.00    +0.060 A 
ATOM     21  C   UNL     1       5.677   0.469   4.821  0.00  0.00    +0.017 A 
ATOM     22  C   UNL     1       6.917  -0.032   5.040  0.00  0.00    +0.030 A 
ATOM     23  C   UNL     1       7.330  -0.418   6.340  0.00  0.00    +0.080 A 
ATOM     24  C   UNL     1       6.382  -0.250   7.379  0.00  0.00    +0.042 A 
ATOM     25  C   UNL     1       5.132   0.260   7.164  0.00  0.00    +0.032 A 
ATOM     26  S   UNL     1       7.271  -0.836   8.802  0.00  0.00    -0.053 S 
ATOM     27  C   UNL     1       8.791  -1.253   7.959  0.00  0.00    +0.157 A 
ATOM     28  N   UNL     1       8.519  -0.929   6.713  0.00  0.00    -0.225 NA
ATOM     29  N   UNL     1       9.953  -1.779   8.482  0.00  0.00    -0.337 N 
ATOM     30  H   UNL     1      10.810  -1.982   7.823  0.00  0.00    +0.144 HD
ATOM     31  H   UNL     1      10.022  -1.997   9.557  0.00  0.00    +0.144 HD
ENDBRANCH  18  20
ENDBRANCH  17  18
ENDBRANCH   1  17
TORSDOF 7
