REMARK  Name = ZINC63767082
REMARK  8 active torsions:
REMARK  status: ('A' for Active; 'I' for Inactive)
REMARK    1  A    between atoms: C_1  and  C_2
REMARK    2  A    between atoms: C_2  and  C_3
REMARK    3  A    between atoms: C_3  and  C_4
REMARK    4  A    between atoms: C_10  and  S_12
REMARK    5  A    between atoms: S_12  and  C_13
REMARK    6  A    between atoms: C_13  and  C_14
REMARK    7  A    between atoms: N_16  and  C_17
REMARK    8  A    between atoms: C_19  and  C_30
REMARK                            x       y       z     vdW  Elec       q    Type
REMARK                         _______ _______ _______ _____ _____    ______ ____
ROOT
ATOM      1  C   UNL     1      -4.335  -4.406   3.331  0.00  0.00    +0.224 C 
ATOM      2  O   UNL     1      -4.572  -5.593   3.420  0.00  0.00    -0.275 OA
ATOM      3  N   UNL     1      -5.194  -3.507   3.852  0.00  0.00    -0.302 N 
ATOM      4  H   UNL     1      -5.005  -2.559   3.781  0.00  0.00    +0.150 HD
ENDROOT
BRANCH   3   5
ATOM      5  C   UNL     1      -6.413  -3.963   4.525  0.00  0.00    +0.143 C 
ATOM      6  C   UNL     1      -6.655  -3.157   5.818  0.00  0.00    +0.109 C 
ATOM      7  C   UNL     1      -8.051  -2.507   5.869  0.00  0.00    +0.016 C 
ATOM      8  C   UNL     1      -9.003  -3.572   6.423  0.00  0.00    +0.005 C 
ATOM      9  C   UNL     1     -10.458  -3.136   6.297  0.00  0.00    +0.000 C 
ATOM     10  C   UNL     1     -10.786  -2.984   4.806  0.00  0.00    +0.001 C 
ATOM     11  C   UNL     1      -9.931  -1.844   4.255  0.00  0.00    +0.014 C 
ATOM     12  C   UNL     1      -8.449  -2.075   4.443  0.00  0.00    +0.052 C 
ATOM     13  S   UNL     1      -7.901  -3.585   3.504  0.00  0.00    -0.134 S 
BRANCH   6  14
ATOM     14  C   UNL     1      -6.509  -4.080   7.000  0.00  0.00    +0.216 C 
ATOM     15  O   UNL     1      -6.745  -5.264   6.878  0.00  0.00    -0.276 OA
ATOM     16  N   UNL     1      -6.116  -3.591   8.193  0.00  0.00    -0.329 N 
ATOM     17  H   UNL     1      -5.927  -2.645   8.291  0.00  0.00    +0.145 HD
ATOM     18  H   UNL     1      -6.022  -4.185   8.954  0.00  0.00    +0.145 HD
ENDBRANCH   6  14
ENDBRANCH   3   5
BRANCH   1  19
ATOM     19  C   UNL     1      -3.082  -3.938   2.638  0.00  0.00    +0.173 C 
BRANCH  19  20
ATOM     20  S   UNL     1      -2.142  -5.374   2.051  0.00  0.00    -0.078 S 
BRANCH  20  27
ATOM     21  C   UNL     1       0.466  -2.784   0.671  0.00  0.00    +0.049 A 
ATOM     22  C   UNL     1       1.434  -3.554   0.093  0.00  0.00    +0.093 A 
ATOM     23  C   UNL     1       1.295  -4.953   0.119  0.00  0.00    +0.252 A 
ATOM     24  O   UNL     1       2.141  -5.671  -0.388  0.00  0.00    -0.268 OA
ATOM     25  N   UNL     1       0.207  -5.487   0.715  0.00  0.00    -0.302 N 
ATOM     26  H   UNL     1       0.092  -6.449   0.745  0.00  0.00    +0.171 HD
ATOM     27  C   UNL     1      -0.726  -4.669   1.276  0.00  0.00    +0.170 A 
ATOM     28  N   UNL     1      -0.585  -3.357   1.251  0.00  0.00    -0.228 NA
BRANCH  21  29
ATOM     29  C   UNL     1       0.592  -1.283   0.657  0.00  0.00    +0.055 C 
BRANCH  29  31
ATOM     30  C   UNL     1      -0.060   0.808  -0.545  0.00  0.00    +0.004 C 
ATOM     31  C   UNL     1      -0.188  -0.716  -0.531  0.00  0.00    +0.003 C 
ENDBRANCH  29  31
ENDBRANCH  21  29
ENDBRANCH  20  27
ENDBRANCH  19  20
ENDBRANCH   1  19
TORSDOF 7
