REMARK  Name = ZINC45631121
REMARK  7 active torsions:
REMARK  status: ('A' for Active; 'I' for Inactive)
REMARK    1  A    between atoms: C_1  and  C_2
REMARK    2  A    between atoms: C_4  and  C_8
REMARK    3  A    between atoms: C_5  and  C_7
REMARK    4  A    between atoms: N_10  and  N_11
REMARK    5  A    between atoms: C_12  and  C_14
REMARK    6  A    between atoms: C_17  and  N_23
REMARK    7  A    between atoms: C_18  and  N_20
REMARK                            x       y       z     vdW  Elec       q    Type
REMARK                         _______ _______ _______ _____ _____    ______ ____
ROOT
ATOM      1  N   UNL     1      -3.438  -4.578  -0.155  0.00  0.00    -0.230 N 
ATOM      2  C   UNL     1      -4.758  -4.517   0.109  0.00  0.00    +0.260 C 
ATOM      3  O   UNL     1      -5.272  -3.453   0.395  0.00  0.00    -0.269 OA
ATOM      4  H   UNL     1      -3.027  -5.426  -0.383  0.00  0.00    +0.173 HD
ENDROOT
BRANCH   2   5
ATOM      5  C   UNL     1      -5.579  -5.741   0.050  0.00  0.00    +0.040 A 
ATOM      6  C   UNL     1      -4.988  -6.966  -0.273  0.00  0.00    +0.015 A 
ATOM      7  C   UNL     1      -5.756  -8.106  -0.327  0.00  0.00    +0.026 A 
ATOM      8  C   UNL     1      -7.121  -8.041  -0.060  0.00  0.00    +0.055 A 
ATOM      9  C   UNL     1      -7.713  -6.823   0.262  0.00  0.00    +0.147 A 
ATOM     10  C   UNL     1      -6.948  -5.680   0.323  0.00  0.00    +0.047 A 
BRANCH   9  11
ATOM     11  N   UNL     1      -9.164  -6.757   0.544  0.00  0.00    +0.058 N 
ATOM     12  O   UNL     1      -9.809  -5.803   0.177  0.00  0.00    -0.126 OA
ATOM     13  O   UNL     1      -9.705  -7.659   1.141  0.00  0.00    -0.126 OA
ENDBRANCH   9  11
BRANCH   8  14
ATOM     14  N   UNL     1      -7.895  -9.195  -0.115  0.00  0.00    -0.356 N 
ATOM     15  H   UNL     1      -7.469 -10.059  -0.226  0.00  0.00    +0.142 HD
ATOM     16  H   UNL     1      -8.860  -9.135  -0.042  0.00  0.00    +0.142 HD
ENDBRANCH   8  14
ENDBRANCH   2   5
BRANCH   1  19
ATOM     17  C   UNL     1      -1.338  -3.476  -0.363  0.00  0.00    +0.263 C 
ATOM     18  O   UNL     1      -0.823  -4.540  -0.649  0.00  0.00    -0.269 OA
ATOM     19  N   UNL     1      -2.658  -3.415  -0.099  0.00  0.00    -0.230 N 
ATOM     20  H   UNL     1      -3.068  -2.566   0.129  0.00  0.00    +0.173 HD
BRANCH  17  24
ATOM     21  C   UNL     1       0.149   1.371   0.208  0.00  0.00    +0.086 C 
ATOM     22  C   UNL     1       0.118  -0.113  -0.048  0.00  0.00    +0.103 A 
ATOM     23  C   UNL     1      -0.971  -0.893   0.023  0.00  0.00    +0.057 A 
ATOM     24  C   UNL     1      -0.517  -2.253  -0.304  0.00  0.00    +0.079 A 
ATOM     25  C   UNL     1       0.822  -2.146  -0.542  0.00  0.00    +0.114 A 
ATOM     26  O   UNL     1       1.176  -0.866  -0.390  0.00  0.00    -0.464 OA
ATOM     27  C   UNL     1       1.744  -3.277  -0.917  0.00  0.00    +0.087 C 
ENDBRANCH  17  24
ENDBRANCH   1  19
TORSDOF 5
