REMARK  Name = ZINC09124797
REMARK  8 active torsions:
REMARK  status: ('A' for Active; 'I' for Inactive)
REMARK    1  A    between atoms: C_1  and  C_2
REMARK    2  A    between atoms: C_2  and  C_3
REMARK    3  A    between atoms: C_2  and  C_4
REMARK    4  A    between atoms: C_4  and  N_5
REMARK    5  A    between atoms: C_13  and  S_14
REMARK    6  A    between atoms: S_14  and  C_15
REMARK    7  A    between atoms: C_15  and  C_16
REMARK    8  A    between atoms: N_18  and  C_19
REMARK                            x       y       z     vdW  Elec       q    Type
REMARK                         _______ _______ _______ _____ _____    ______ ____
ROOT
ATOM      1  C   UNL     1      -4.103   1.636   0.035  0.00  0.00    +0.228 C 
ATOM      2  O   UNL     1      -4.212   2.844   0.035  0.00  0.00    -0.275 OA
ATOM      3  N   UNL     1      -5.205   0.860   0.034  0.00  0.00    -0.284 N 
ATOM      4  H   UNL     1      -5.120  -0.103  -0.047  0.00  0.00    +0.155 HD
ENDROOT
BRANCH   3   5
ATOM      5  C   UNL     1      -6.473   1.444   0.149  0.00  0.00    +0.050 A 
ATOM      6  C   UNL     1      -6.613   2.681   0.762  0.00  0.00    +0.052 A 
ATOM      7  C   UNL     1      -7.869   3.256   0.875  0.00  0.00    +0.069 A 
ATOM      8  C   UNL     1      -8.988   2.590   0.371  0.00  0.00    +0.068 A 
ATOM      9  C   UNL     1      -8.843   1.354  -0.240  0.00  0.00    +0.045 A 
ATOM     10  C   UNL     1      -7.589   0.786  -0.356  0.00  0.00    +0.041 A 
ATOM     11 BR   UNL     1      -7.390  -0.896  -1.198  0.00  0.00    -0.048 Br
ATOM     12  N   UNL     1     -10.090   3.405   0.629  0.00  0.00    -0.306 N 
ATOM     13  H   UNL     1     -11.010   3.206   0.394  0.00  0.00    +0.170 HD
ATOM     14  C   UNL     1      -9.660   4.514   1.259  0.00  0.00    +0.325 A 
ATOM     15  O   UNL     1     -10.369   5.432   1.625  0.00  0.00    -0.247 OA
ATOM     16  N   UNL     1      -8.325   4.454   1.421  0.00  0.00    -0.306 N 
ATOM     17  H   UNL     1      -7.774   5.129   1.847  0.00  0.00    +0.170 HD
ENDBRANCH   3   5
BRANCH   1  18
ATOM     18  C   UNL     1      -2.735   1.003   0.037  0.00  0.00    +0.173 C 
BRANCH  18  19
ATOM     19  S   UNL     1      -1.471   2.298   0.038  0.00  0.00    -0.078 S 
BRANCH  19  28
ATOM     20  N   UNL     1       1.263   1.786   0.035  0.00  0.00    -0.318 N 
ATOM     21  C   UNL     1       2.113   0.692   0.033  0.00  0.00    +0.069 A 
ATOM     22  C   UNL     1       3.492   0.546   0.028  0.00  0.00    +0.028 A 
ATOM     23  C   UNL     1       4.049  -0.716   0.027  0.00  0.00    +0.002 A 
ATOM     24  C   UNL     1       3.239  -1.842   0.029  0.00  0.00    +0.002 A 
ATOM     25  C   UNL     1       1.868  -1.716   0.033  0.00  0.00    +0.030 A 
ATOM     26  C   UNL     1       1.288  -0.444   0.035  0.00  0.00    +0.090 A 
ATOM     27  N   UNL     1       0.002  -0.005   0.039  0.00  0.00    -0.222 NA
ATOM     28  C   UNL     1      -0.015   1.305   0.040  0.00  0.00    +0.170 A 
BRANCH  20  29
ATOM     29  C   UNL     1       1.662   3.196   0.034  0.00  0.00    +0.127 C 
BRANCH  29  31
ATOM     30  C   UNL     1       2.341   5.120   1.475  0.00  0.00    +0.009 C 
ATOM     31  C   UNL     1       1.805   3.687   1.476  0.00  0.00    +0.003 C 
ATOM     32  C   UNL     1       0.440   3.653   2.164  0.00  0.00    +0.009 C 
ENDBRANCH  29  31
ENDBRANCH  20  29
ENDBRANCH  19  28
ENDBRANCH  18  19
ENDBRANCH   1  18
TORSDOF 6
