REMARK  Name = ZINC35132789
REMARK  4 active torsions:
REMARK  status: ('A' for Active; 'I' for Inactive)
REMARK    1  A    between atoms: C_1  and  C_2
REMARK    2  A    between atoms: C_7  and  N_12
REMARK    3  A    between atoms: C_9  and  C_11
REMARK    4  A    between atoms: C_13  and  C_15
REMARK                            x       y       z     vdW  Elec       q    Type
REMARK                         _______ _______ _______ _____ _____    ______ ____
ROOT
ATOM      1  N   UNL     1      -0.612  -2.548   1.244  0.00  0.00    -0.307 N 
ATOM      2  C   UNL     1      -0.873  -3.776   1.733  0.00  0.00    +0.260 C 
ATOM      3  O   UNL     1       0.032  -4.464   2.166  0.00  0.00    -0.269 OA
ATOM      4  H   UNL     1      -1.333  -2.000   0.898  0.00  0.00    +0.149 HD
ENDROOT
BRANCH   1  10
ATOM      5  C   UNL     1      -0.019   1.526   0.010  0.00  0.00    +0.008 C 
ATOM      6  C   UNL     1       0.002  -0.004   0.002  0.00  0.00    -0.009 C 
ATOM      7  C   UNL     1       0.718  -0.497  -1.257  0.00  0.00    +0.003 C 
ATOM      8  C   UNL     1       0.739  -2.027  -1.265  0.00  0.00    +0.002 C 
ATOM      9  C   UNL     1       1.479  -2.534  -0.026  0.00  0.00    +0.022 C 
ATOM     10  C   UNL     1       0.763  -2.041   1.233  0.00  0.00    +0.076 C 
ATOM     11  C   UNL     1       0.742  -0.511   1.242  0.00  0.00    +0.009 C 
ATOM     12  C   UNL     1       0.026  -0.018   2.500  0.00  0.00    +0.009 C 
ENDBRANCH   1  10
BRANCH   2  13
ATOM     13  C   UNL     1      -2.250  -4.284   1.743  0.00  0.00    +0.121 C 
ATOM     14  N   UNL     1      -3.207  -3.546   1.274  0.00  0.00    -0.180 NA
ATOM     15  N   UNL     1      -4.532  -3.996   1.270  0.00  0.00    -0.207 N 
ATOM     16  C   UNL     1      -4.911  -5.008   2.075  0.00  0.00    +0.233 C 
ATOM     17  O   UNL     1      -6.061  -5.391   2.070  0.00  0.00    -0.274 OA
ATOM     18  C   UNL     1      -3.899  -5.662   2.982  0.00  0.00    +0.104 C 
ATOM     19  C   UNL     1      -2.530  -5.658   2.292  0.00  0.00    +0.071 C 
ATOM     20  H   UNL     1      -5.181  -3.577   0.683  0.00  0.00    +0.177 HD
ENDBRANCH   2  13
TORSDOF 2
