REMARK  Name = ZINC63537967
REMARK  6 active torsions:
REMARK  status: ('A' for Active; 'I' for Inactive)
REMARK    1  A    between atoms: C_1  and  C_2
REMARK    2  A    between atoms: C_5  and  C_8
REMARK    3  A    between atoms: C_11  and  C_35
REMARK    4  A    between atoms: C_16  and  C_19
REMARK    5  A    between atoms: N_21  and  C_22
REMARK    6  A    between atoms: C_22  and  C_23
REMARK                            x       y       z     vdW  Elec       q    Type
REMARK                         _______ _______ _______ _____ _____    ______ ____
ROOT
ATOM      1  C   UNL     1       0.059  -4.275  -0.021  0.00  0.00    +0.112 C 
ATOM      2  C   UNL     1       1.490  -4.764   0.210  0.00  0.00    +0.062 C 
ATOM      3  C   UNL     1       1.504  -6.298   0.271  0.00  0.00    +0.198 C 
ATOM      4  N   UNL     1       0.510  -6.705   1.281  0.00  0.00    -0.243 N 
ATOM      5  C   UNL     1      -0.573  -5.913   1.592  0.00  0.00    +0.087 C 
ATOM      6  C   UNL     1      -1.376  -6.620   2.660  0.00  0.00    +0.100 C 
ATOM      7  C   UNL     1      -0.817  -8.063   2.590  0.00  0.00    +0.165 C 
ATOM      8  N   UNL     1       0.532  -7.852   2.015  0.00  0.00    -0.226 NA
ATOM      9  N   UNL     1      -0.824  -4.778   1.035  0.00  0.00    -0.369 N 
ATOM     10  H   UNL     1       1.231  -7.802   2.742  0.00  0.00    +0.145 HD
ATOM     11  H   UNL     1      -1.596  -4.261   1.313  0.00  0.00    +0.161 HD
ENDROOT
BRANCH   1  16
ATOM     12  C   UNL     1      -0.018   1.503   0.010  0.00  0.00    +0.044 C 
ATOM     13  C   UNL     1       0.002  -0.004   0.002  0.00  0.00    -0.050 A 
ATOM     14  C   UNL     1       0.006  -0.689  -1.199  0.00  0.00    +0.004 A 
ATOM     15  C   UNL     1       0.025  -2.071  -1.206  0.00  0.00    +0.006 A 
ATOM     16  C   UNL     1       0.040  -2.768  -0.013  0.00  0.00    -0.025 A 
ATOM     17  C   UNL     1       0.037  -2.084   1.188  0.00  0.00    +0.006 A 
ATOM     18  C   UNL     1       0.023  -0.702   1.195  0.00  0.00    +0.004 A 
ENDBRANCH   1  16
BRANCH   7  19
ATOM     19  C   UNL     1      -0.729  -8.671   3.966  0.00  0.00    +0.232 C 
ATOM     20  O   UNL     1       0.335  -8.702   4.548  0.00  0.00    -0.274 OA
ATOM     21  N   UNL     1      -1.832  -9.181   4.549  0.00  0.00    -0.312 N 
ATOM     22  H   UNL     1      -2.682  -9.156   4.083  0.00  0.00    +0.149 HD
BRANCH  21  23
ATOM     23  C   UNL     1      -1.746  -9.772   5.886  0.00  0.00    +0.133 C 
BRANCH  23  24
ATOM     24  C   UNL     1      -3.128 -10.272   6.312  0.00  0.00    +0.120 C 
ATOM     25  C   UNL     1      -3.026 -11.046   7.607  0.00  0.00    +0.009 C 
ATOM     26  C   UNL     1      -3.459 -12.297   7.332  0.00  0.00    -0.003 A 
ATOM     27  C   UNL     1      -3.602 -13.504   8.155  0.00  0.00    +0.029 A 
ATOM     28  C   UNL     1      -4.075 -14.636   7.584  0.00  0.00    +0.042 A 
ATOM     29  C   UNL     1      -4.430 -14.684   6.228  0.00  0.00    +0.022 A 
ATOM     30  C   UNL     1      -4.327 -13.616   5.408  0.00  0.00    +0.027 A 
ATOM     31  C   UNL     1      -3.842 -12.374   5.903  0.00  0.00    +0.043 A 
ATOM     32  N   UNL     1      -3.654 -11.215   5.319  0.00  0.00    -0.376 N 
ATOM     33 CL   UNL     1      -4.244 -16.065   8.554  0.00  0.00    -0.084 Cl
ATOM     34  H   UNL     1      -3.831 -11.014   4.386  0.00  0.00    +0.160 HD
ENDBRANCH  23  24
ENDBRANCH  21  23
ENDBRANCH   7  19
BRANCH   3  35
ATOM     35  C   UNL     1       2.894  -6.791   0.679  0.00  0.00    +0.409 C 
ATOM     36  F   UNL     1       3.220  -6.275   1.938  0.00  0.00    -0.169 F 
ATOM     37  F   UNL     1       2.897  -8.189   0.732  0.00  0.00    -0.169 F 
ATOM     38  F   UNL     1       3.837  -6.358  -0.260  0.00  0.00    -0.169 F 
ENDBRANCH   3  35
TORSDOF 5
