REMARK  Name = ZINC67389934
REMARK  7 active torsions:
REMARK  status: ('A' for Active; 'I' for Inactive)
REMARK    1  A    between atoms: C_1  and  C_2
REMARK    2  A    between atoms: C_2  and  C_4
REMARK    3  A    between atoms: C_2  and  N_11
REMARK    4  A    between atoms: C_4  and  N_5
REMARK    5  A    between atoms: N_14  and  N_15
REMARK    6  A    between atoms: C_16  and  C_18
REMARK    7  A    between atoms: C_18  and  C_19
REMARK                            x       y       z     vdW  Elec       q    Type
REMARK                         _______ _______ _______ _____ _____    ______ ____
ROOT
ATOM      1  N   UNL     1       0.711  -0.489   1.189  0.00  0.00    -0.294 N 
ATOM      2  C   UNL     1       2.054  -0.600   1.174  0.00  0.00    +0.316 C 
ATOM      3  O   UNL     1       2.677  -0.297   0.175  0.00  0.00    -0.251 OA
ATOM      4  N   UNL     1       2.706  -1.046   2.266  0.00  0.00    -0.218 N 
ATOM      5  H   UNL     1       0.213  -0.731   1.986  0.00  0.00    +0.151 HD
ATOM      6  H   UNL     1       3.672  -1.126   2.255  0.00  0.00    +0.174 HD
ENDROOT
BRANCH   4   7
ATOM      7  N   UNL     1       1.987  -1.396   3.416  0.00  0.00    -0.233 N 
ATOM      8  C   UNL     1       2.639  -1.842   4.508  0.00  0.00    +0.229 C 
ATOM      9  O   UNL     1       3.848  -1.941   4.495  0.00  0.00    -0.274 OA
ATOM     10  H   UNL     1       1.020  -1.316   3.427  0.00  0.00    +0.173 HD
BRANCH   8  11
ATOM     11  C   UNL     1       1.866  -2.218   5.746  0.00  0.00    +0.101 C 
BRANCH  11  12
ATOM     12  C   UNL     1       2.837  -2.689   6.830  0.00  0.00    -0.002 C 
ATOM     13  C   UNL     1       3.523  -3.978   6.375  0.00  0.00    +0.004 C 
ATOM     14  C   UNL     1       4.495  -4.450   7.459  0.00  0.00    +0.000 C 
ATOM     15  C   UNL     1       3.724  -4.712   8.755  0.00  0.00    +0.000 C 
ATOM     16  C   UNL     1       3.038  -3.423   9.210  0.00  0.00    +0.000 C 
ATOM     17  C   UNL     1       2.067  -2.952   8.126  0.00  0.00    +0.004 C 
ENDBRANCH  11  12
ENDBRANCH   8  11
ENDBRANCH   4   7
BRANCH   1  19
ATOM     18  C   UNL     1      -0.019   1.526   0.010  0.00  0.00    +0.029 C 
ATOM     19  C   UNL     1       0.002  -0.004   0.002  0.00  0.00    +0.085 C 
BRANCH  19  20
ATOM     20  C   UNL     1      -1.433  -0.534   0.013  0.00  0.00    +0.106 C 
BRANCH  20  21
ATOM     21  N   UNL     1      -1.414  -1.998   0.126  0.00  0.00    -0.296 NA
ATOM     22  C   UNL     1      -0.831  -2.611  -1.077  0.00  0.00    +0.112 C 
ATOM     23  C   UNL     1      -0.776  -4.130  -0.892  0.00  0.00    +0.175 C 
ATOM     24  O   UNL     1      -2.091  -4.620  -0.618  0.00  0.00    -0.377 OA
ATOM     25  C   UNL     1      -2.688  -4.045   0.547  0.00  0.00    +0.175 C 
ATOM     26  C   UNL     1      -2.763  -2.525   0.377  0.00  0.00    +0.112 C 
ENDBRANCH  20  21
ENDBRANCH  19  20
ENDBRANCH   1  19
TORSDOF 6
