REMARK  Name = ZINC44785470
REMARK  5 active torsions:
REMARK  status: ('A' for Active; 'I' for Inactive)
REMARK    1  A    between atoms: C_1  and  C_2
REMARK    2  A    between atoms: C_7  and  N_8
REMARK    3  A    between atoms: C_9  and  C_11
REMARK    4  A    between atoms: C_11  and  C_17
REMARK    5  A    between atoms: N_18  and  O_19
REMARK                            x       y       z     vdW  Elec       q    Type
REMARK                         _______ _______ _______ _____ _____    ______ ____
ROOT
ATOM      1  C   UNL     1      -0.179   0.036   4.865  0.00  0.00    +0.109 C 
ATOM      2  C   UNL     1       1.006   1.006   4.914  0.00  0.00    +0.052 C 
ATOM      3  C   UNL     1       2.310   0.205   4.936  0.00  0.00    +0.161 C 
ATOM      4  O   UNL     1       2.307  -0.678   6.059  0.00  0.00    -0.380 OA
ATOM      5  C   UNL     1       1.248  -1.639   6.043  0.00  0.00    +0.161 C 
ATOM      6  C   UNL     1      -0.099  -0.912   6.065  0.00  0.00    +0.052 C 
ENDROOT
BRANCH   1   7
ATOM      7  C   UNL     1      -1.470   0.811   4.919  0.00  0.00    +0.147 C 
ATOM      8  N   UNL     1      -2.365   0.513   5.801  0.00  0.00    -0.076 NA
ATOM      9  N   UNL     1      -1.695   1.838   4.029  0.00  0.00    -0.343 N 
ATOM     10  H   UNL     1      -1.047   2.026   3.332  0.00  0.00    +0.144 HD
ATOM     11  H   UNL     1      -2.501   2.373   4.099  0.00  0.00    +0.144 HD
BRANCH   8  12
ATOM     12  O   UNL     1      -3.579   1.242   5.853  0.00  0.00    -0.408 OA
ATOM     13  H   UNL     1      -4.186   0.946   6.545  0.00  0.00    +0.328 HD
ENDBRANCH   8  12
ENDBRANCH   1   7
BRANCH   1  15
ATOM     14  N   UNL     1       0.027  -0.133   2.405  0.00  0.00    -0.284 N 
ATOM     15  C   UNL     1      -0.124  -0.762   3.588  0.00  0.00    +0.231 C 
ATOM     16  O   UNL     1      -0.216  -1.971   3.624  0.00  0.00    -0.274 OA
ATOM     17  H   UNL     1       0.140   0.830   2.380  0.00  0.00    +0.155 HD
BRANCH  14  24
ATOM     18  C   UNL     1      -0.882   1.151   0.035  0.00  0.00    +0.045 C 
ATOM     19  C   UNL     1      -0.413  -0.281   0.035  0.00  0.00    -0.029 A 
ATOM     20  C   UNL     1      -0.412  -1.009  -1.139  0.00  0.00    +0.006 A 
ATOM     21  C   UNL     1       0.018  -2.322  -1.140  0.00  0.00    +0.015 A 
ATOM     22  C   UNL     1       0.448  -2.913   0.035  0.00  0.00    +0.020 A 
ATOM     23  C   UNL     1       0.449  -2.191   1.213  0.00  0.00    +0.038 A 
ATOM     24  C   UNL     1       0.022  -0.870   1.216  0.00  0.00    +0.037 A 
ATOM     25 BR   UNL     1       1.035  -4.711   0.029  0.00  0.00    -0.050 Br
ENDBRANCH  14  24
ENDBRANCH   1  15
TORSDOF 4
