REMARK  Name = ZINC06061529
REMARK  5 active torsions:
REMARK  status: ('A' for Active; 'I' for Inactive)
REMARK    1  A    between atoms: C_3  and  N_20
REMARK    2  A    between atoms: C_5  and  O_7
REMARK    3  A    between atoms: O_7  and  C_8
REMARK    4  A    between atoms: C_8  and  C_9
REMARK    5  A    between atoms: N_11  and  C_12
REMARK                            x       y       z     vdW  Elec       q    Type
REMARK                         _______ _______ _______ _____ _____    ______ ____
ROOT
ATOM      1  C   UNL     1      -1.242   5.902  -0.058  0.00  0.00    +0.255 C 
ATOM      2  O   UNL     1      -2.286   5.284  -0.050  0.00  0.00    -0.272 OA
ATOM      3  N   UNL     1      -0.069   5.243   0.029  0.00  0.00    -0.283 N 
ATOM      4  H   UNL     1       0.761   5.739   0.101  0.00  0.00    +0.155 HD
ENDROOT
BRANCH   3   5
ATOM      5  C   UNL     1      -0.050   3.844   0.017  0.00  0.00    +0.036 A 
ATOM      6  C   UNL     1      -0.989   3.142  -0.727  0.00  0.00    +0.043 A 
ATOM      7  C   UNL     1      -0.968   1.760  -0.738  0.00  0.00    +0.044 A 
ATOM      8  C   UNL     1      -0.012   1.076  -0.007  0.00  0.00    +0.040 A 
ATOM      9  C   UNL     1       0.921   1.773   0.740  0.00  0.00    +0.044 A 
ATOM     10  C   UNL     1       0.908   3.155   0.749  0.00  0.00    +0.043 A 
ATOM     11 CL   UNL     1       2.114   0.911   1.661  0.00  0.00    -0.083 Cl
ATOM     12 CL   UNL     1      -2.141   0.882  -1.668  0.00  0.00    -0.083 Cl
ENDBRANCH   3   5
BRANCH   1  13
ATOM     13  C   UNL     1      -1.256   7.405  -0.164  0.00  0.00    +0.324 C 
BRANCH  13  14
ATOM     14  O   UNL     1      -2.607   7.864  -0.243  0.00  0.00    -0.483 OA
BRANCH  14  19
ATOM     15  C   UNL     1      -1.903  11.426  -0.468  0.00  0.00    +0.006 A 
ATOM     16  C   UNL     1      -3.185  11.937  -0.548  0.00  0.00    +0.033 A 
ATOM     17  C   UNL     1      -4.274  11.085  -0.527  0.00  0.00    +0.130 A 
ATOM     18  C   UNL     1      -4.083   9.721  -0.425  0.00  0.00    +0.078 A 
ATOM     19  C   UNL     1      -2.797   9.206  -0.344  0.00  0.00    +0.123 A 
ATOM     20  C   UNL     1      -1.707  10.063  -0.361  0.00  0.00    +0.046 A 
BRANCH  17  21
ATOM     21  N   UNL     1      -5.645  11.636  -0.613  0.00  0.00    +0.057 N 
ATOM     22  O   UNL     1      -6.604  10.886  -0.594  0.00  0.00    -0.126 OA
ATOM     23  O   UNL     1      -5.814  12.838  -0.704  0.00  0.00    -0.126 OA
ENDBRANCH  17  21
ENDBRANCH  14  19
ENDBRANCH  13  14
ENDBRANCH   1  13
TORSDOF 5
