REMARK  Name = ZINC35898143
REMARK  4 active torsions:
REMARK  status: ('A' for Active; 'I' for Inactive)
REMARK    1  A    between atoms: C_8  and  C_11
REMARK    2  A    between atoms: C_11  and  N_12
REMARK    3  A    between atoms: C_13  and  C_15
REMARK    4  A    between atoms: C_23  and  C_25
REMARK                            x       y       z     vdW  Elec       q    Type
REMARK                         _______ _______ _______ _____ _____    ______ ____
ROOT
ATOM      1  N   UNL     1       5.254  -0.651   5.997  0.00  0.00    -0.314 N 
ATOM      2  C   UNL     1       6.208   0.288   6.155  0.00  0.00    +0.220 C 
ATOM      3  O   UNL     1       6.282   0.907   7.196  0.00  0.00    -0.275 OA
ATOM      4  H   UNL     1       5.195  -1.146   5.165  0.00  0.00    +0.149 HD
ENDROOT
BRANCH   2   5
ATOM      5  C   UNL     1       7.182   0.568   5.040  0.00  0.00    +0.124 C 
ATOM      6  C   UNL     1       8.467   1.268   5.584  0.00  0.00    +0.154 C 
ATOM      7  C   UNL     1       9.434   1.302   4.398  0.00  0.00    +0.003 C 
ATOM      8  C   UNL     1       8.966   2.211   3.559  0.00  0.00    +0.003 C 
ATOM      9  C   UNL     1       7.692   2.773   4.193  0.00  0.00    +0.156 C 
ATOM     10  C   UNL     1       6.622   1.642   4.070  0.00  0.00    +0.149 C 
ATOM     11  O   UNL     1       8.025   2.666   5.636  0.00  0.00    -0.364 OA
BRANCH  10  12
ATOM     12  C   UNL     1       5.258   2.108   4.511  0.00  0.00    +0.363 C 
ATOM     13  O   UNL     1       5.155   2.942   5.394  0.00  0.00    -0.246 OA
ATOM     14  O   UNL     1       4.258   1.650   3.985  0.00  0.00    -0.246 OA
ENDBRANCH  10  12
ENDBRANCH   2   5
BRANCH   1  15
ATOM     15  C   UNL     1       4.307  -0.923   7.080  0.00  0.00    +0.111 C 
BRANCH  15  23
ATOM     16  C   UNL     1       0.612  -2.951   6.099  0.00  0.00    +0.007 C 
ATOM     17  C   UNL     1       1.601  -2.666   4.967  0.00  0.00    -0.010 C 
ATOM     18  C   UNL     1       2.386  -3.939   4.644  0.00  0.00    +0.007 C 
ATOM     19  C   UNL     1       3.151  -4.397   5.887  0.00  0.00    -0.010 C 
ATOM     20  C   UNL     1       2.162  -4.681   7.019  0.00  0.00    +0.007 C 
ATOM     21  C   UNL     1       1.378  -3.408   7.343  0.00  0.00    -0.010 C 
ATOM     22  C   UNL     1       2.348  -2.308   7.778  0.00  0.00    +0.012 C 
ATOM     23  C   UNL     1       3.337  -2.024   6.646  0.00  0.00    -0.013 C 
ATOM     24  C   UNL     1       2.571  -1.566   5.402  0.00  0.00    +0.012 C 
ATOM     25  C   UNL     1       4.122  -3.297   6.322  0.00  0.00    +0.012 C 
ENDBRANCH  15  23
ENDBRANCH   1  15
TORSDOF 4
