REMARK  Name = ZINC62528310
REMARK  10 active torsions:
REMARK  status: ('A' for Active; 'I' for Inactive)
REMARK    1  A    between atoms: C_1  and  C_2
REMARK    2  A    between atoms: C_2  and  C_3
REMARK    3  A    between atoms: C_3  and  C_4
REMARK    4  A    between atoms: C_3  and  N_5
REMARK    5  A    between atoms: C_6  and  C_8
REMARK    6  A    between atoms: C_8  and  C_9
REMARK    7  A    between atoms: C_9  and  N_10
REMARK    8  A    between atoms: N_13  and  C_14
REMARK    9  A    between atoms: N_17  and  C_20
REMARK   10  A    between atoms: C_20  and  C_21
REMARK                            x       y       z     vdW  Elec       q    Type
REMARK                         _______ _______ _______ _____ _____    ______ ____
ROOT
ATOM      1  N   UNL     1      -0.193   1.597  -7.083  0.00  0.00    -0.299 N 
ATOM      2  C   UNL     1       0.449   1.642  -8.267  0.00  0.00    +0.300 C 
ATOM      3  O   UNL     1       1.655   1.487  -8.312  0.00  0.00    -0.253 OA
ATOM      4  N   UNL     1      -0.244   1.859  -9.402  0.00  0.00    -0.297 N 
ATOM      5  H   UNL     1      -1.154   1.720  -7.048  0.00  0.00    +0.150 HD
ATOM      6  H   UNL     1      -1.206   1.983  -9.367  0.00  0.00    +0.151 HD
ENDROOT
BRANCH   4   7
ATOM      7  C   UNL     1       0.453   1.908 -10.689  0.00  0.00    +0.071 C 
ATOM      8  C   UNL     1       0.986   3.324 -10.929  0.00  0.00    +0.004 C 
ATOM      9  C   UNL     1       1.644   3.389 -12.309  0.00  0.00    -0.077 C 
ATOM     10  N   UNL     1       0.656   3.054 -13.342  0.00  0.00    +0.380 N 
ATOM     11  C   UNL     1       0.194   1.673 -13.161  0.00  0.00    -0.077 C 
ATOM     12  C   UNL     1      -0.520   1.543 -11.814  0.00  0.00    +0.004 C 
ATOM     13  H   UNL     1      -0.130   3.683 -13.270  0.00  0.00    -0.082 HD
BRANCH  10  14
ATOM     14  C   UNL     1       1.271   3.193 -14.669  0.00  0.00    -0.075 C 
BRANCH  14  15
ATOM     15  C   UNL     1       0.206   2.990 -15.748  0.00  0.00    -0.028 C 
ATOM     16  C   UNL     1       0.869   3.004 -17.127  0.00  0.00    +0.002 C 
ATOM     17  C   UNL     1      -0.196   2.800 -18.207  0.00  0.00    +0.000 C 
ATOM     18  C   UNL     1      -1.227   3.928 -18.125  0.00  0.00    +0.000 C 
ATOM     19  C   UNL     1      -1.890   3.914 -16.746  0.00  0.00    +0.000 C 
ATOM     20  C   UNL     1      -0.825   4.118 -15.667  0.00  0.00    +0.002 C 
ENDBRANCH  14  15
ENDBRANCH  10  14
ENDBRANCH   4   7
BRANCH   1  21
ATOM     21  C   UNL     1       0.562   1.360  -5.849  0.00  0.00    +0.115 C 
BRANCH  21  22
ATOM     22  C   UNL     1      -0.398   1.356  -4.658  0.00  0.00    +0.114 C 
BRANCH  22  24
ATOM     23  N   UNL     1      -0.264   1.068  -2.205  0.00  0.00    -0.313 N 
ATOM     24  C   UNL     1       0.378   1.113  -3.389  0.00  0.00    +0.215 C 
ATOM     25  O   UNL     1       1.580   0.959  -3.433  0.00  0.00    -0.276 OA
ATOM     26  H   UNL     1      -1.226   1.192  -2.169  0.00  0.00    +0.149 HD
BRANCH  23  27
ATOM     27  C   UNL     1       0.490   0.832  -0.971  0.00  0.00    +0.070 C 
ATOM     28  C   UNL     1       0.671  -0.673  -0.764  0.00  0.00    +0.028 C 
BRANCH  27  30
ATOM     29  C   UNL     1      -0.348   2.943   0.070  0.00  0.00    +0.005 C 
ATOM     30  C   UNL     1      -0.275   1.421   0.215  0.00  0.00    +0.018 C 
ENDBRANCH  27  30
ENDBRANCH  23  27
ENDBRANCH  22  24
ENDBRANCH  21  22
ENDBRANCH   1  21
TORSDOF 8
