REMARK  Name = ZINC39359236
REMARK  7 active torsions:
REMARK  status: ('A' for Active; 'I' for Inactive)
REMARK    1  A    between atoms: C_1  and  O_2
REMARK    2  A    between atoms: O_2  and  C_3
REMARK    3  A    between atoms: C_5  and  C_13
REMARK    4  A    between atoms: C_7  and  N_10
REMARK    5  A    between atoms: C_8  and  O_9
REMARK    6  A    between atoms: C_16  and  O_35
REMARK    7  A    between atoms: C_27  and  C_30
REMARK                            x       y       z     vdW  Elec       q    Type
REMARK                         _______ _______ _______ _____ _____    ______ ____
ROOT
ATOM      1  C   UNL     1       2.462   0.334   4.204  0.00  0.00    +0.089 C 
ATOM      2  C   UNL     1       3.925   0.024   4.304  0.00  0.00    +0.048 C 
ATOM      3  C   UNL     1       5.024   0.622   3.899  0.00  0.00    +0.235 C 
ATOM      4  N   UNL     1       6.118  -0.032   4.376  0.00  0.00    -0.114 NA
ATOM      5  N   UNL     1       5.861  -1.050   5.033  0.00  0.00    -0.157 NA
ATOM      6  C   UNL     1       4.409  -1.236   5.028  0.00  0.00    +0.245 C 
ATOM      7  N   UNL     1       3.815  -1.128   6.363  0.00  0.00    -0.321 N 
ATOM      8  C   UNL     1       2.512  -0.717   6.489  0.00  0.00    +0.014 C 
ATOM      9  C   UNL     1       1.837  -0.026   5.544  0.00  0.00    +0.023 C 
ATOM     10  C   UNL     1       0.514   0.402   5.751  0.00  0.00    +0.162 C 
ATOM     11  O   UNL     1      -0.055   1.016   4.871  0.00  0.00    -0.292 OA
ATOM     12  C   UNL     1      -0.214   0.116   7.035  0.00  0.00    +0.088 C 
ATOM     13  C   UNL     1       0.812  -0.004   8.167  0.00  0.00    +0.039 C 
ATOM     14  C   UNL     1       1.826  -1.092   7.788  0.00  0.00    +0.060 C 
ATOM     15  H   UNL     1       4.339  -1.344   7.150  0.00  0.00    +0.148 HD
ENDROOT
BRANCH   1  18
ATOM     16  C   UNL     1       0.626  -0.619   1.042  0.00  0.00    +0.164 A 
ATOM     17  C   UNL     1       1.202   0.137   2.051  0.00  0.00    +0.054 A 
ATOM     18  C   UNL     1       1.836  -0.490   3.108  0.00  0.00    -0.030 A 
ATOM     19  C   UNL     1       1.897  -1.870   3.161  0.00  0.00    +0.041 A 
ATOM     20  C   UNL     1       1.325  -2.630   2.158  0.00  0.00    +0.171 A 
ATOM     21  C   UNL     1       0.683  -2.008   1.099  0.00  0.00    +0.189 A 
BRANCH  20  22
ATOM     22  N   UNL     1       1.392  -4.107   2.218  0.00  0.00    +0.060 N 
ATOM     23  O   UNL     1       1.948  -4.649   3.145  0.00  0.00    -0.126 OA
ATOM     24  O   UNL     1       0.892  -4.771   1.341  0.00  0.00    -0.126 OA
ENDBRANCH  20  22
BRANCH  16  26
ATOM     25  C   UNL     1      -0.017   1.425   0.010  0.00  0.00    +0.277 C 
ATOM     26  O   UNL     1       0.002  -0.004   0.002  0.00  0.00    -0.491 OA
ENDBRANCH  16  26
BRANCH  21  27
ATOM     27  O   UNL     1       0.115  -2.754   0.114  0.00  0.00    -0.502 OA
ATOM     28  H   UNL     1       0.711  -2.957  -0.620  0.00  0.00    +0.292 HD
ENDBRANCH  21  27
ENDBRANCH   1  18
BRANCH  13  29
ATOM     29  C   UNL     1       0.113  -0.385   9.447  0.00  0.00    -0.006 A 
ATOM     30  C   UNL     1       0.059   0.288  10.623  0.00  0.00    +0.011 A 
ATOM     31  C   UNL     1      -0.651  -0.259  11.675  0.00  0.00    +0.008 A 
ATOM     32  C   UNL     1      -1.271  -1.451  11.501  0.00  0.00    +0.045 A 
ATOM     33  S   UNL     1      -0.864  -1.835   9.806  0.00  0.00    -0.101 S 
ENDBRANCH  13  29
BRANCH   3  34
ATOM     34  O   UNL     1       5.061   1.733   3.117  0.00  0.00    -0.491 OA
ATOM     35  H   UNL     1       5.955   2.041   2.914  0.00  0.00    +0.294 HD
ENDBRANCH   3  34
TORSDOF 6
