REMARK  Name = ZINC39794909
REMARK  4 active torsions:
REMARK  status: ('A' for Active; 'I' for Inactive)
REMARK    1  A    between atoms: C_1  and  C_2
REMARK    2  A    between atoms: C_2  and  C_31
REMARK    3  A    between atoms: C_6  and  C_17
REMARK    4  A    between atoms: C_20  and  C_22
REMARK                            x       y       z     vdW  Elec       q    Type
REMARK                         _______ _______ _______ _____ _____    ______ ____
ROOT
ATOM      1  C   UNL     1      -0.019   1.526   0.010  0.00  0.00    +0.011 C 
ATOM      2  C   UNL     1       0.002  -0.004   0.002  0.00  0.00    -0.023 C 
ATOM      3  C   UNL     1       0.740  -0.502  -1.243  0.00  0.00    +0.058 C 
ATOM      4  C   UNL     1       2.167  -0.011  -1.215  0.00  0.00    +0.017 C 
ATOM      5  C   UNL     1       2.812   0.186  -0.046  0.00  0.00    +0.027 C 
ATOM      6  C   UNL     1       4.238   0.676  -0.021  0.00  0.00    +0.128 C 
ATOM      7  C   UNL     1       4.903   0.482  -1.352  0.00  0.00    +0.070 A 
ATOM      8  C   UNL     1       4.166   0.274  -2.478  0.00  0.00    +0.113 A 
ATOM      9  N   UNL     1       4.803   0.107  -3.684  0.00  0.00    -0.295 N 
ATOM     10  C   UNL     1       6.146   0.144  -3.754  0.00  0.00    +0.328 A 
ATOM     11  O   UNL     1       6.695  -0.005  -4.829  0.00  0.00    -0.247 OA
ATOM     12  N   UNL     1       6.892   0.344  -2.652  0.00  0.00    -0.275 N 
ATOM     13  C   UNL     1       6.306   0.514  -1.450  0.00  0.00    +0.260 A 
ATOM     14  O   UNL     1       6.987   0.695  -0.456  0.00  0.00    -0.267 OA
ATOM     15  N   UNL     1       2.796   0.227  -2.407  0.00  0.00    -0.303 N 
ATOM     16  C   UNL     1       2.173  -0.054   1.183  0.00  0.00    +0.162 C 
ATOM     17  O   UNL     1       2.787   0.116   2.218  0.00  0.00    -0.292 OA
ATOM     18  C   UNL     1       0.743  -0.516   1.242  0.00  0.00    +0.086 C 
ATOM     19  C   UNL     1      -1.432  -0.538   0.002  0.00  0.00    +0.011 C 
ATOM     20  H   UNL     1       7.859   0.366  -2.723  0.00  0.00    +0.173 HD
ATOM     21  H   UNL     1       2.269   0.364  -3.210  0.00  0.00    +0.153 HD
ATOM     22  H   UNL     1       4.282  -0.039  -4.489  0.00  0.00    +0.172 HD
ENDROOT
BRANCH   6  23
ATOM     23  C   UNL     1       4.250   2.142   0.328  0.00  0.00    +0.118 A 
ATOM     24  C   UNL     1       4.866   2.691   1.393  0.00  0.00    +0.046 A 
ATOM     25  C   UNL     1       4.627   4.079   1.338  0.00  0.00    +0.050 A 
ATOM     26  C   UNL     1       3.870   4.302   0.231  0.00  0.00    +0.135 A 
ATOM     27  O   UNL     1       3.654   3.119  -0.375  0.00  0.00    -0.459 OA
BRANCH  26  28
ATOM     28  C   UNL     1       3.375   5.616  -0.231  0.00  0.00    +0.017 A 
ATOM     29  C   UNL     1       3.682   6.772   0.487  0.00  0.00    +0.011 A 
ATOM     30  C   UNL     1       3.217   7.996   0.051  0.00  0.00    +0.001 A 
ATOM     31  C   UNL     1       2.447   8.078  -1.096  0.00  0.00    +0.000 A 
ATOM     32  C   UNL     1       2.139   6.935  -1.813  0.00  0.00    +0.001 A 
ATOM     33  C   UNL     1       2.603   5.706  -1.391  0.00  0.00    +0.011 A 
ENDBRANCH  26  28
ENDBRANCH   6  23
TORSDOF 2
