REMARK  Name = ZINC50369082
REMARK  5 active torsions:
REMARK  status: ('A' for Active; 'I' for Inactive)
REMARK    1  A    between atoms: C_1  and  O_2
REMARK    2  A    between atoms: O_2  and  C_3
REMARK    3  A    between atoms: C_8  and  N_10
REMARK    4  A    between atoms: N_10  and  C_11
REMARK    5  A    between atoms: C_16  and  N_17
REMARK                            x       y       z     vdW  Elec       q    Type
REMARK                         _______ _______ _______ _____ _____    ______ ____
ROOT
ATOM      1  C   UNL     1       0.307  -3.101  -2.268  0.00  0.00    +0.049 A 
ATOM      2  C   UNL     1      -0.779  -3.690  -2.896  0.00  0.00    +0.030 A 
ATOM      3  C   UNL     1      -0.582  -4.540  -3.968  0.00  0.00    -0.024 A 
ATOM      4  C   UNL     1       0.704  -4.807  -4.418  0.00  0.00    +0.038 A 
ATOM      5  C   UNL     1       1.795  -4.220  -3.793  0.00  0.00    +0.048 A 
ATOM      6  C   UNL     1       1.599  -3.362  -2.721  0.00  0.00    +0.047 A 
ATOM      7  N   UNL     1       0.898  -5.670  -5.505  0.00  0.00    -0.285 N 
ATOM      8  C   UNL     1      -0.116  -5.949  -6.344  0.00  0.00    +0.218 C 
ATOM      9  O   UNL     1       0.065  -6.710  -7.271  0.00  0.00    -0.275 OA
ATOM     10  C   UNL     1      -1.472  -5.328  -6.144  0.00  0.00    +0.101 C 
ATOM     11  C   UNL     1      -1.763  -5.181  -4.651  0.00  0.00    +0.046 C 
ATOM     12  H   UNL     1       1.770  -6.070  -5.653  0.00  0.00    +0.155 HD
ENDROOT
BRANCH   6  13
ATOM     13  N   UNL     1       2.698  -2.764  -2.092  0.00  0.00    -0.356 N 
ATOM     14  H   UNL     1       2.560  -2.167  -1.340  0.00  0.00    +0.142 HD
ATOM     15  H   UNL     1       3.596  -2.946  -2.409  0.00  0.00    +0.142 HD
ENDBRANCH   6  13
BRANCH   1  16
ATOM     16  N   UNL     1       0.106  -2.239  -1.180  0.00  0.00    -0.337 N 
ATOM     17  H   UNL     1       0.866  -1.824  -0.743  0.00  0.00    +0.146 HD
BRANCH  16  22
ATOM     18  C   UNL     1      -1.295  -0.603   0.011  0.00  0.00    +0.138 C 
ATOM     19  C   UNL     1      -1.739  -0.880   1.462  0.00  0.00    +0.033 C 
ATOM     20  C   UNL     1      -2.501  -2.226   1.376  0.00  0.00    +0.004 C 
ATOM     21  C   UNL     1      -1.671  -3.023   0.339  0.00  0.00    +0.025 C 
ATOM     22  C   UNL     1      -1.252  -1.965  -0.704  0.00  0.00    +0.099 C 
BRANCH  18  24
ATOM     23  C   UNL     1      -0.017   1.425   0.010  0.00  0.00    +0.194 C 
ATOM     24  O   UNL     1       0.002  -0.004   0.002  0.00  0.00    -0.378 OA
ENDBRANCH  18  24
ENDBRANCH  16  22
ENDBRANCH   1  16
TORSDOF 4
