REMARK  Name = ZINC20916884
REMARK  13 active torsions:
REMARK  status: ('A' for Active; 'I' for Inactive)
REMARK    1  A    between atoms: C_1  and  C_2
REMARK    2  A    between atoms: C_2  and  C_3
REMARK    3  A    between atoms: C_6  and  C_8
REMARK    4  A    between atoms: C_8  and  N_9
REMARK    5  A    between atoms: N_9  and  C_10
REMARK    6  A    between atoms: C_10  and  C_11
REMARK    7  A    between atoms: C_12  and  C_14
REMARK    8  A    between atoms: C_14  and  S_15
REMARK    9  A    between atoms: S_15  and  C_16
REMARK   10  A    between atoms: N_20  and  N_21
REMARK   11  A    between atoms: N_22  and  N_23
REMARK   12  A    between atoms: C_24  and  C_25
REMARK   13  A    between atoms: C_34  and  O_35
REMARK                            x       y       z     vdW  Elec       q    Type
REMARK                         _______ _______ _______ _____ _____    ______ ____
ROOT
ATOM      1  C   UNL     1      -0.022   1.758   0.012  0.00  0.00    +0.210 A 
ATOM      2  N   UNL     1      -1.093   2.514   0.020  0.00  0.00    -0.119 NA
ATOM      3  N   UNL     1      -0.679   3.852   0.028  0.00  0.00    -0.109 NA
ATOM      4  C   UNL     1       0.632   3.870   0.016  0.00  0.00    +0.254 A 
ATOM      5  N   UNL     1       1.072   2.576   0.006  0.00  0.00    -0.211 N 
ATOM      6  N   UNL     1       1.432   5.003   0.014  0.00  0.00    -0.204 N 
ATOM      7  H   UNL     1       2.528   4.903   0.003  0.00  0.00    +0.177 HD
ENDROOT
BRANCH   5   8
ATOM      8  N   UNL     1       2.377   2.171  -0.008  0.00  0.00    -0.294 N 
ATOM      9  H   UNL     1       3.184   2.918  -0.012  0.00  0.00    +0.163 HD
ATOM     10  H   UNL     1       2.620   1.098  -0.015  0.00  0.00    +0.163 HD
ENDBRANCH   5   8
BRANCH   6  11
ATOM     11  N   UNL     1       0.845   6.275   0.026  0.00  0.00    -0.187 NA
ATOM     12  C   UNL     1       1.595   7.338   0.024  0.00  0.00    +0.142 C 
BRANCH  12  13
ATOM     13  C   UNL     1       0.980   8.672   0.037  0.00  0.00    +0.044 A 
ATOM     14  C   UNL     1       1.808   9.876   0.041  0.00  0.00    -0.006 A 
ATOM     15  C   UNL     1       3.206   9.802   0.033  0.00  0.00    +0.009 A 
ATOM     16  C   UNL     1       3.942  10.950   0.038  0.00  0.00    +0.001 A 
ATOM     17  C   UNL     1       3.321  12.197   0.050  0.00  0.00    +0.001 A 
ATOM     18  C   UNL     1       1.964  12.305   0.048  0.00  0.00    +0.008 A 
ATOM     19  C   UNL     1       1.174  11.143   0.049  0.00  0.00    -0.017 A 
ATOM     20  C   UNL     1      -0.230  11.215   0.063  0.00  0.00    +0.012 A 
ATOM     21  C   UNL     1      -0.985  10.085   0.064  0.00  0.00    +0.046 A 
ATOM     22  C   UNL     1      -0.407   8.816   0.051  0.00  0.00    +0.126 A 
BRANCH  22  23
ATOM     23  O   UNL     1      -1.201   7.714   0.053  0.00  0.00    -0.506 OA
ATOM     24  H   UNL     1      -2.295   7.824   0.064  0.00  0.00    +0.292 HD
ENDBRANCH  22  23
ENDBRANCH  12  13
ENDBRANCH   6  11
BRANCH   1  25
ATOM     25  S   UNL     1       0.002  -0.004   0.002  0.00  0.00    -0.075 S 
BRANCH  25  26
ATOM     26  C   UNL     1      -1.752  -0.467   0.016  0.00  0.00    +0.173 C 
BRANCH  26  28
ATOM     27  N   UNL     1      -3.094  -2.545   0.018  0.00  0.00    -0.292 N 
ATOM     28  C   UNL     1      -1.875  -1.969   0.009  0.00  0.00    +0.226 C 
ATOM     29  O   UNL     1      -0.878  -2.659  -0.004  0.00  0.00    -0.275 OA
BRANCH  27  30
ATOM     30  C   UNL     1      -4.298  -1.711   0.034  0.00  0.00    +0.105 C 
ATOM     31  C   UNL     1      -4.731  -1.413  -1.403  0.00  0.00    +0.024 C 
ENDBRANCH  27  30
BRANCH  27  32
ATOM     32  C   UNL     1      -3.213  -4.005   0.011  0.00  0.00    +0.205 C 
BRANCH  32  36
ATOM     33  C   UNL     1      -2.655  -5.259   3.361  0.00  0.00    +0.217 A 
ATOM     34  N   UNL     1      -3.951  -5.134   3.321  0.00  0.00    -0.112 NA
ATOM     35  N   UNL     1      -4.302  -4.688   2.166  0.00  0.00    -0.111 NA
ATOM     36  C   UNL     1      -3.241  -4.513   1.430  0.00  0.00    +0.234 A 
ATOM     37  O   UNL     1      -2.176  -4.875   2.165  0.00  0.00    -0.423 OA
BRANCH  33  39
ATOM     38  C   UNL     1      -1.683  -7.269   4.439  0.00  0.00    +0.013 C 
ATOM     39  C   UNL     1      -1.843  -5.750   4.531  0.00  0.00    +0.094 C 
ENDBRANCH  33  39
ENDBRANCH  32  36
ENDBRANCH  27  32
ENDBRANCH  26  28
ENDBRANCH  25  26
ENDBRANCH   1  25
TORSDOF 11
