REMARK  Name = ZINC08963319
REMARK  7 active torsions:
REMARK  status: ('A' for Active; 'I' for Inactive)
REMARK    1  A    between atoms: C_1  and  N_2
REMARK    2  A    between atoms: C_9  and  C_11
REMARK    3  A    between atoms: C_11  and  C_13
REMARK    4  A    between atoms: C_11  and  N_55
REMARK    5  A    between atoms: C_13  and  N_14
REMARK    6  A    between atoms: C_15  and  C_17
REMARK    7  A    between atoms: C_22  and  N_23
REMARK                            x       y       z     vdW  Elec       q    Type
REMARK                         _______ _______ _______ _____ _____    ______ ____
ROOT
ATOM      1  C   UNL     1      -2.190  -3.914   0.247  0.00  0.00    -0.020 C 
ENDROOT
BRANCH   1  10
ATOM      2  C   UNL     1      -7.522  -7.493   0.977  0.00  0.00    +0.129 C 
ATOM      3  N   UNL     1      -6.344  -7.772   0.146  0.00  0.00    -0.332 N 
ATOM      4  C   UNL     1      -6.696  -7.775  -1.291  0.00  0.00    +0.109 C 
ATOM      5  C   UNL     1      -5.394  -7.279  -1.959  0.00  0.00    +0.056 C 
ATOM      6  C   UNL     1      -4.737  -6.471  -0.858  0.00  0.00    -0.025 A 
ATOM      7  C   UNL     1      -5.350  -6.805   0.343  0.00  0.00    +0.033 A 
ATOM      8  C   UNL     1      -4.928  -6.183   1.516  0.00  0.00    +0.023 A 
ATOM      9  C   UNL     1      -3.907  -5.256   1.481  0.00  0.00    +0.004 A 
ATOM     10  C   UNL     1      -3.303  -4.929   0.281  0.00  0.00    -0.059 A 
ATOM     11  C   UNL     1      -3.719  -5.540  -0.889  0.00  0.00    +0.007 A 
ENDBRANCH   1  10
BRANCH   1  16
ATOM     12  C   UNL     1      -0.699  -5.456   1.399  0.00  0.00    -0.078 C 
ATOM     13  C   UNL     1       0.528  -5.294   2.332  0.00  0.00    -0.020 C 
ATOM     14  C   UNL     1       1.026  -3.868   2.003  0.00  0.00    -0.020 C 
ATOM     15  C   UNL     1      -0.191  -3.147   1.396  0.00  0.00    -0.078 C 
ATOM     16  N   UNL     1      -1.293  -4.110   1.425  0.00  0.00    +0.385 N 
ATOM     17  H   UNL     1      -1.837  -3.988   2.287  0.00  0.00    -0.081 HD
ENDBRANCH   1  16
BRANCH   1  18
ATOM     18  C   UNL     1      -2.784  -2.505   0.281  0.00  0.00    +0.094 C 
BRANCH  18  19
ATOM     19  N   UNL     1      -3.548  -2.267  -0.947  0.00  0.00    -0.313 N 
ATOM     20  C   UNL     1      -4.082  -1.053  -1.184  0.00  0.00    +0.246 C 
ATOM     21  O   UNL     1      -3.930  -0.154  -0.379  0.00  0.00    -0.270 OA
ATOM     22  H   UNL     1      -3.669  -2.984  -1.589  0.00  0.00    +0.149 HD
BRANCH  20  23
ATOM     23  C   UNL     1      -4.853  -0.813  -2.422  0.00  0.00    +0.067 A 
ATOM     24  C   UNL     1      -4.279  -1.078  -3.667  0.00  0.00    +0.015 A 
ATOM     25  C   UNL     1      -5.004  -0.853  -4.819  0.00  0.00    +0.001 A 
ATOM     26  C   UNL     1      -6.297  -0.365  -4.742  0.00  0.00    +0.002 A 
ATOM     27  C   UNL     1      -6.871  -0.100  -3.512  0.00  0.00    +0.033 A 
ATOM     28  C   UNL     1      -6.157  -0.321  -2.352  0.00  0.00    +0.138 A 
BRANCH  28  29
ATOM     29  N   UNL     1      -6.775  -0.043  -1.036  0.00  0.00    +0.057 N 
ATOM     30  O   UNL     1      -7.870   0.488  -0.978  0.00  0.00    -0.126 OA
ATOM     31  O   UNL     1      -6.188  -0.344  -0.012  0.00  0.00    -0.126 OA
ENDBRANCH  28  29
ENDBRANCH  20  23
ENDBRANCH  18  19
ENDBRANCH   1  18
TORSDOF 6
