REMARK  Name = ZINC16932821
REMARK  4 active torsions:
REMARK  status: ('A' for Active; 'I' for Inactive)
REMARK    1  A    between atoms: C_4  and  O_23
REMARK    2  A    between atoms: C_5  and  C_7
REMARK    3  A    between atoms: N_11  and  C_15
REMARK    4  A    between atoms: C_18  and  C_21
REMARK                            x       y       z     vdW  Elec       q    Type
REMARK                         _______ _______ _______ _____ _____    ______ ____
ROOT
ATOM      1  C   UNL     1      -1.060   5.482   0.251  0.00  0.00    +0.031 C 
ATOM      2  C   UNL     1      -0.562   4.247   0.514  0.00  0.00    +0.078 C 
ATOM      3  C   UNL     1       0.839   3.811   0.676  0.00  0.00    +0.263 C 
ATOM      4  O   UNL     1       1.766   4.593   0.582  0.00  0.00    -0.269 OA
ATOM      5  N   UNL     1       1.035   2.528   0.931  0.00  0.00    -0.224 N 
ATOM      6  C   UNL     1       0.005   1.665   1.035  0.00  0.00    +0.125 C 
ATOM      7  S   UNL     1       0.054  -0.016   1.356  0.00  0.00    -0.027 S 
ATOM      8  S   UNL     1      -1.423   2.698   0.750  0.00  0.00    -0.061 S 
ENDROOT
BRANCH   1  13
ATOM      9  C   UNL     1      -4.687   5.063   1.094  0.00  0.00    +0.001 A 
ATOM     10  C   UNL     1      -5.237   6.180   0.486  0.00  0.00    +0.004 A 
ATOM     11  C   UNL     1      -4.434   7.072  -0.199  0.00  0.00    +0.046 A 
ATOM     12  C   UNL     1      -3.068   6.855  -0.282  0.00  0.00    +0.124 A 
ATOM     13  C   UNL     1      -2.505   5.724   0.332  0.00  0.00    +0.018 A 
ATOM     14  C   UNL     1      -3.332   4.826   1.018  0.00  0.00    +0.011 A 
BRANCH  12  15
ATOM     15  O   UNL     1      -2.278   7.730  -0.955  0.00  0.00    -0.506 OA
ATOM     16  H   UNL     1      -2.169   7.521  -1.892  0.00  0.00    +0.292 HD
ENDBRANCH  12  15
ENDBRANCH   1  13
BRANCH   5  17
ATOM     17  C   UNL     1       2.340   2.057   1.095  0.00  0.00    +0.043 A 
ATOM     18  C   UNL     1       2.781   1.660   2.353  0.00  0.00    +0.025 A 
ATOM     19  C   UNL     1       4.065   1.191   2.517  0.00  0.00    +0.017 A 
ATOM     20  C   UNL     1       4.928   1.123   1.419  0.00  0.00    +0.063 A 
ATOM     21  C   UNL     1       4.483   1.527   0.158  0.00  0.00    +0.017 A 
ATOM     22  C   UNL     1       3.196   1.991   0.000  0.00  0.00    +0.025 A 
BRANCH  20  23
ATOM     23  C   UNL     1       6.306   0.625   1.592  0.00  0.00    +0.387 C 
ATOM     24  O   UNL     1       7.055   0.566   0.637  0.00  0.00    -0.241 OA
ATOM     25  O   UNL     1       6.734   0.236   2.809  0.00  0.00    -0.241 OA
ENDBRANCH  20  23
ENDBRANCH   5  17
TORSDOF 4
