REMARK  Name = ZINC09686684
REMARK  5 active torsions:
REMARK  status: ('A' for Active; 'I' for Inactive)
REMARK    1  A    between atoms: C_1  and  C_2
REMARK    2  A    between atoms: C_3  and  C_23
REMARK    3  A    between atoms: C_7  and  C_8
REMARK    4  A    between atoms: C_11  and  S_13
REMARK    5  A    between atoms: S_13  and  N_16
REMARK                            x       y       z     vdW  Elec       q    Type
REMARK                         _______ _______ _______ _____ _____    ______ ____
ROOT
ATOM      1  C   UNL     1      -5.181   3.474  -1.605  0.00  0.00    +0.039 A 
ATOM      2  C   UNL     1      -5.187   3.213  -0.259  0.00  0.00    +0.019 A 
ATOM      3  C   UNL     1      -4.132   3.660   0.506  0.00  0.00    +0.037 A 
ATOM      4  C   UNL     1      -3.129   4.354  -0.091  0.00  0.00    +0.143 A 
ATOM      5  S   UNL     1      -3.655   4.381  -1.797  0.00  0.00    -0.067 S 
ENDROOT
BRANCH   1  12
ATOM      6  C   UNL     1      -4.547   2.288  -4.447  0.00  0.00    +0.048 C 
ATOM      7  C   UNL     1      -5.911   2.582  -3.877  0.00  0.00    -0.002 A 
ATOM      8  C   UNL     1      -7.133   2.374  -4.515  0.00  0.00    +0.063 A 
ATOM      9  N   UNL     1      -8.095   2.751  -3.713  0.00  0.00    -0.178 NA
ATOM     10  N   UNL     1      -7.531   3.215  -2.518  0.00  0.00    -0.276 N 
ATOM     11  H   UNL     1      -8.032   3.565  -1.726  0.00  0.00    +0.189 HD
ATOM     12  C   UNL     1      -6.175   3.103  -2.627  0.00  0.00    +0.075 A 
ATOM     13  C   UNL     1      -7.315   1.813  -5.902  0.00  0.00    +0.068 C 
ENDBRANCH   1  12
BRANCH   4  14
ATOM     14  S   UNL     1      -1.677   5.043   0.631  0.00  0.00    +0.067 S 
ATOM     15  O   UNL     1      -1.968   5.255   2.006  0.00  0.00    -0.152 OA
ATOM     16  O   UNL     1      -1.255   6.093  -0.229  0.00  0.00    -0.152 OA
BRANCH  14  17
ATOM     17  N   UNL     1      -0.500   3.879   0.571  0.00  0.00    -0.176 NA
ATOM     18  C   UNL     1      -0.329   2.909   1.704  0.00  0.00    +0.109 C 
ATOM     19  C   UNL     1      -0.765   1.597   1.232  0.00  0.00    +0.017 C 
ATOM     20  C   UNL     1      -0.013   1.086   0.008  0.00  0.00    +0.001 C 
ATOM     21  C   UNL     1      -0.776   1.602  -1.177  0.00  0.00    +0.001 C 
ATOM     22  C   UNL     1      -0.126   2.893  -1.731  0.00  0.00    +0.017 C 
ATOM     23  C   UNL     1       0.371   3.782  -0.564  0.00  0.00    +0.109 C 
ENDBRANCH  14  17
ENDBRANCH   4  14
TORSDOF 3
