REMARK  Name = ZINC61684831
REMARK  4 active torsions:
REMARK  status: ('A' for Active; 'I' for Inactive)
REMARK    1  A    between atoms: C_7  and  C_9
REMARK    2  A    between atoms: C_11  and  N_19
REMARK    3  A    between atoms: C_14  and  N_15
REMARK    4  A    between atoms: N_19  and  N_20
REMARK                            x       y       z     vdW  Elec       q    Type
REMARK                         _______ _______ _______ _____ _____    ______ ____
ROOT
ATOM      1  C   UNL     1      -3.576  -1.180  -0.214  0.00  0.00    +0.069 A 
ATOM      2  C   UNL     1      -3.414  -2.563  -0.321  0.00  0.00    +0.042 A 
ATOM      3  C   UNL     1      -4.485  -3.403  -0.070  0.00  0.00    +0.077 A 
ATOM      4  C   UNL     1      -5.720  -2.868   0.290  0.00  0.00    +0.148 A 
ATOM      5  C   UNL     1      -5.879  -1.496   0.397  0.00  0.00    +0.073 A 
ATOM      6  C   UNL     1      -4.816  -0.653   0.153  0.00  0.00    +0.141 A 
ATOM      7  F   UNL     1      -6.764  -3.688   0.535  0.00  0.00    -0.203 F 
ENDROOT
BRANCH   1  14
ATOM      8  C   UNL     1      -0.187   1.480  -0.987  0.00  0.00    +0.088 A 
ATOM      9  C   UNL     1       1.026   2.058  -0.936  0.00  0.00    +0.232 A 
ATOM     10  O   UNL     1       1.764   1.403  -0.027  0.00  0.00    -0.361 OA
ATOM     11  N   UNL     1       0.969   0.364   0.516  0.00  0.00    -0.063 NA
ATOM     12  C   UNL     1      -0.203   0.412  -0.062  0.00  0.00    +0.168 A 
ATOM     13  N   UNL     1      -1.278  -0.439   0.189  0.00  0.00    -0.264 N 
ATOM     14  C   UNL     1      -2.437  -0.278  -0.480  0.00  0.00    +0.252 C 
ATOM     15  O   UNL     1      -2.545   0.609  -1.304  0.00  0.00    -0.270 OA
ATOM     16  H   UNL     1      -1.192  -1.147   0.847  0.00  0.00    +0.157 HD
ENDBRANCH   1  14
BRANCH   6  17
ATOM     17  N   UNL     1      -4.990   0.812   0.274  0.00  0.00    +0.057 N 
ATOM     18  O   UNL     1      -6.089   1.276   0.470  0.00  0.00    -0.126 OA
ATOM     19  O   UNL     1      -4.033   1.545   0.178  0.00  0.00    -0.126 OA
ENDBRANCH   6  17
BRANCH   3  20
ATOM     20  N   UNL     1      -4.328  -4.789  -0.177  0.00  0.00    -0.280 N 
ATOM     21  H   UNL     1      -5.079  -5.377  -0.000  0.00  0.00    +0.166 HD
BRANCH  20  22
ATOM     22  N   UNL     1      -3.117  -5.313  -0.530  0.00  0.00    -0.256 NA
ATOM     23  H   UNL     1      -3.157  -6.321  -0.566  0.00  0.00    +0.140 HD
ATOM     24  H   UNL     1      -2.800  -4.932  -1.409  0.00  0.00    +0.140 HD
ENDBRANCH  20  22
ENDBRANCH   3  20
TORSDOF 4
