REMARK  Name = ZINC12694667
REMARK  5 active torsions:
REMARK  status: ('A' for Active; 'I' for Inactive)
REMARK    1  A    between atoms: C_4  and  C_7
REMARK    2  A    between atoms: C_7  and  C_31
REMARK    3  A    between atoms: N_10  and  C_14
REMARK    4  A    between atoms: C_14  and  C_15
REMARK    5  A    between atoms: C_18  and  C_20
REMARK                            x       y       z     vdW  Elec       q    Type
REMARK                         _______ _______ _______ _____ _____    ______ ____
ROOT
ATOM      1  C   UNL     1      -9.863   3.802   1.528  0.00  0.00    +0.164 C 
ATOM      2  C   UNL     1      -8.752   3.158   2.333  0.00  0.00    +0.256 C 
ATOM      3  O   UNL     1      -8.630   3.154   3.539  0.00  0.00    -0.272 OA
ATOM      4  N   UNL     1      -7.928   2.591   1.429  0.00  0.00    -0.215 N 
ATOM      5  C   UNL     1      -8.363   2.780   0.178  0.00  0.00    +0.310 C 
ATOM      6  O   UNL     1      -7.790   2.359  -0.807  0.00  0.00    -0.252 OA
ATOM      7  N   UNL     1      -9.506   3.489   0.133  0.00  0.00    -0.278 N 
ATOM      8  H   UNL     1      -9.999   3.744  -0.663  0.00  0.00    +0.152 HD
ENDROOT
BRANCH   1  12
ATOM      9  C   UNL     1      -9.927   8.028   2.149  0.00  0.00    +0.000 A 
ATOM     10  C   UNL     1      -9.871   7.171   3.232  0.00  0.00    +0.000 A 
ATOM     11  C   UNL     1      -9.851   5.803   3.031  0.00  0.00    +0.006 A 
ATOM     12  C   UNL     1      -9.886   5.293   1.747  0.00  0.00    -0.011 A 
ATOM     13  C   UNL     1      -9.936   6.150   0.663  0.00  0.00    +0.006 A 
ATOM     14  C   UNL     1      -9.962   7.518   0.865  0.00  0.00    +0.000 A 
ENDBRANCH   1  12
BRANCH   1  15
ATOM     15  C   UNL     1     -11.196   3.195   1.883  0.00  0.00    -0.011 A 
ATOM     16  C   UNL     1     -11.600   3.141   3.204  0.00  0.00    +0.006 A 
ATOM     17  C   UNL     1     -12.825   2.588   3.529  0.00  0.00    +0.000 A 
ATOM     18  C   UNL     1     -13.640   2.080   2.535  0.00  0.00    +0.000 A 
ATOM     19  C   UNL     1     -13.233   2.130   1.215  0.00  0.00    +0.000 A 
ATOM     20  C   UNL     1     -12.011   2.688   0.889  0.00  0.00    +0.006 A 
ENDBRANCH   1  15
BRANCH   4  21
ATOM     21  C   UNL     1      -6.710   1.855   1.774  0.00  0.00    +0.214 C 
BRANCH  21  22
ATOM     22  C   UNL     1      -5.542   2.806   1.814  0.00  0.00    +0.237 C 
ATOM     23  O   UNL     1      -5.710   3.983   1.578  0.00  0.00    -0.274 OA
ATOM     24  N   UNL     1      -4.310   2.348   2.113  0.00  0.00    -0.252 N 
ATOM     25  C   UNL     1      -3.265   3.199   2.149  0.00  0.00    +0.263 C 
ATOM     26  O   UNL     1      -3.434   4.376   1.912  0.00  0.00    -0.271 OA
ATOM     27  H   UNL     1      -4.175   1.406   2.302  0.00  0.00    +0.158 HD
BRANCH  25  28
ATOM     28  C   UNL     1      -1.888   2.687   2.482  0.00  0.00    +0.296 C 
ATOM     29  C   UNL     1      -1.864   2.170   3.927  0.00  0.00    +0.283 C 
ATOM     30  O   UNL     1      -0.540   1.705   4.215  0.00  0.00    -0.484 OA
ATOM     31  C   UNL     1       0.487   2.518   3.845  0.00  0.00    +0.162 A 
ATOM     32  C   UNL     1       1.744   2.321   4.397  0.00  0.00    +0.049 A 
ATOM     33  C   UNL     1       2.798   3.134   4.026  0.00  0.00    +0.004 A 
ATOM     34  C   UNL     1       2.603   4.145   3.103  0.00  0.00    +0.004 A 
ATOM     35  C   UNL     1       1.353   4.348   2.551  0.00  0.00    +0.049 A 
ATOM     36  C   UNL     1       0.290   3.536   2.920  0.00  0.00    +0.163 A 
ATOM     37  O   UNL     1      -0.937   3.753   2.373  0.00  0.00    -0.473 OA
ENDBRANCH  25  28
ENDBRANCH  21  22
ENDBRANCH   4  21
TORSDOF 5
