REMARK  Name = ZINC24880342
REMARK  7 active torsions:
REMARK  status: ('A' for Active; 'I' for Inactive)
REMARK    1  A    between atoms: C_1  and  C_2
REMARK    2  A    between atoms: C_5  and  S_25
REMARK    3  A    between atoms: C_7  and  C_8
REMARK    4  A    between atoms: N_10  and  N_11
REMARK    5  A    between atoms: C_12  and  C_14
REMARK    6  A    between atoms: S_25  and  N_28
REMARK    7  A    between atoms: N_28  and  C_29
REMARK                            x       y       z     vdW  Elec       q    Type
REMARK                         _______ _______ _______ _____ _____    ______ ____
ROOT
ATOM      1  C   UNL     1      -1.136   6.165  -2.679  0.00  0.00    +0.260 C 
ATOM      2  O   UNL     1      -1.303   6.822  -3.688  0.00  0.00    -0.269 OA
ATOM      3  N   UNL     1      -0.702   6.761  -1.551  0.00  0.00    -0.230 N 
ATOM      4  H   UNL     1      -0.551   6.167  -0.638  0.00  0.00    +0.173 HD
ENDROOT
BRANCH   1  11
ATOM      5  C   UNL     1      -1.813   4.854  -5.168  0.00  0.00    +0.044 C 
ATOM      6  C   UNL     1      -1.736   4.069  -3.884  0.00  0.00    -0.038 A 
ATOM      7  C   UNL     1      -1.990   2.713  -3.886  0.00  0.00    +0.006 A 
ATOM      8  C   UNL     1      -1.919   1.991  -2.709  0.00  0.00    +0.029 A 
ATOM      9  C   UNL     1      -1.595   2.622  -1.521  0.00  0.00    +0.106 A 
ATOM     10  C   UNL     1      -1.344   3.978  -1.504  0.00  0.00    +0.042 A 
ATOM     11  C   UNL     1      -1.408   4.712  -2.689  0.00  0.00    +0.043 A 
BRANCH   9  12
ATOM     12  S   UNL     1      -1.508   1.693  -0.026  0.00  0.00    +0.059 S 
ATOM     13  O   UNL     1      -2.324   0.545  -0.214  0.00  0.00    -0.153 OA
ATOM     14  O   UNL     1      -1.720   2.612   1.036  0.00  0.00    -0.153 OA
BRANCH  12  15
ATOM     15  N   UNL     1       0.049   1.149   0.122  0.00  0.00    -0.187 NA
ATOM     16  H   UNL     1       0.269   0.089  -0.076  0.00  0.00    +0.148 HD
BRANCH  15  17
ATOM     17  C   UNL     1       1.145   2.104   0.298  0.00  0.00    +0.077 C 
ATOM     18  C   UNL     1       2.496   1.753  -0.329  0.00  0.00    +0.022 C 
ATOM     19  C   UNL     1       2.315   1.681   1.188  0.00  0.00    +0.022 C 
ENDBRANCH  15  17
ENDBRANCH  12  15
ENDBRANCH   9  12
ENDBRANCH   1  11
BRANCH   3  20
ATOM     20  N   UNL     1      -0.444   8.139  -1.541  0.00  0.00    -0.231 N 
ATOM     21  C   UNL     1      -0.010   8.735  -0.413  0.00  0.00    +0.273 C 
ATOM     22  O   UNL     1       0.157   8.079   0.594  0.00  0.00    -0.270 OA
ATOM     23  H   UNL     1      -0.595   8.733  -2.454  0.00  0.00    +0.173 HD
BRANCH  21  24
ATOM     24  C   UNL     1       0.268  10.216  -0.403  0.00  0.00    +0.297 C 
ATOM     25  C   UNL     1      -1.042  10.990  -0.602  0.00  0.00    +0.283 C 
ATOM     26  O   UNL     1      -0.745  12.390  -0.573  0.00  0.00    -0.484 OA
ATOM     27  C   UNL     1       0.070  12.822   0.428  0.00  0.00    +0.162 A 
ATOM     28  C   UNL     1       0.113  14.174   0.735  0.00  0.00    +0.049 A 
ATOM     29  C   UNL     1       0.937  14.627   1.748  0.00  0.00    +0.004 A 
ATOM     30  C   UNL     1       1.720  13.736   2.457  0.00  0.00    +0.004 A 
ATOM     31  C   UNL     1       1.681  12.388   2.157  0.00  0.00    +0.049 A 
ATOM     32  C   UNL     1       0.855  11.925   1.143  0.00  0.00    +0.163 A 
ATOM     33  O   UNL     1       0.824  10.594   0.861  0.00  0.00    -0.472 OA
ENDBRANCH  21  24
ENDBRANCH   3  20
TORSDOF 6
