REMARK  Name = ZINC36531022
REMARK  12 active torsions:
REMARK  status: ('A' for Active; 'I' for Inactive)
REMARK    1  A    between atoms: C_1  and  C_2
REMARK    2  A    between atoms: C_5  and  S_8
REMARK    3  A    between atoms: S_8  and  C_11
REMARK    4  A    between atoms: C_11  and  N_12
REMARK    5  A    between atoms: C_13  and  C_15
REMARK    6  A    between atoms: C_15  and  C_17
REMARK    7  A    between atoms: C_15  and  N_24
REMARK    8  A    between atoms: C_22  and  O_23
REMARK    9  A    between atoms: N_24  and  C_25
REMARK   10  A    between atoms: C_26  and  C_28
REMARK   11  A    between atoms: C_29  and  O_35
REMARK   12  A    between atoms: C_33  and  O_34
REMARK                            x       y       z     vdW  Elec       q    Type
REMARK                         _______ _______ _______ _____ _____    ______ ____
ROOT
ATOM      1  C   UNL     1       3.301  -5.000   3.483  0.00  0.00    +0.196 C 
ENDROOT
BRANCH   1   2
ATOM      2  C   UNL     1       2.522  -3.890   4.141  0.00  0.00    +0.023 A 
ATOM      3  C   UNL     1       1.185  -3.712   3.842  0.00  0.00    +0.009 A 
ATOM      4  C   UNL     1       0.471  -2.693   4.445  0.00  0.00    +0.001 A 
ATOM      5  C   UNL     1       1.092  -1.850   5.348  0.00  0.00    +0.004 A 
ATOM      6  C   UNL     1       2.429  -2.024   5.651  0.00  0.00    +0.046 A 
ATOM      7  C   UNL     1       3.147  -3.049   5.051  0.00  0.00    +0.122 A 
BRANCH   7   8
ATOM      8  O   UNL     1       4.460  -3.226   5.351  0.00  0.00    -0.506 OA
ATOM      9  H   UNL     1       5.060  -2.673   4.832  0.00  0.00    +0.292 HD
ENDBRANCH   7   8
ENDBRANCH   1   2
BRANCH   1  11
ATOM     10  N   UNL     1       2.669  -4.850   1.096  0.00  0.00    -0.294 N 
ATOM     11  C   UNL     1       2.548  -5.493   2.274  0.00  0.00    +0.239 C 
ATOM     12  O   UNL     1       1.833  -6.469   2.362  0.00  0.00    -0.273 OA
ATOM     13  H   UNL     1       3.187  -4.032   1.041  0.00  0.00    +0.150 HD
BRANCH  10  14
ATOM     14  C   UNL     1       2.017  -5.386  -0.101  0.00  0.00    +0.278 C 
BRANCH  14  15
ATOM     15  S   UNL     1       0.405  -4.584  -0.323  0.00  0.00    +0.013 S 
ATOM     16  O   UNL     1      -0.309  -4.573   0.906  0.00  0.00    -0.168 OA
ATOM     17  O   UNL     1      -0.213  -5.048  -1.515  0.00  0.00    -0.168 OA
BRANCH  15  22
ATOM     18  C   UNL     1       1.688   1.211  -1.407  0.00  0.00    +0.044 C 
ATOM     19  C   UNL     1       1.368  -0.237  -1.136  0.00  0.00    -0.050 A 
ATOM     20  C   UNL     1       1.268  -1.131  -2.186  0.00  0.00    +0.005 A 
ATOM     21  C   UNL     1       0.975  -2.458  -1.937  0.00  0.00    +0.027 A 
ATOM     22  C   UNL     1       0.780  -2.892  -0.639  0.00  0.00    +0.090 A 
ATOM     23  C   UNL     1       0.881  -1.998   0.410  0.00  0.00    +0.027 A 
ATOM     24  C   UNL     1       1.179  -0.671   0.162  0.00  0.00    +0.005 A 
ENDBRANCH  15  22
ENDBRANCH  14  15
ENDBRANCH  10  14
ENDBRANCH   1  11
BRANCH   1  25
ATOM     25  N   UNL     1       3.477  -6.102   4.432  0.00  0.00    -0.285 N 
ATOM     26  C   UNL     1       2.310  -6.698   5.087  0.00  0.00    +0.133 C 
ATOM     27  C   UNL     1       4.712  -6.567   4.703  0.00  0.00    +0.254 C 
ATOM     28  O   UNL     1       5.681  -6.072   4.159  0.00  0.00    -0.270 OA
BRANCH  27  29
ATOM     29  C   UNL     1       4.889  -7.675   5.657  0.00  0.00    +0.119 A 
ATOM     30  C   UNL     1       4.879  -9.003   5.207  0.00  0.00    +0.133 A 
ATOM     31  C   UNL     1       5.046 -10.037   6.113  0.00  0.00    +0.046 A 
ATOM     32  C   UNL     1       5.224  -9.764   7.457  0.00  0.00    +0.007 A 
ATOM     33  C   UNL     1       5.236  -8.458   7.911  0.00  0.00    +0.046 A 
ATOM     34  C   UNL     1       5.076  -7.408   7.021  0.00  0.00    +0.133 A 
BRANCH  34  35
ATOM     35  O   UNL     1       5.094  -6.128   7.469  0.00  0.00    -0.506 OA
ATOM     36  H   UNL     1       4.225  -5.788   7.724  0.00  0.00    +0.292 HD
ENDBRANCH  34  35
BRANCH  30  37
ATOM     37  O   UNL     1       4.704  -9.274   3.889  0.00  0.00    -0.506 OA
ATOM     38  H   UNL     1       5.527  -9.318   3.384  0.00  0.00    +0.292 HD
ENDBRANCH  30  37
ENDBRANCH  27  29
ENDBRANCH   1  25
TORSDOF 10
