REMARK  Name = ZINC65506352
REMARK  7 active torsions:
REMARK  status: ('A' for Active; 'I' for Inactive)
REMARK    1  A    between atoms: C_4  and  C_7
REMARK    2  A    between atoms: C_7  and  C_9
REMARK    3  A    between atoms: C_7  and  N_15
REMARK    4  A    between atoms: C_9  and  N_10
REMARK    5  A    between atoms: C_24  and  C_26
REMARK    6  A    between atoms: C_26  and  C_27
REMARK    7  A    between atoms: C_27  and  N_28
REMARK                            x       y       z     vdW  Elec       q    Type
REMARK                         _______ _______ _______ _____ _____    ______ ____
ROOT
ATOM      1  N   UNL     1       3.630  -1.873   0.845  0.00  0.00    -0.320 N 
ATOM      2  C   UNL     1       3.876  -1.735   2.195  0.00  0.00    +0.131 A 
ATOM      3  C   UNL     1       3.809  -2.850   3.065  0.00  0.00    +0.040 A 
ATOM      4  C   UNL     1       3.494  -4.134   2.606  0.00  0.00    +0.013 A 
ATOM      5  C   UNL     1       3.444  -5.170   3.491  0.00  0.00    +0.001 A 
ATOM      6  C   UNL     1       3.702  -4.968   4.844  0.00  0.00    +0.002 A 
ATOM      7  C   UNL     1       4.012  -3.730   5.322  0.00  0.00    +0.028 A 
ATOM      8  C   UNL     1       4.073  -2.642   4.440  0.00  0.00    +0.076 A 
ATOM      9  N   UNL     1       4.373  -1.404   4.859  0.00  0.00    -0.232 NA
ATOM     10  C   UNL     1       4.421  -0.407   4.007  0.00  0.00    +0.130 A 
ATOM     11  N   UNL     1       4.188  -0.554   2.712  0.00  0.00    -0.217 NA
ATOM     12  H   UNL     1       3.403  -2.743   0.480  0.00  0.00    +0.148 HD
ENDROOT
BRANCH   1  13
ATOM     13  C   UNL     1       3.711  -0.707  -0.038  0.00  0.00    +0.123 C 
BRANCH  13  17
ATOM     14  C   UNL     1      -0.017   1.378   0.010  0.00  0.00    +0.000 A 
ATOM     15  C   UNL     1       1.171   2.086   0.002  0.00  0.00    +0.000 A 
ATOM     16  C   UNL     1       2.377   1.411  -0.013  0.00  0.00    +0.005 A 
ATOM     17  C   UNL     1       2.396   0.029  -0.020  0.00  0.00    -0.026 A 
ATOM     18  C   UNL     1       1.208  -0.679  -0.012  0.00  0.00    +0.005 A 
ATOM     19  C   UNL     1       0.002  -0.004   0.002  0.00  0.00    +0.000 A 
ENDBRANCH  13  17
BRANCH  13  20
ATOM     20  C   UNL     1       4.019  -1.168  -1.464  0.00  0.00    +0.170 C 
BRANCH  20  21
ATOM     21  N   UNL     1       5.351  -1.777  -1.503  0.00  0.00    -0.269 N 
ATOM     22  C   UNL     1       5.646  -3.011  -1.963  0.00  0.00    +0.108 A 
ATOM     23  C   UNL     1       6.979  -3.194  -1.827  0.00  0.00    +0.041 A 
ATOM     24  C   UNL     1       7.518  -2.031  -1.266  0.00  0.00    +0.134 A 
ATOM     25  N   UNL     1       6.544  -1.179  -1.077  0.00  0.00    -0.180 NA
ENDBRANCH  20  21
ENDBRANCH  13  20
ENDBRANCH   1  13
BRANCH  10  26
ATOM     26  C   UNL     1       4.763   0.966   4.525  0.00  0.00    +0.057 C 
BRANCH  26  27
ATOM     27  C   UNL     1       6.279   1.168   4.472  0.00  0.00    -0.079 C 
BRANCH  27  28
ATOM     28  N   UNL     1       6.613   2.506   4.977  0.00  0.00    +0.378 N 
ATOM     29  H   UNL     1       6.160   3.204   4.405  0.00  0.00    -0.090 HD
ATOM     30  H   UNL     1       6.295   2.595   5.930  0.00  0.00    -0.090 HD
ATOM     31  H   UNL     1       7.612   2.640   4.942  0.00  0.00    -0.090 HD
ENDBRANCH  27  28
ENDBRANCH  26  27
ENDBRANCH  10  26
TORSDOF 7
