REMARK  Name = ZINC58756990
REMARK  10 active torsions:
REMARK  status: ('A' for Active; 'I' for Inactive)
REMARK    1  A    between atoms: C_1  and  C_2
REMARK    2  A    between atoms: C_4  and  C_32
REMARK    3  A    between atoms: C_5  and  N_9
REMARK    4  A    between atoms: C_6  and  C_8
REMARK    5  A    between atoms: C_10  and  C_12
REMARK    6  A    between atoms: C_12  and  N_13
REMARK    7  A    between atoms: N_16  and  C_17
REMARK    8  A    between atoms: C_17  and  C_18
REMARK    9  A    between atoms: C_22  and  N_24
REMARK   10  A    between atoms: C_25  and  C_27
REMARK                            x       y       z     vdW  Elec       q    Type
REMARK                         _______ _______ _______ _____ _____    ______ ____
ROOT
ATOM      1  N   UNL     1       1.764  -7.394   2.389  0.00  0.00    -0.291 N 
ATOM      2  C   UNL     1       1.742  -8.741   2.448  0.00  0.00    +0.300 C 
ATOM      3  O   UNL     1       1.350  -9.384   1.493  0.00  0.00    -0.253 OA
ATOM      4  N   UNL     1       2.153  -9.374   3.564  0.00  0.00    -0.295 N 
ATOM      5  H   UNL     1       2.076  -6.881   3.151  0.00  0.00    +0.151 HD
ATOM      6  H   UNL     1       2.466  -8.860   4.325  0.00  0.00    +0.151 HD
ENDROOT
BRANCH   1   7
ATOM      7  C   UNL     1       1.317  -6.706   1.176  0.00  0.00    +0.202 C 
BRANCH   7   9
ATOM      8  N   UNL     1       1.085  -4.377   0.376  0.00  0.00    -0.284 N 
ATOM      9  C   UNL     1       1.441  -5.217   1.368  0.00  0.00    +0.234 C 
ATOM     10  O   UNL     1       1.862  -4.774   2.416  0.00  0.00    -0.274 OA
ATOM     11  H   UNL     1       0.671  -4.726  -0.429  0.00  0.00    +0.155 HD
BRANCH   8  16
ATOM     12  C   UNL     1       2.003   1.196   0.907  0.00  0.00    +0.044 C 
ATOM     13  C   UNL     1       1.759  -0.284   0.766  0.00  0.00    -0.050 A 
ATOM     14  C   UNL     1       2.298  -0.973  -0.305  0.00  0.00    +0.008 A 
ATOM     15  C   UNL     1       2.076  -2.330  -0.437  0.00  0.00    -0.029 A 
ATOM     16  C   UNL     1       1.312  -3.002   0.507  0.00  0.00    +0.039 A 
ATOM     17  C   UNL     1       0.772  -2.308   1.582  0.00  0.00    -0.029 A 
ATOM     18  C   UNL     1       1.002  -0.952   1.711  0.00  0.00    +0.008 A 
ATOM     19  C   UNL     1      -0.058  -3.034   2.609  0.00  0.00    +0.045 C 
ATOM     20  C   UNL     1       2.663  -3.080  -1.606  0.00  0.00    +0.045 C 
ENDBRANCH   8  16
ENDBRANCH   7   9
ENDBRANCH   1   7
BRANCH   4  21
ATOM     21  C   UNL     1       2.129 -10.837   3.627  0.00  0.00    +0.141 C 
BRANCH  21  22
ATOM     22  C   UNL     1       2.635 -11.290   4.973  0.00  0.00    -0.029 A 
ATOM     23  C   UNL     1       3.985 -11.530   5.158  0.00  0.00    +0.005 A 
ATOM     24  C   UNL     1       4.453 -11.945   6.391  0.00  0.00    +0.002 A 
ATOM     25  C   UNL     1       3.574 -12.123   7.441  0.00  0.00    +0.023 A 
ATOM     26  C   UNL     1       2.219 -11.883   7.259  0.00  0.00    +0.034 A 
ATOM     27  C   UNL     1       1.752 -11.460   6.021  0.00  0.00    +0.028 A 
BRANCH  26  28
ATOM     28  N   UNL     1       1.326 -12.061   8.320  0.00  0.00    -0.279 N 
ATOM     29  C   UNL     1       1.716 -11.787   9.581  0.00  0.00    +0.284 C 
ATOM     30  O   UNL     1       2.820 -11.320   9.789  0.00  0.00    -0.266 OA
ATOM     31  H   UNL     1       0.427 -12.382   8.149  0.00  0.00    +0.155 HD
BRANCH  29  32
ATOM     32  C   UNL     1       0.809 -12.052  10.702  0.00  0.00    +0.189 A 
ATOM     33  C   UNL     1       1.073 -11.818  12.021  0.00  0.00    +0.054 A 
ATOM     34  C   UNL     1      -0.066 -12.215  12.739  0.00  0.00    +0.042 A 
ATOM     35  C   UNL     1      -0.964 -12.670  11.838  0.00  0.00    +0.196 A 
ATOM     36  O   UNL     1      -0.436 -12.565  10.611  0.00  0.00    -0.458 OA
ENDBRANCH  29  32
ENDBRANCH  26  28
ENDBRANCH  21  22
ENDBRANCH   4  21
TORSDOF 7
