REMARK  Name = ZINC13692116
REMARK  8 active torsions:
REMARK  status: ('A' for Active; 'I' for Inactive)
REMARK    1  A    between atoms: C_1  and  C_2
REMARK    2  A    between atoms: C_3  and  C_21
REMARK    3  A    between atoms: C_9  and  O_19
REMARK    4  A    between atoms: C_15  and  C_17
REMARK    5  A    between atoms: C_15  and  C_18
REMARK    6  A    between atoms: O_19  and  C_20
REMARK    7  A    between atoms: C_21  and  C_22
REMARK    8  A    between atoms: N_24  and  C_25
REMARK                            x       y       z     vdW  Elec       q    Type
REMARK                         _______ _______ _______ _____ _____    ______ ____
ROOT
ATOM      1  C   UNL     1       3.429  -2.224   2.748  0.00  0.00    +0.045 C 
ATOM      2  C   UNL     1       3.345  -3.040   1.484  0.00  0.00    -0.026 A 
ATOM      3  C   UNL     1       3.537  -2.458   0.271  0.00  0.00    +0.049 A 
ATOM      4  C   UNL     1       3.462  -3.237  -0.901  0.00  0.00    +0.341 A 
ATOM      5  O   UNL     1       3.642  -2.709  -1.984  0.00  0.00    -0.245 OA
ATOM      6  O   UNL     1       3.196  -4.553  -0.843  0.00  0.00    -0.421 OA
ATOM      7  C   UNL     1       2.991  -5.168   0.344  0.00  0.00    +0.149 A 
ATOM      8  C   UNL     1       3.059  -4.428   1.537  0.00  0.00    +0.063 A 
ATOM      9  C   UNL     1       2.847  -5.072   2.769  0.00  0.00    +0.134 A 
ATOM     10  C   UNL     1       2.576  -6.423   2.791  0.00  0.00    +0.092 A 
ATOM     11  C   UNL     1       2.509  -7.155   1.604  0.00  0.00    +0.131 A 
ATOM     12  C   UNL     1       2.713  -6.528   0.387  0.00  0.00    +0.038 A 
ATOM     13  C   UNL     1       2.635  -7.290  -0.912  0.00  0.00    +0.046 C 
ATOM     14  C   UNL     1       2.760  -8.791  -0.640  0.00  0.00    +0.052 C 
ATOM     15  C   UNL     1       1.804  -9.153   0.503  0.00  0.00    +0.105 C 
ATOM     16  O   UNL     1       2.243  -8.484   1.686  0.00  0.00    -0.486 OA
ATOM     17  C   UNL     1       1.821 -10.666   0.730  0.00  0.00    +0.055 C 
ATOM     18  C   UNL     1       0.385  -8.700   0.152  0.00  0.00    +0.055 C 
ENDROOT
BRANCH   9  19
ATOM     19  O   UNL     1       2.909  -4.368   3.928  0.00  0.00    -0.494 OA
ATOM     20  C   UNL     1       2.682  -5.091   5.139  0.00  0.00    +0.277 C 
ENDBRANCH   9  19
BRANCH   3  21
ATOM     21  C   UNL     1       3.837  -0.984   0.180  0.00  0.00    +0.138 C 
BRANCH  21  22
ATOM     22  C   UNL     1       2.546  -0.216   0.055  0.00  0.00    +0.222 C 
ATOM     23  O   UNL     1       1.487  -0.808   0.041  0.00  0.00    -0.275 OA
ATOM     24  N   UNL     1       2.568   1.128  -0.042  0.00  0.00    -0.283 N 
ATOM     25  H   UNL     1       3.416   1.596  -0.102  0.00  0.00    +0.155 HD
BRANCH  24  26
ATOM     26  C   UNL     1       1.367   1.849  -0.056  0.00  0.00    +0.069 A 
ATOM     27  C   UNL     1       0.238   1.308  -0.655  0.00  0.00    +0.029 A 
ATOM     28  C   UNL     1      -0.944   2.023  -0.673  0.00  0.00    +0.040 A 
ATOM     29  C   UNL     1      -1.007   3.275  -0.084  0.00  0.00    +0.126 A 
ATOM     30  C   UNL     1       0.117   3.818   0.514  0.00  0.00    +0.078 A 
ATOM     31  C   UNL     1       1.304   3.109   0.530  0.00  0.00    +0.147 A 
ATOM     32  F   UNL     1       2.401   3.638   1.114  0.00  0.00    -0.203 F 
ATOM     33  F   UNL     1      -2.166   3.970  -0.099  0.00  0.00    -0.205 F 
ENDBRANCH  24  26
ENDBRANCH  21  22
ENDBRANCH   3  21
TORSDOF 4
