REMARK  Name = ZINC13254206
REMARK  10 active torsions:
REMARK  status: ('A' for Active; 'I' for Inactive)
REMARK    1  A    between atoms: C_1  and  C_2
REMARK    2  A    between atoms: C_5  and  N_9
REMARK    3  A    between atoms: C_6  and  C_8
REMARK    4  A    between atoms: N_9  and  S_10
REMARK    5  A    between atoms: S_10  and  C_13
REMARK    6  A    between atoms: C_15  and  N_20
REMARK    7  A    between atoms: C_18  and  C_19
REMARK    8  A    between atoms: C_21  and  C_23
REMARK    9  A    between atoms: C_23  and  C_24
REMARK   10  A    between atoms: C_24  and  C_31
REMARK                            x       y       z     vdW  Elec       q    Type
REMARK                         _______ _______ _______ _____ _____    ______ ____
ROOT
ATOM      1  C   UNL     1       0.813  -0.893  -4.080  0.00  0.00    +0.113 A 
ATOM      2  C   UNL     1       2.107  -0.934  -4.560  0.00  0.00    +0.052 A 
ATOM      3  C   UNL     1       2.415  -0.340  -5.777  0.00  0.00    +0.035 A 
ATOM      4  C   UNL     1       1.420   0.301  -6.504  0.00  0.00    +0.023 A 
ATOM      5  C   UNL     1       0.129   0.343  -6.017  0.00  0.00    +0.007 A 
ATOM      6  C   UNL     1      -0.175  -0.254  -4.806  0.00  0.00    -0.024 A 
ATOM      7  C   UNL     1      -1.585  -0.206  -4.278  0.00  0.00    +0.046 C 
ENDROOT
BRANCH   3   8
ATOM      8  N   UNL     1       3.724  -0.384  -6.267  0.00  0.00    -0.285 N 
ATOM      9  C   UNL     1       4.210   0.648  -6.986  0.00  0.00    +0.218 C 
ATOM     10  O   UNL     1       3.537   1.644  -7.147  0.00  0.00    -0.275 OA
ATOM     11  H   UNL     1       4.283  -1.157  -6.090  0.00  0.00    +0.155 HD
BRANCH   9  12
ATOM     12  C   UNL     1       5.587   0.563  -7.591  0.00  0.00    +0.114 C 
BRANCH  12  13
ATOM     13  C   UNL     1       5.787   1.722  -8.570  0.00  0.00    +0.080 C 
ATOM     14  C   UNL     1       6.713   1.294  -9.676  0.00  0.00    +0.019 C 
ATOM     15  C   UNL     1       7.662   0.159  -9.246  0.00  0.00    +0.001 C 
ATOM     16  C   UNL     1       8.229   0.360  -7.827  0.00  0.00    +0.000 C 
ATOM     17  C   UNL     1       8.625   1.787  -7.562  0.00  0.00    +0.000 C 
ATOM     18  C   UNL     1       7.443   2.506  -6.882  0.00  0.00    +0.001 C 
ATOM     19  C   UNL     1       6.422   2.919  -7.834  0.00  0.00    +0.019 C 
BRANCH  13  20
ATOM     20  C   UNL     1       4.457   2.131  -9.148  0.00  0.00    +0.362 C 
ATOM     21  O   UNL     1       4.070   3.269  -9.028  0.00  0.00    -0.246 OA
ATOM     22  O   UNL     1       3.701   1.230  -9.796  0.00  0.00    -0.246 OA
ENDBRANCH  13  20
ENDBRANCH  12  13
ENDBRANCH   9  12
ENDBRANCH   3   8
BRANCH   1  23
ATOM     23  S   UNL     1       0.421  -1.651  -2.539  0.00  0.00    +0.073 S 
ATOM     24  O   UNL     1      -0.275  -0.677  -1.773  0.00  0.00    -0.150 OA
ATOM     25  O   UNL     1       1.612  -2.274  -2.078  0.00  0.00    -0.150 OA
BRANCH  23  26
ATOM     26  N   UNL     1      -0.659  -2.867  -2.851  0.00  0.00    -0.216 N 
ATOM     27  H   UNL     1      -1.530  -2.864  -2.425  0.00  0.00    +0.174 HD
BRANCH  26  32
ATOM     28  C   UNL     1       0.738  -7.053  -6.413  0.00  0.00    +0.044 C 
ATOM     29  C   UNL     1       0.366  -5.940  -5.467  0.00  0.00    -0.050 A 
ATOM     30  C   UNL     1       1.327  -5.393  -4.635  0.00  0.00    +0.005 A 
ATOM     31  C   UNL     1       0.989  -4.377  -3.763  0.00  0.00    +0.025 A 
ATOM     32  C   UNL     1      -0.315  -3.898  -3.729  0.00  0.00    +0.051 A 
ATOM     33  C   UNL     1      -1.275  -4.446  -4.569  0.00  0.00    -0.028 A 
ATOM     34  C   UNL     1      -0.932  -5.466  -5.435  0.00  0.00    +0.008 A 
ATOM     35  C   UNL     1      -2.691  -3.930  -4.535  0.00  0.00    +0.046 C 
ENDBRANCH  26  32
ENDBRANCH  23  26
ENDBRANCH   1  23
TORSDOF 7
