REMARK  Name = ZINC12581087
REMARK  4 active torsions:
REMARK  status: ('A' for Active; 'I' for Inactive)
REMARK    1  A    between atoms: C_1  and  N_2
REMARK    2  A    between atoms: C_8  and  C_10
REMARK    3  A    between atoms: C_15  and  N_18
REMARK    4  A    between atoms: C_21  and  C_24
REMARK                            x       y       z     vdW  Elec       q    Type
REMARK                         _______ _______ _______ _____ _____    ______ ____
ROOT
ATOM      1  C   UNL     1       1.515   0.318   1.575  0.00  0.00    +0.202 C 
ATOM      2  O   UNL     1       1.405   1.334   0.922  0.00  0.00    -0.277 OA
ATOM      3  N   UNL     1       2.454   0.235   2.538  0.00  0.00    -0.303 N 
ATOM      4  C   UNL     1       2.694  -1.032   3.243  0.00  0.00    +0.106 C 
ATOM      5  C   UNL     1       4.184  -1.374   3.148  0.00  0.00    +0.004 C 
ATOM      6  C   UNL     1       5.008  -0.197   3.674  0.00  0.00    -0.066 C 
ATOM      7  C   UNL     1       4.741   1.040   2.813  0.00  0.00    +0.004 C 
ATOM      8  C   UNL     1       3.262   1.408   2.900  0.00  0.00    +0.106 C 
ENDROOT
BRANCH   1  16
ATOM      9  C   UNL     1      -0.895   0.898   1.871  0.00  0.00    -0.095 C 
ATOM     10  N   UNL     1      -0.757  -0.389   1.175  0.00  0.00    +0.385 N 
ATOM     11  C   UNL     1      -1.726  -1.350   1.745  0.00  0.00    -0.078 C 
ATOM     12  C   UNL     1      -1.400  -2.818   1.418  0.00  0.00    -0.019 C 
ATOM     13  C   UNL     1      -0.971  -3.035  -0.009  0.00  0.00    -0.002 C 
ATOM     14  C   UNL     1       0.573  -2.924  -0.088  0.00  0.00    -0.001 C 
ATOM     15  C   UNL     1       1.001  -1.533  -0.010  0.00  0.00    -0.006 C 
ATOM     16  C   UNL     1       0.603  -0.851   1.309  0.00  0.00    +0.019 C 
ATOM     17  H   UNL     1      -0.965  -0.257   0.197  0.00  0.00    -0.081 HD
ENDBRANCH   1  16
BRANCH   6  18
ATOM     18  N   UNL     1       6.437  -0.535   3.616  0.00  0.00    +0.382 N 
ATOM     19  C   UNL     1       6.690  -1.726   4.436  0.00  0.00    -0.078 C 
ATOM     20  C   UNL     1       8.161  -2.130   4.314  0.00  0.00    -0.006 C 
ATOM     21  C   UNL     1       9.043  -0.976   4.800  0.00  0.00    +0.072 C 
ATOM     22  C   UNL     1       8.718   0.280   3.987  0.00  0.00    -0.006 C 
ATOM     23  C   UNL     1       7.226   0.595   4.121  0.00  0.00    -0.078 C 
ATOM     24  H   UNL     1       6.697  -0.726   2.660  0.00  0.00    -0.081 HD
BRANCH  21  25
ATOM     25  C   UNL     1      10.494  -1.337   4.610  0.00  0.00    +0.219 C 
ATOM     26  O   UNL     1      11.063  -1.040   3.581  0.00  0.00    -0.275 OA
ATOM     27  N   UNL     1      11.159  -1.990   5.584  0.00  0.00    -0.297 N 
ATOM     28  C   UNL     1      10.462  -2.467   6.788  0.00  0.00    +0.136 C 
ATOM     29  C   UNL     1      10.816  -3.944   6.998  0.00  0.00    +0.179 C 
ATOM     30  O   UNL     1      12.238  -4.093   6.986  0.00  0.00    -0.377 OA
ATOM     31  C   UNL     1      12.854  -3.733   5.748  0.00  0.00    +0.179 C 
ATOM     32  C   UNL     1      12.603  -2.251   5.471  0.00  0.00    +0.136 C 
ENDBRANCH  21  25
ENDBRANCH   6  18
TORSDOF 3
