REMARK  Name = ZINC10010970
REMARK  11 active torsions:
REMARK  status: ('A' for Active; 'I' for Inactive)
REMARK    1  A    between atoms: C_1  and  C_2
REMARK    2  A    between atoms: C_5  and  O_9
REMARK    3  A    between atoms: C_7  and  C_8
REMARK    4  A    between atoms: O_9  and  C_10
REMARK    5  A    between atoms: C_10  and  C_12
REMARK    6  A    between atoms: C_10  and  C_13
REMARK    7  A    between atoms: N_15  and  N_16
REMARK    8  A    between atoms: C_17  and  C_18
REMARK    9  A    between atoms: C_21  and  N_24
REMARK   10  A    between atoms: N_24  and  C_25
REMARK   11  A    between atoms: N_24  and  C_26
REMARK                            x       y       z     vdW  Elec       q    Type
REMARK                         _______ _______ _______ _____ _____    ______ ____
ROOT
ATOM      1  C   UNL     1      -0.280   0.830   2.442  0.00  0.00    +0.273 C 
ATOM      2  O   UNL     1      -0.856  -0.162   2.838  0.00  0.00    -0.270 OA
ATOM      3  N   UNL     1       0.938   1.141   2.928  0.00  0.00    -0.204 N 
ATOM      4  H   UNL     1       1.398   1.935   2.611  0.00  0.00    +0.177 HD
ENDROOT
BRANCH   1   5
ATOM      5  C   UNL     1      -0.927   1.714   1.407  0.00  0.00    +0.257 C 
ATOM      6  C   UNL     1      -0.103   1.680   0.119  0.00  0.00    +0.062 C 
BRANCH   5   7
ATOM      7  O   UNL     1      -2.250   1.244   1.139  0.00  0.00    -0.480 OA
BRANCH   7  12
ATOM      8  C   UNL     1      -5.938   4.997  -0.872  0.00  0.00    +0.044 C 
ATOM      9  C   UNL     1      -4.951   3.993  -0.334  0.00  0.00    -0.047 A 
ATOM     10  C   UNL     1      -5.370   2.712  -0.022  0.00  0.00    +0.007 A 
ATOM     11  C   UNL     1      -4.468   1.790   0.471  0.00  0.00    +0.046 A 
ATOM     12  C   UNL     1      -3.140   2.150   0.654  0.00  0.00    +0.122 A 
ATOM     13  C   UNL     1      -2.724   3.436   0.345  0.00  0.00    +0.049 A 
ATOM     14  C   UNL     1      -3.629   4.353  -0.153  0.00  0.00    -0.044 A 
ATOM     15  C   UNL     1      -3.176   5.750  -0.493  0.00  0.00    +0.044 C 
ENDBRANCH   7  12
ENDBRANCH   5   7
ENDBRANCH   1   5
BRANCH   3  16
ATOM     16  N   UNL     1       1.540   0.319   3.889  0.00  0.00    -0.188 NA
ATOM     17  C   UNL     1       2.713   0.619   4.357  0.00  0.00    +0.138 C 
BRANCH  17  18
ATOM     18  C   UNL     1       3.346  -0.246   5.369  0.00  0.00    -0.005 A 
ATOM     19  C   UNL     1       2.682  -1.386   5.830  0.00  0.00    +0.011 A 
ATOM     20  C   UNL     1       3.278  -2.194   6.773  0.00  0.00    +0.024 A 
ATOM     21  C   UNL     1       4.535  -1.871   7.272  0.00  0.00    +0.029 A 
ATOM     22  C   UNL     1       5.197  -0.735   6.819  0.00  0.00    +0.024 A 
ATOM     23  C   UNL     1       4.609   0.076   5.874  0.00  0.00    +0.011 A 
BRANCH  21  24
ATOM     24  N   UNL     1       5.134  -2.689   8.230  0.00  0.00    -0.336 N 
ATOM     25  C   UNL     1       6.399  -2.287   8.850  0.00  0.00    +0.129 C 
ATOM     26  C   UNL     1       4.499  -3.952   8.616  0.00  0.00    +0.129 C 
ENDBRANCH  21  24
ENDBRANCH  17  18
ENDBRANCH   3  16
TORSDOF 6
