REMARK  Name = ZINC05155101
REMARK  8 active torsions:
REMARK  status: ('A' for Active; 'I' for Inactive)
REMARK    1  A    between atoms: C_1  and  C_2
REMARK    2  A    between atoms: C_2  and  N_3
REMARK    3  A    between atoms: N_3  and  C_4
REMARK    4  A    between atoms: C_4  and  C_5
REMARK    5  A    between atoms: C_6  and  C_8
REMARK    6  A    between atoms: C_8  and  S_9
REMARK    7  A    between atoms: S_9  and  C_10
REMARK    8  A    between atoms: C_16  and  C_18
REMARK                            x       y       z     vdW  Elec       q    Type
REMARK                         _______ _______ _______ _____ _____    ______ ____
ROOT
ATOM      1  C   UNL     1      -0.016   1.315   0.009  0.00  0.00    +0.170 A 
ATOM      2  N   UNL     1       1.140   2.034   0.002  0.00  0.00    -0.302 N 
ATOM      3  H   UNL     1       1.109   3.034   0.007  0.00  0.00    +0.171 HD
ATOM      4  C   UNL     1       2.329   1.393  -0.012  0.00  0.00    +0.253 A 
ATOM      5  O   UNL     1       3.374   2.022  -0.019  0.00  0.00    -0.268 OA
ATOM      6  C   UNL     1       2.338  -0.013  -0.020  0.00  0.00    +0.102 A 
ATOM      7  C   UNL     1       1.148  -0.681  -0.013  0.00  0.00    +0.151 A 
ATOM      8  N   UNL     1       0.002  -0.004   0.002  0.00  0.00    -0.219 NA
ENDROOT
BRANCH   7   9
ATOM      9  C   UNL     1       1.131  -2.188  -0.021  0.00  0.00    +0.434 C 
ATOM     10  F   UNL     1       2.445  -2.668  -0.036  0.00  0.00    -0.164 F 
ATOM     11  F   UNL     1       0.477  -2.653   1.126  0.00  0.00    -0.164 F 
ATOM     12  F   UNL     1       0.456  -2.640  -1.159  0.00  0.00    -0.164 F 
ENDBRANCH   7   9
BRANCH   1  13
ATOM     13  S   UNL     1      -1.562   2.160   0.021  0.00  0.00    -0.078 S 
BRANCH  13  14
ATOM     14  C   UNL     1      -2.693   0.747   0.019  0.00  0.00    +0.173 C 
BRANCH  14  16
ATOM     15  N   UNL     1      -5.136   0.362   0.028  0.00  0.00    -0.301 N 
ATOM     16  C   UNL     1      -4.116   1.242   0.028  0.00  0.00    +0.226 C 
ATOM     17  O   UNL     1      -4.343   2.434   0.036  0.00  0.00    -0.275 OA
BRANCH  15  19
ATOM     18  C   UNL     1      -4.759  -1.586   1.458  0.00  0.00    +0.024 C 
ATOM     19  C   UNL     1      -4.861  -1.077   0.019  0.00  0.00    +0.104 C 
ENDBRANCH  15  19
BRANCH  15  20
ATOM     20  C   UNL     1      -6.520   0.843   0.037  0.00  0.00    +0.104 C 
ATOM     21  C   UNL     1      -7.008   1.019  -1.402  0.00  0.00    +0.024 C 
ENDBRANCH  15  20
ENDBRANCH  14  16
ENDBRANCH  13  14
ENDBRANCH   1  13
TORSDOF 6
