REMARK  Name = ZINC08514719
REMARK  1 active torsions:
REMARK  status: ('A' for Active; 'I' for Inactive)
REMARK    1  A    between atoms: C_3  and  C_6
REMARK                            x       y       z     vdW  Elec       q    Type
REMARK                         _______ _______ _______ _____ _____    ______ ____
ROOT
ATOM      1  C   UNL     1       3.761   1.845  -0.024  0.00  0.00    +0.097 C 
ATOM      2  C   UNL     1       4.444   1.369  -1.272  0.00  0.00    +0.043 A 
ATOM      3  C   UNL     1       4.176   1.985  -2.504  0.00  0.00    +0.126 A 
ATOM      4  N   UNL     1       4.785   1.551  -3.602  0.00  0.00    -0.208 NA
ATOM      5  C   UNL     1       5.647   0.539  -3.554  0.00  0.00    +0.180 A 
ATOM      6  S   UNL     1       6.408   0.013  -4.994  0.00  0.00    -0.011 S 
ATOM      7  N   UNL     1       5.932  -0.078  -2.392  0.00  0.00    -0.322 N 
ATOM      8  C   UNL     1       5.331   0.333  -1.233  0.00  0.00    +0.110 A 
ATOM      9  N   UNL     1       5.618  -0.287  -0.042  0.00  0.00    -0.304 N 
ATOM     10  C   UNL     1       5.349   0.332   1.149  0.00  0.00    +0.017 C 
ATOM     11  C   UNL     1       4.472   1.354   1.211  0.00  0.00    +0.024 C 
ATOM     12  C   UNL     1       4.190   1.991   2.432  0.00  0.00    +0.162 C 
ATOM     13  O   UNL     1       3.408   2.921   2.453  0.00  0.00    -0.292 OA
ATOM     14  C   UNL     1       4.838   1.544   3.714  0.00  0.00    +0.080 C 
ATOM     15  C   UNL     1       5.171   0.052   3.609  0.00  0.00    +0.014 C 
ATOM     16  C   UNL     1       6.063  -0.157   2.386  0.00  0.00    +0.051 C 
ATOM     17  N   UNL     1       3.286   3.034  -2.574  0.00  0.00    -0.343 N 
ATOM     18  H   UNL     1       6.014  -1.172  -0.044  0.00  0.00    +0.153 HD
ATOM     19  H   UNL     1       3.102   3.459  -3.427  0.00  0.00    +0.144 HD
ATOM     20  H   UNL     1       2.842   3.349  -1.771  0.00  0.00    +0.144 HD
ATOM     21  H   UNL     1       6.563  -0.814  -2.376  0.00  0.00    +0.169 HD
ENDROOT
BRANCH   1  24
ATOM     22  C   UNL     1      -0.016   1.351   0.009  0.00  0.00    +0.008 A 
ATOM     23  C   UNL     1       1.183   2.038   0.002  0.00  0.00    +0.012 A 
ATOM     24  C   UNL     1       2.343   1.336  -0.013  0.00  0.00    +0.002 A 
ATOM     25  S   UNL     1       1.754  -0.349  -0.017  0.00  0.00    -0.101 S 
ATOM     26  C   UNL     1       0.002  -0.004   0.002  0.00  0.00    +0.045 A 
ENDBRANCH   1  24
TORSDOF 1
