REMARK  Name = ZINC04915010
REMARK  7 active torsions:
REMARK  status: ('A' for Active; 'I' for Inactive)
REMARK    1  A    between atoms: C_1  and  C_2
REMARK    2  A    between atoms: C_2  and  O_3
REMARK    3  A    between atoms: O_3  and  C_4
REMARK    4  A    between atoms: C_6  and  C_12
REMARK    5  A    between atoms: C_9  and  O_10
REMARK    6  A    between atoms: C_23  and  C_25
REMARK    7  A    between atoms: C_23  and  C_26
REMARK                            x       y       z     vdW  Elec       q    Type
REMARK                         _______ _______ _______ _____ _____    ______ ____
ROOT
ATOM      1  C   UNL     1      -1.294  -0.773   0.010  0.00  0.00    +0.063 C 
ATOM      2  C   UNL     1      -1.352  -1.660   1.255  0.00  0.00    +0.109 C 
ATOM      3  C   UNL     1      -0.383  -2.803   1.091  0.00  0.00    +0.218 C 
ATOM      4  O   UNL     1       0.225  -3.224   2.052  0.00  0.00    -0.275 OA
ATOM      5  N   UNL     1      -0.192  -3.356  -0.117  0.00  0.00    -0.289 N 
ATOM      6  C   UNL     1      -0.804  -2.858  -1.238  0.00  0.00    +0.018 C 
ATOM      7  C   UNL     1      -1.375  -1.637  -1.228  0.00  0.00    +0.020 C 
ATOM      8  C   UNL     1      -2.054  -1.136  -2.351  0.00  0.00    +0.162 C 
ATOM      9  O   UNL     1      -2.557  -0.031  -2.302  0.00  0.00    -0.292 OA
ATOM     10  C   UNL     1      -2.171  -1.946  -3.614  0.00  0.00    +0.086 C 
ATOM     11  C   UNL     1      -2.131  -3.436  -3.257  0.00  0.00    -0.023 C 
ATOM     12  C   UNL     1      -0.843  -3.717  -2.479  0.00  0.00    +0.058 C 
ATOM     13  C   UNL     1      -3.341  -3.789  -2.391  0.00  0.00    +0.011 C 
ATOM     14  C   UNL     1      -2.150  -4.272  -4.538  0.00  0.00    +0.011 C 
ATOM     15  H   UNL     1       0.392  -4.126  -0.199  0.00  0.00    +0.155 HD
ENDROOT
BRANCH   1  18
ATOM     16  C   UNL     1       1.174   2.088   0.002  0.00  0.00    +0.163 A 
ATOM     17  C   UNL     1      -0.017   1.378   0.010  0.00  0.00    +0.053 A 
ATOM     18  C   UNL     1       0.002  -0.004   0.002  0.00  0.00    -0.035 A 
ATOM     19  C   UNL     1       1.207  -0.682  -0.013  0.00  0.00    +0.023 A 
ATOM     20  C   UNL     1       2.399   0.020  -0.021  0.00  0.00    +0.063 A 
ATOM     21  C   UNL     1       2.386   1.406  -0.014  0.00  0.00    +0.173 A 
ATOM     22 BR   UNL     1       4.044  -0.911  -0.042  0.00  0.00    -0.046 Br
BRANCH  21  23
ATOM     23  O   UNL     1       3.557   2.098  -0.021  0.00  0.00    -0.503 OA
ATOM     24  H   UNL     1       3.888   2.303  -0.907  0.00  0.00    +0.292 HD
ENDBRANCH  21  23
BRANCH  16  25
ATOM     25  O   UNL     1       1.157   3.447   0.009  0.00  0.00    -0.489 OA
BRANCH  25  27
ATOM     26  C   UNL     1       0.057   5.599   0.030  0.00  0.00    +0.048 C 
ATOM     27  C   UNL     1      -0.125   4.080   0.024  0.00  0.00    +0.226 C 
ENDBRANCH  25  27
ENDBRANCH  16  25
ENDBRANCH   1  18
TORSDOF 4
