REMARK  Name = ZINC65423546
REMARK  5 active torsions:
REMARK  status: ('A' for Active; 'I' for Inactive)
REMARK    1  A    between atoms: C_4  and  C_7
REMARK    2  A    between atoms: C_7  and  C_8
REMARK    3  A    between atoms: C_8  and  C_9
REMARK    4  A    between atoms: C_12  and  C_22
REMARK    5  A    between atoms: C_27  and  C_28
REMARK                            x       y       z     vdW  Elec       q    Type
REMARK                         _______ _______ _______ _____ _____    ______ ____
ROOT
ATOM      1  C   UNL     1       5.715  -1.670   1.516  0.00  0.00    +0.019 C 
ATOM      2  N   UNL     1       6.215  -2.033   2.871  0.00  0.00    +0.406 N 
ATOM      3  C   UNL     1       6.869  -3.343   2.633  0.00  0.00    +0.069 C 
ATOM      4  N   UNL     1       6.277  -3.876   1.395  0.00  0.00    -0.262 N 
ATOM      5  N   UNL     1       5.327  -2.986   0.950  0.00  0.00    -0.254 NA
ATOM      6  C   UNL     1       6.623  -5.072   0.777  0.00  0.00    +0.134 A 
ATOM      7  C   UNL     1       6.054  -5.404  -0.449  0.00  0.00    +0.045 A 
ATOM      8  C   UNL     1       6.406  -6.598  -1.052  0.00  0.00    +0.005 A 
ATOM      9  C   UNL     1       7.319  -7.422  -0.408  0.00  0.00    +0.020 A 
ATOM     10  C   UNL     1       7.844  -7.030   0.807  0.00  0.00    +0.113 A 
ATOM     11  N   UNL     1       7.494  -5.883   1.357  0.00  0.00    -0.239 NA
ATOM     12  H   UNL     1       6.885  -1.353   3.199  0.00  0.00    -0.080 HD
ATOM     13  H   UNL     1       5.302  -2.953  -0.058  0.00  0.00    +0.142 HD
ATOM     14  H   UNL     1       5.450  -2.127   3.522  0.00  0.00    -0.080 HD
ENDROOT
BRANCH   3  15
ATOM     15  C   UNL     1       6.593  -4.276   3.784  0.00  0.00    -0.032 A 
ATOM     16  C   UNL     1       5.545  -5.171   3.713  0.00  0.00    +0.004 A 
ATOM     17  C   UNL     1       5.291  -6.028   4.769  0.00  0.00    +0.000 A 
ATOM     18  C   UNL     1       6.086  -5.994   5.901  0.00  0.00    +0.001 A 
ATOM     19  C   UNL     1       7.136  -5.103   5.982  0.00  0.00    +0.012 A 
ATOM     20  C   UNL     1       7.400  -4.241   4.919  0.00  0.00    +0.024 A 
BRANCH  20  21
ATOM     21  C   UNL     1       8.532  -3.285   4.999  0.00  0.00    +0.181 A 
ATOM     22  H   UNL     1      10.410  -0.943   4.150  0.00  0.00    +0.190 HD
ATOM     23  N   UNL     1       9.441  -3.230   5.982  0.00  0.00    -0.215 NA
ATOM     24  C   UNL     1      10.297  -2.273   5.740  0.00  0.00    +0.216 A 
ATOM     25  N   UNL     1       9.955  -1.684   4.581  0.00  0.00    -0.265 N 
ATOM     26  N   UNL     1       8.814  -2.355   4.113  0.00  0.00    -0.152 NA
ENDBRANCH  20  21
ENDBRANCH   3  15
BRANCH   1  27
ATOM     27  C   UNL     1       4.502  -0.742   1.616  0.00  0.00    +0.005 C 
BRANCH  27  28
ATOM     28  C   UNL     1       3.973  -0.442   0.212  0.00  0.00    +0.035 C 
BRANCH  28  32
ATOM     29  C   UNL     1       0.587   2.148   0.487  0.00  0.00    +0.000 A 
ATOM     30  C   UNL     1       1.858   2.681   0.375  0.00  0.00    +0.000 A 
ATOM     31  C   UNL     1       2.954   1.843   0.286  0.00  0.00    +0.003 A 
ATOM     32  C   UNL     1       2.779   0.472   0.310  0.00  0.00    -0.047 A 
ATOM     33  C   UNL     1       1.508  -0.061   0.424  0.00  0.00    +0.003 A 
ATOM     34  C   UNL     1       0.412   0.777   0.511  0.00  0.00    +0.000 A 
ENDBRANCH  28  32
ENDBRANCH  27  28
ENDBRANCH   1  27
TORSDOF 5
