REMARK  Name = ZINC36573207
REMARK  14 active torsions:
REMARK  status: ('A' for Active; 'I' for Inactive)
REMARK    1  A    between atoms: C_1  and  C_2
REMARK    2  A    between atoms: C_2  and  C_3
REMARK    3  A    between atoms: C_3  and  N_4
REMARK    4  A    between atoms: N_4  and  C_5
REMARK    5  A    between atoms: C_5  and  C_7
REMARK    6  A    between atoms: C_5  and  C_16
REMARK    7  A    between atoms: C_10  and  O_15
REMARK    8  A    between atoms: C_11  and  O_13
REMARK    9  A    between atoms: O_13  and  C_14
REMARK   10  A    between atoms: N_18  and  C_19
REMARK   11  A    between atoms: C_25  and  C_27
REMARK   12  A    between atoms: C_27  and  C_28
REMARK   13  A    between atoms: C_27  and  C_34
REMARK   14  A    between atoms: C_27  and  O_40
REMARK                            x       y       z     vdW  Elec       q    Type
REMARK                         _______ _______ _______ _____ _____    ______ ____
ROOT
ATOM      1  N   UNL     1       0.718  -3.267  -0.429  0.00  0.00    -0.283 N 
ATOM      2  C   UNL     1      -0.070  -4.200  -0.998  0.00  0.00    +0.257 C 
ATOM      3  O   UNL     1      -0.065  -5.337  -0.576  0.00  0.00    -0.272 OA
ENDROOT
BRANCH   1   4
ATOM      4  C   UNL     1       0.792  -1.921  -1.003  0.00  0.00    +0.109 C 
BRANCH   4   6
ATOM      5  C   UNL     1       2.016  -0.456  -2.615  0.00  0.00    +0.005 C 
ATOM      6  C   UNL     1       1.975  -1.843  -1.970  0.00  0.00    +0.016 C 
ENDBRANCH   4   6
ENDBRANCH   1   4
BRANCH   1   7
ATOM      7  C   UNL     1       1.502  -3.598   0.764  0.00  0.00    +0.192 C 
BRANCH   7   8
ATOM      8  C   UNL     1       0.611  -3.557   1.978  0.00  0.00    -0.015 A 
ATOM      9  C   UNL     1      -0.400  -2.618   2.060  0.00  0.00    +0.010 A 
ATOM     10  C   UNL     1      -1.221  -2.576   3.172  0.00  0.00    +0.049 A 
ATOM     11  C   UNL     1      -1.031  -3.478   4.207  0.00  0.00    +0.158 A 
ATOM     12  C   UNL     1      -0.014  -4.424   4.124  0.00  0.00    +0.162 A 
ATOM     13  C   UNL     1       0.802  -4.463   3.005  0.00  0.00    +0.055 A 
BRANCH  12  14
ATOM     14  O   UNL     1       0.176  -5.311   5.137  0.00  0.00    -0.491 OA
ATOM     15  C   UNL     1       1.239  -6.253   4.983  0.00  0.00    +0.277 C 
ENDBRANCH  12  14
BRANCH  11  16
ATOM     16  O   UNL     1      -1.837  -3.438   5.301  0.00  0.00    -0.503 OA
ATOM     17  H   UNL     1      -2.627  -3.991   5.229  0.00  0.00    +0.292 HD
ENDBRANCH  11  16
ENDBRANCH   7   8
BRANCH   7  18
ATOM     18  C   UNL     1       2.617  -2.598   0.925  0.00  0.00    +0.238 C 
ATOM     19  O   UNL     1       2.462  -1.451   0.561  0.00  0.00    -0.273 OA
ATOM     20  N   UNL     1       3.788  -2.977   1.475  0.00  0.00    -0.311 N 
ATOM     21  H   UNL     1       3.913  -3.893   1.767  0.00  0.00    +0.149 HD
BRANCH  20  22
ATOM     22  C   UNL     1       4.872  -2.004   1.633  0.00  0.00    +0.073 C 
ATOM     23  C   UNL     1       5.677  -1.923   0.334  0.00  0.00    +0.022 C 
ATOM     24  C   UNL     1       6.809  -0.907   0.498  0.00  0.00    +0.002 C 
ATOM     25  C   UNL     1       7.727  -1.347   1.640  0.00  0.00    +0.000 C 
ATOM     26  C   UNL     1       6.923  -1.429   2.939  0.00  0.00    +0.002 C 
ATOM     27  C   UNL     1       5.790  -2.444   2.775  0.00  0.00    +0.022 C 
ENDBRANCH  20  22
ENDBRANCH   7  18
ENDBRANCH   1   7
BRANCH   2  28
ATOM     28  C   UNL     1      -0.959  -3.831  -2.157  0.00  0.00    +0.192 C 
BRANCH  28  29
ATOM     29  C   UNL     1      -1.590  -5.077  -2.724  0.00  0.00    -0.003 A 
ATOM     30  C   UNL     1      -2.880  -5.421  -2.368  0.00  0.00    +0.007 A 
ATOM     31  C   UNL     1      -3.458  -6.564  -2.887  0.00  0.00    +0.000 A 
ATOM     32  C   UNL     1      -2.747  -7.362  -3.763  0.00  0.00    +0.000 A 
ATOM     33  C   UNL     1      -1.457  -7.017  -4.120  0.00  0.00    +0.000 A 
ATOM     34  C   UNL     1      -0.880  -5.872  -3.604  0.00  0.00    +0.007 A 
ENDBRANCH  28  29
BRANCH  28  35
ATOM     35  C   UNL     1      -2.039  -2.892  -1.684  0.00  0.00    -0.003 A 
ATOM     36  C   UNL     1      -2.497  -2.967  -0.382  0.00  0.00    +0.007 A 
ATOM     37  C   UNL     1      -3.487  -2.106   0.052  0.00  0.00    +0.000 A 
ATOM     38  C   UNL     1      -4.019  -1.170  -0.815  0.00  0.00    +0.000 A 
ATOM     39  C   UNL     1      -3.560  -1.094  -2.116  0.00  0.00    +0.000 A 
ATOM     40  C   UNL     1      -2.566  -1.952  -2.550  0.00  0.00    +0.007 A 
ENDBRANCH  28  35
BRANCH  28  41
ATOM     41  O   UNL     1      -0.180  -3.189  -3.169  0.00  0.00    -0.371 OA
ATOM     42  H   UNL     1       0.275  -3.802  -3.763  0.00  0.00    +0.212 HD
ENDBRANCH  28  41
ENDBRANCH   2  28
TORSDOF 12
