REMARK  Name = ZINC66684666
REMARK  13 active torsions:
REMARK  status: ('A' for Active; 'I' for Inactive)
REMARK    1  A    between atoms: C_1  and  C_2
REMARK    2  A    between atoms: C_5  and  N_14
REMARK    3  A    between atoms: C_7  and  C_8
REMARK    4  A    between atoms: N_10  and  C_11
REMARK    5  A    between atoms: C_11  and  C_12
REMARK    6  A    between atoms: C_11  and  C_13
REMARK    7  A    between atoms: N_17  and  C_18
REMARK    8  A    between atoms: C_18  and  C_19
REMARK    9  A    between atoms: C_19  and  C_21
REMARK   10  A    between atoms: C_19  and  N_25
REMARK   11  A    between atoms: C_21  and  C_22
REMARK   12  A    between atoms: C_22  and  C_23
REMARK   13  A    between atoms: C_22  and  C_24
REMARK                            x       y       z     vdW  Elec       q    Type
REMARK                         _______ _______ _______ _____ _____    ______ ____
ROOT
ATOM      1  N   UNL     1       1.306  -4.032  -0.265  0.00  0.00    -0.269 N 
ATOM      2  C   UNL     1       0.961  -4.852  -1.277  0.00  0.00    +0.304 C 
ATOM      3  O   UNL     1       0.677  -4.389  -2.365  0.00  0.00    -0.253 OA
ATOM      4  N   UNL     1       0.930  -6.186  -1.084  0.00  0.00    -0.301 N 
ATOM      5  H   UNL     1       1.467  -4.396   0.620  0.00  0.00    +0.156 HD
ATOM      6  H   UNL     1       1.157  -6.555  -0.216  0.00  0.00    +0.150 HD
ENDROOT
BRANCH   1  11
ATOM      7  C   UNL     1       1.845   1.554  -1.162  0.00  0.00    +0.044 C 
ATOM      8  C   UNL     1       1.700   0.072  -0.926  0.00  0.00    -0.038 A 
ATOM      9  C   UNL     1       2.538  -0.571  -0.038  0.00  0.00    +0.006 A 
ATOM     10  C   UNL     1       2.408  -1.929   0.182  0.00  0.00    +0.023 A 
ATOM     11  C   UNL     1       1.433  -2.657  -0.490  0.00  0.00    +0.035 A 
ATOM     12  C   UNL     1       0.586  -2.020  -1.384  0.00  0.00    +0.036 A 
ATOM     13  C   UNL     1       0.713  -0.648  -1.602  0.00  0.00    +0.041 A 
BRANCH  13  14
ATOM     14  C   UNL     1      -0.190   0.039  -2.550  0.00  0.00    +0.245 C 
ATOM     15  O   UNL     1      -0.037   1.222  -2.786  0.00  0.00    -0.270 OA
ATOM     16  N   UNL     1      -1.183  -0.645  -3.151  0.00  0.00    -0.309 N 
ATOM     17  H   UNL     1      -1.305  -1.589  -2.962  0.00  0.00    +0.149 HD
BRANCH  16  18
ATOM     18  C   UNL     1      -2.078   0.036  -4.090  0.00  0.00    +0.067 C 
ATOM     19  C   UNL     1      -2.665  -0.985  -5.066  0.00  0.00    +0.027 C 
ATOM     20  C   UNL     1      -3.211   0.712  -3.315  0.00  0.00    +0.027 C 
ENDBRANCH  16  18
ENDBRANCH  13  14
ENDBRANCH   1  11
BRANCH   4  21
ATOM     21  C   UNL     1       0.555  -7.077  -2.185  0.00  0.00    +0.090 C 
BRANCH  21  22
ATOM     22  C   UNL     1       0.414  -8.506  -1.658  0.00  0.00    -0.051 C 
BRANCH  22  23
ATOM     23  N   UNL     1      -0.844  -8.630  -0.909  0.00  0.00    +0.383 N 
ATOM     24  C   UNL     1      -1.024 -10.027  -0.437  0.00  0.00    -0.078 C 
ATOM     25  C   UNL     1      -2.013  -9.877   0.746  0.00  0.00    -0.020 C 
ATOM     26  C   UNL     1      -1.560  -8.557   1.410  0.00  0.00    -0.020 C 
ATOM     27  C   UNL     1      -0.795  -7.796   0.311  0.00  0.00    -0.078 C 
ATOM     28  H   UNL     1      -1.623  -8.355  -1.488  0.00  0.00    -0.081 HD
ENDBRANCH  22  23
BRANCH  22  29
ATOM     29  C   UNL     1       0.405  -9.485  -2.834  0.00  0.00    -0.011 C 
BRANCH  29  30
ATOM     30  C   UNL     1       0.816 -10.875  -2.344  0.00  0.00    -0.019 C 
ATOM     31  C   UNL     1       0.851 -11.843  -3.528  0.00  0.00    +0.007 C 
ATOM     32  C   UNL     1       2.204 -10.801  -1.705  0.00  0.00    +0.007 C 
ENDBRANCH  29  30
ENDBRANCH  22  29
ENDBRANCH  21  22
ENDBRANCH   4  21
TORSDOF 8
