REMARK  Name = ZINC18215086
REMARK  7 active torsions:
REMARK  status: ('A' for Active; 'I' for Inactive)
REMARK    1  A    between atoms: C_1  and  N_2
REMARK    2  A    between atoms: N_2  and  C_3
REMARK    3  A    between atoms: N_2  and  C_4
REMARK    4  A    between atoms: C_7  and  C_10
REMARK    5  A    between atoms: C_10  and  N_11
REMARK    6  A    between atoms: C_12  and  C_14
REMARK    7  A    between atoms: C_23  and  O_24
REMARK                            x       y       z     vdW  Elec       q    Type
REMARK                         _______ _______ _______ _____ _____    ______ ____
ROOT
ATOM      1  N   UNL     1      -0.018   1.461   0.010  0.00  0.00    -0.307 N 
ATOM      2  C   UNL     1       1.140   2.151   0.003  0.00  0.00    +0.248 C 
ATOM      3  O   UNL     1       2.201   1.557  -0.011  0.00  0.00    -0.270 OA
ATOM      4  H   UNL     1      -0.864   1.934   0.017  0.00  0.00    +0.149 HD
ENDROOT
BRANCH   2   5
ATOM      5  C   UNL     1       1.120   3.626   0.011  0.00  0.00    +0.079 A 
ATOM      6  C   UNL     1      -0.092   4.298   0.020  0.00  0.00    +0.025 A 
ATOM      7  C   UNL     1      -0.104   5.700   0.034  0.00  0.00    -0.017 A 
ATOM      8  C   UNL     1      -1.316   6.415   0.049  0.00  0.00    +0.008 A 
ATOM      9  C   UNL     1      -1.296   7.775   0.055  0.00  0.00    +0.001 A 
ATOM     10  C   UNL     1      -0.090   8.475   0.048  0.00  0.00    +0.001 A 
ATOM     11  C   UNL     1       1.102   7.818   0.033  0.00  0.00    +0.008 A 
ATOM     12  C   UNL     1       1.123   6.412   0.026  0.00  0.00    -0.014 A 
ATOM     13  C   UNL     1       2.338   5.707   0.010  0.00  0.00    +0.054 A 
ATOM     14  C   UNL     1       2.335   4.344   0.003  0.00  0.00    +0.130 A 
BRANCH  14  15
ATOM     15  O   UNL     1       3.513   3.670  -0.012  0.00  0.00    -0.506 OA
ATOM     16  H   UNL     1       3.845   3.479  -0.900  0.00  0.00    +0.292 HD
ENDBRANCH  14  15
ENDBRANCH   2   5
BRANCH   1  17
ATOM     17  C   UNL     1       0.002  -0.004   0.002  0.00  0.00    +0.139 C 
BRANCH  17  21
ATOM     18  C   UNL     1      -4.008  -1.483   0.032  0.00  0.00    +0.029 A 
ATOM     19  C   UNL     1      -3.366  -1.236  -1.175  0.00  0.00    +0.023 A 
ATOM     20  C   UNL     1      -2.070  -0.758  -1.181  0.00  0.00    +0.007 A 
ATOM     21  C   UNL     1      -1.412  -0.526   0.013  0.00  0.00    -0.030 A 
ATOM     22  C   UNL     1      -2.046  -0.776   1.216  0.00  0.00    +0.007 A 
ATOM     23  C   UNL     1      -3.343  -1.249   1.230  0.00  0.00    +0.023 A 
BRANCH  18  25
ATOM     24  C   UNL     1      -6.018  -2.213  -1.221  0.00  0.00    +0.129 C 
ATOM     25  N   UNL     1      -5.318  -1.966   0.042  0.00  0.00    -0.336 N 
ATOM     26  C   UNL     1      -5.993  -2.227   1.316  0.00  0.00    +0.129 C 
ENDBRANCH  18  25
ENDBRANCH  17  21
ENDBRANCH   1  17
TORSDOF 5
