REMARK  Name = ZINC56875361
REMARK  5 active torsions:
REMARK  status: ('A' for Active; 'I' for Inactive)
REMARK    1  A    between atoms: C_1  and  C_2
REMARK    2  A    between atoms: C_2  and  C_4
REMARK    3  A    between atoms: C_2  and  N_10
REMARK    4  A    between atoms: N_8  and  C_9
REMARK    5  A    between atoms: C_17  and  C_20
REMARK                            x       y       z     vdW  Elec       q    Type
REMARK                         _______ _______ _______ _____ _____    ______ ____
ROOT
ATOM      1  N   UNL     1      -1.259  -0.327   2.431  0.00  0.00    -0.290 N 
ATOM      2  C   UNL     1       0.051  -0.633   2.355  0.00  0.00    +0.303 C 
ATOM      3  O   UNL     1       0.624  -0.595   1.284  0.00  0.00    -0.253 OA
ATOM      4  N   UNL     1       0.727  -0.983   3.468  0.00  0.00    -0.281 N 
ATOM      5  C   UNL     1       2.181  -1.205   3.433  0.00  0.00    +0.137 C 
ATOM      6  C   UNL     1       2.479  -2.558   4.089  0.00  0.00    +0.179 C 
ATOM      7  O   UNL     1       1.861  -2.603   5.377  0.00  0.00    -0.369 OA
ATOM      8  C   UNL     1       0.434  -2.509   5.346  0.00  0.00    +0.166 C 
ATOM      9  C   UNL     1       0.033  -1.148   4.755  0.00  0.00    +0.145 C 
ATOM     10  H   UNL     1      -1.733  -0.427   3.271  0.00  0.00    +0.151 HD
ENDROOT
BRANCH   8  11
ATOM     11  C   UNL     1      -0.109  -2.630   6.746  0.00  0.00    -0.017 A 
ATOM     12  C   UNL     1       0.541  -2.007   7.795  0.00  0.00    +0.007 A 
ATOM     13  C   UNL     1       0.042  -2.118   9.080  0.00  0.00    +0.020 A 
ATOM     14  C   UNL     1      -1.107  -2.851   9.315  0.00  0.00    +0.041 A 
ATOM     15  C   UNL     1      -1.757  -3.474   8.264  0.00  0.00    +0.020 A 
ATOM     16  C   UNL     1      -1.261  -3.358   6.980  0.00  0.00    +0.007 A 
ATOM     17 CL   UNL     1      -1.733  -2.991  10.928  0.00  0.00    -0.084 Cl
ENDBRANCH   8  11
BRANCH   1  19
ATOM     18  C   UNL     1      -2.445  -1.035   0.412  0.00  0.00    +0.036 C 
ATOM     19  C   UNL     1      -1.967   0.158   1.244  0.00  0.00    +0.139 C 
BRANCH  19  20
ATOM     20  C   UNL     1      -3.156   0.981   1.669  0.00  0.00    +0.153 A 
ATOM     21  N   UNL     1      -4.011   0.678   2.607  0.00  0.00    -0.133 NA
ATOM     22  N   UNL     1      -4.896   1.607   2.702  0.00  0.00    -0.138 NA
ATOM     23  C   UNL     1      -4.645   2.544   1.830  0.00  0.00    +0.224 A 
ATOM     24  N   UNL     1      -3.531   2.177   1.152  0.00  0.00    -0.319 N 
ATOM     25  C   UNL     1      -2.868   2.919   0.078  0.00  0.00    +0.151 C 
ENDBRANCH  19  20
ENDBRANCH   1  19
TORSDOF 3
