REMARK  Name = ZINC67563702
REMARK  11 active torsions:
REMARK  status: ('A' for Active; 'I' for Inactive)
REMARK    1  A    between atoms: C_1  and  C_2
REMARK    2  A    between atoms: C_6  and  C_29
REMARK    3  A    between atoms: C_7  and  O_8
REMARK    4  A    between atoms: O_8  and  C_9
REMARK    5  A    between atoms: C_9  and  C_10
REMARK    6  A    between atoms: C_10  and  C_12
REMARK    7  A    between atoms: C_10  and  O_28
REMARK    8  A    between atoms: C_12  and  N_13
REMARK    9  A    between atoms: N_16  and  C_17
REMARK   10  A    between atoms: C_19  and  N_24
REMARK   11  A    between atoms: C_25  and  C_27
REMARK                            x       y       z     vdW  Elec       q    Type
REMARK                         _______ _______ _______ _____ _____    ______ ____
ROOT
ATOM      1  N   UNL     1      -2.167   1.930   6.274  0.00  0.00    -0.297 N 
ATOM      2  C   UNL     1      -3.240   2.245   7.027  0.00  0.00    +0.304 C 
ATOM      3  O   UNL     1      -4.352   1.901   6.675  0.00  0.00    -0.253 OA
ATOM      4  N   UNL     1      -3.080   2.940   8.170  0.00  0.00    -0.267 N 
ATOM      5  H   UNL     1      -1.280   2.205   6.554  0.00  0.00    +0.150 HD
ATOM      6  H   UNL     1      -2.188   3.156   8.486  0.00  0.00    +0.156 HD
ENDROOT
BRANCH   4   7
ATOM      7  C   UNL     1      -4.200   3.351   8.903  0.00  0.00    +0.072 A 
ATOM      8  C   UNL     1      -5.330   2.548   8.952  0.00  0.00    +0.049 A 
ATOM      9  C   UNL     1      -6.439   2.958   9.680  0.00  0.00    +0.035 A 
ATOM     10  C   UNL     1      -6.415   4.171  10.356  0.00  0.00    +0.026 A 
ATOM     11  C   UNL     1      -5.288   4.970  10.306  0.00  0.00    +0.042 A 
ATOM     12  C   UNL     1      -4.180   4.562   9.587  0.00  0.00    +0.145 A 
ATOM     13  F   UNL     1      -3.078   5.343   9.544  0.00  0.00    -0.204 F 
BRANCH   9  14
ATOM     14  N   UNL     1      -7.581   2.150   9.731  0.00  0.00    -0.286 N 
ATOM     15  C   UNL     1      -8.419   2.233  10.783  0.00  0.00    +0.214 C 
ATOM     16  O   UNL     1      -8.131   2.929  11.734  0.00  0.00    -0.276 OA
ATOM     17  C   UNL     1      -9.714   1.462  10.778  0.00  0.00    +0.109 C 
ATOM     18  H   UNL     1      -7.769   1.530   9.009  0.00  0.00    +0.155 HD
ENDBRANCH   9  14
ENDBRANCH   4   7
BRANCH   1  19
ATOM     19  C   UNL     1      -2.342   1.174   5.031  0.00  0.00    +0.140 C 
BRANCH  19  20
ATOM     20  C   UNL     1      -0.978   0.952   4.374  0.00  0.00    +0.169 C 
BRANCH  20  21
ATOM     21  O   UNL     1      -0.378   2.216   4.082  0.00  0.00    -0.387 OA
ATOM     22  H   UNL     1      -0.898   2.769   3.482  0.00  0.00    +0.210 HD
ENDBRANCH  20  21
BRANCH  20  23
ATOM     23  C   UNL     1      -1.160   0.163   3.076  0.00  0.00    +0.261 C 
BRANCH  23  24
ATOM     24  O   UNL     1       0.121  -0.145   2.522  0.00  0.00    -0.489 OA
BRANCH  24  31
ATOM     25  C   UNL     1       0.091   1.325   0.110  0.00  0.00    +0.047 C 
ATOM     26  C   UNL     1       0.124  -0.181   0.143  0.00  0.00    -0.009 A 
ATOM     27  C   UNL     1       0.147  -0.899  -1.037  0.00  0.00    +0.007 A 
ATOM     28  C   UNL     1       0.178  -2.281  -1.007  0.00  0.00    +0.001 A 
ATOM     29  C   UNL     1       0.186  -2.948   0.204  0.00  0.00    +0.007 A 
ATOM     30  C   UNL     1       0.163  -2.236   1.387  0.00  0.00    -0.009 A 
ATOM     31  C   UNL     1       0.138  -0.849   1.359  0.00  0.00    +0.126 A 
ATOM     32  C   UNL     1       0.171  -2.964   2.706  0.00  0.00    +0.047 C 
ENDBRANCH  24  31
ENDBRANCH  23  24
ENDBRANCH  20  23
ENDBRANCH  19  20
ENDBRANCH   1  19
TORSDOF 8
