REMARK  Name = ZINC17140393
REMARK  6 active torsions:
REMARK  status: ('A' for Active; 'I' for Inactive)
REMARK    1  A    between atoms: C_1  and  C_2
REMARK    2  A    between atoms: C_2  and  C_8
REMARK    3  A    between atoms: N_3  and  N_4
REMARK    4  A    between atoms: N_4  and  C_5
REMARK    5  A    between atoms: C_5  and  N_7
REMARK    6  A    between atoms: C_9  and  C_10
REMARK                            x       y       z     vdW  Elec       q    Type
REMARK                         _______ _______ _______ _____ _____    ______ ____
ROOT
ATOM      1  C   UNL     1      -1.196   2.127   0.004  0.00  0.00    +0.025 C 
ATOM      2  C   UNL     1      -0.019   1.468  -0.009  0.00  0.00    +0.010 C 
ENDROOT
BRANCH   2   3
ATOM      3  C   UNL     1       0.000  -0.004  -0.019  0.00  0.00    -0.021 A 
ATOM      4  C   UNL     1      -1.201  -0.721  -0.008  0.00  0.00    +0.012 A 
ATOM      5  C   UNL     1      -1.180  -2.099  -0.017  0.00  0.00    +0.050 A 
ATOM      6  C   UNL     1       0.030  -2.780  -0.037  0.00  0.00    +0.166 A 
ATOM      7  C   UNL     1       1.231  -2.071  -0.048  0.00  0.00    +0.167 A 
ATOM      8  C   UNL     1       1.219  -0.689  -0.045  0.00  0.00    +0.057 A 
ATOM      9  O   UNL     1       2.264  -2.964  -0.067  0.00  0.00    -0.453 OA
ATOM     10  C   UNL     1       1.682  -4.215  -0.481  0.00  0.00    +0.466 C 
ATOM     11  O   UNL     1       0.312  -4.115  -0.050  0.00  0.00    -0.453 OA
ENDBRANCH   2   3
BRANCH   1  13
ATOM     12  C   UNL     1       0.077   4.313   0.146  0.00  0.00    +0.067 C 
ATOM     13  C   UNL     1      -1.216   3.539   0.134  0.00  0.00    +0.056 C 
ATOM     14  N   UNL     1      -2.352   4.167   0.241  0.00  0.00    -0.186 NA
BRANCH  14  15
ATOM     15  N   UNL     1      -3.546   3.441   0.348  0.00  0.00    -0.218 N 
ATOM     16  H   UNL     1      -3.535   2.475   0.270  0.00  0.00    +0.176 HD
BRANCH  15  17
ATOM     17  C   UNL     1      -4.710   4.087   0.560  0.00  0.00    +0.147 C 
ATOM     18  S   UNL     1      -6.169   3.200   0.691  0.00  0.00    -0.017 S 
BRANCH  17  19
ATOM     19  N   UNL     1      -4.726   5.430   0.668  0.00  0.00    -0.339 N 
ATOM     20  H   UNL     1      -3.899   5.932   0.594  0.00  0.00    +0.144 HD
ATOM     21  H   UNL     1      -5.564   5.895   0.821  0.00  0.00    +0.144 HD
ENDBRANCH  17  19
ENDBRANCH  15  17
ENDBRANCH  14  15
ENDBRANCH   1  13
TORSDOF 5
