REMARK  Name = ZINC02420532
REMARK  6 active torsions:
REMARK  status: ('A' for Active; 'I' for Inactive)
REMARK    1  A    between atoms: C_1  and  C_2
REMARK    2  A    between atoms: C_5  and  C_8
REMARK    3  A    between atoms: C_11  and  C_25
REMARK    4  A    between atoms: C_20  and  C_22
REMARK    5  A    between atoms: C_22  and  O_23
REMARK    6  A    between atoms: O_23  and  C_24
REMARK                            x       y       z     vdW  Elec       q    Type
REMARK                         _______ _______ _______ _____ _____    ______ ____
ROOT
ATOM      1  C   UNL     1       0.059  -4.275  -0.021  0.00  0.00    +0.143 C 
ATOM      2  C   UNL     1      -1.178  -4.809   0.711  0.00  0.00    +0.058 C 
ATOM      3  C   UNL     1      -1.029  -6.317   0.947  0.00  0.00    +0.106 C 
ATOM      4  N   UNL     1       0.141  -6.544   1.817  0.00  0.00    -0.307 N 
ATOM      5  C   UNL     1       1.280  -5.807   1.518  0.00  0.00    +0.216 A 
ATOM      6  N   UNL     1       1.260  -4.754   0.664  0.00  0.00    -0.224 N 
ATOM      7  N   UNL     1       2.565  -4.264   0.599  0.00  0.00    -0.131 NA
ATOM      8  C   UNL     1       3.292  -5.019   1.392  0.00  0.00    +0.242 A 
ATOM      9  N   UNL     1       2.503  -5.955   1.952  0.00  0.00    -0.180 NA
ATOM     10  N   UNL     1       4.664  -4.871   1.619  0.00  0.00    -0.251 N 
ATOM     11  C   UNL     1       5.303  -5.711   2.458  0.00  0.00    +0.245 C 
ATOM     12  O   UNL     1       4.687  -6.595   3.015  0.00  0.00    -0.273 OA
ATOM     13  H   UNL     1       0.116  -7.172   2.555  0.00  0.00    +0.149 HD
ATOM     14  H   UNL     1       5.156  -4.163   1.174  0.00  0.00    +0.158 HD
ENDROOT
BRANCH   1  19
ATOM     15  C   UNL     1      -0.018   1.503   0.010  0.00  0.00    +0.044 C 
ATOM     16  C   UNL     1       0.002  -0.004   0.002  0.00  0.00    -0.050 A 
ATOM     17  C   UNL     1       0.006  -0.689  -1.199  0.00  0.00    +0.004 A 
ATOM     18  C   UNL     1       0.025  -2.071  -1.206  0.00  0.00    +0.006 A 
ATOM     19  C   UNL     1       0.040  -2.768  -0.013  0.00  0.00    -0.023 A 
ATOM     20  C   UNL     1       0.037  -2.084   1.188  0.00  0.00    +0.006 A 
ATOM     21  C   UNL     1       0.023  -0.702   1.195  0.00  0.00    +0.004 A 
ENDBRANCH   1  19
BRANCH   3  22
ATOM     22  C   UNL     1      -2.271  -6.849   1.614  0.00  0.00    -0.027 A 
ATOM     23  C   UNL     1      -2.448  -6.685   2.975  0.00  0.00    +0.007 A 
ATOM     24  C   UNL     1      -3.587  -7.173   3.588  0.00  0.00    +0.020 A 
ATOM     25  C   UNL     1      -4.549  -7.826   2.839  0.00  0.00    +0.041 A 
ATOM     26  C   UNL     1      -4.371  -7.990   1.477  0.00  0.00    +0.020 A 
ATOM     27  C   UNL     1      -3.235  -7.497   0.864  0.00  0.00    +0.007 A 
ATOM     28 CL   UNL     1      -5.979  -8.440   3.608  0.00  0.00    -0.084 Cl
ENDBRANCH   3  22
BRANCH  11  29
ATOM     29  C   UNL     1       6.781  -5.551   2.703  0.00  0.00    +0.255 C 
BRANCH  29  30
ATOM     30  O   UNL     1       7.222  -6.553   3.622  0.00  0.00    -0.374 OA
ATOM     31  C   UNL     1       8.617  -6.490   3.925  0.00  0.00    +0.194 C 
ENDBRANCH  29  30
ENDBRANCH  11  29
TORSDOF 4
