REMARK  Name = ZINC39468489
REMARK  6 active torsions:
REMARK  status: ('A' for Active; 'I' for Inactive)
REMARK    1  A    between atoms: C_1  and  S_2
REMARK    2  A    between atoms: S_2  and  P_3
REMARK    3  A    between atoms: C_11  and  S_22
REMARK    4  A    between atoms: C_12  and  O_21
REMARK    5  A    between atoms: S_22  and  O_25
REMARK    6  A    between atoms: O_25  and  C_26
REMARK                            x       y       z     vdW  Elec       q    Type
REMARK                         _______ _______ _______ _____ _____    ______ ____
ROOT
ATOM      1  P   UNL     1       2.662   0.584   2.246  0.00  0.00    +0.314 P 
ATOM      2  O   UNL     1       1.698   0.959   3.305  0.00  0.00    -0.262 OA
ATOM      3  N   UNL     1       2.763  -1.059   2.115  0.00  0.00    -0.283 NA
ATOM      4  N   UNL     1       3.515  -1.734   3.053  0.00  0.00    +0.398 N 
ATOM      5  C   UNL     1       3.523  -3.143   2.631  0.00  0.00    -0.046 C 
ATOM      6  C   UNL     1       4.315  -4.001   3.608  0.00  0.00    +0.006 C 
ATOM      7  C   UNL     1       3.704  -3.937   4.982  0.00  0.00    +0.009 C 
ATOM      8  C   UNL     1       4.448  -4.226   6.045  0.00  0.00    +0.165 C 
ATOM      9  C   UNL     1       5.859  -4.618   5.859  0.00  0.00    +0.141 C 
ATOM     10  C   UNL     1       6.497  -4.277   4.737  0.00  0.00    +0.024 C 
ATOM     11  C   UNL     1       5.758  -3.492   3.681  0.00  0.00    +0.019 C 
ATOM     12  C   UNL     1       5.732  -2.015   4.078  0.00  0.00    -0.002 C 
ATOM     13  C   UNL     1       4.881  -1.206   3.094  0.00  0.00    -0.020 C 
ATOM     14  C   UNL     1       4.906   0.253   3.569  0.00  0.00    +0.157 C 
ATOM     15  O   UNL     1       4.162   1.071   2.649  0.00  0.00    -0.312 OA
ATOM     16  H   UNL     1       2.308  -1.533   1.402  0.00  0.00    +0.112 HD
ATOM     17  H   UNL     1       3.087  -1.641   3.963  0.00  0.00    -0.055 HD
ENDROOT
BRANCH   8  18
ATOM     18  S   UNL     1       3.756  -4.141   7.664  0.00  0.00    +0.154 S 
ATOM     19  O   UNL     1       4.830  -3.853   8.550  0.00  0.00    -0.131 OA
ATOM     20  O   UNL     1       2.604  -3.316   7.570  0.00  0.00    -0.131 OA
BRANCH  18  21
ATOM     21  O   UNL     1       3.264  -5.537   8.017  0.00  0.00    -0.342 OA
BRANCH  21  22
ATOM     22  C   UNL     1       4.258  -6.415   8.315  0.00  0.00    +0.157 A 
ATOM     23  C   UNL     1       4.749  -7.268   7.338  0.00  0.00    +0.048 A 
ATOM     24  C   UNL     1       5.759  -8.159   7.644  0.00  0.00    +0.004 A 
ATOM     25  C   UNL     1       6.282  -8.200   8.923  0.00  0.00    +0.000 A 
ATOM     26  C   UNL     1       5.795  -7.351   9.899  0.00  0.00    +0.004 A 
ATOM     27  C   UNL     1       4.789  -6.454   9.597  0.00  0.00    +0.048 A 
ENDBRANCH  21  22
ENDBRANCH  18  21
ENDBRANCH   8  18
BRANCH   1  29
ATOM     28  C   UNL     1       2.154   3.223   0.691  0.00  0.00    +0.096 C 
ATOM     29  S   UNL     1       2.085   1.435   0.393  0.00  0.00    -0.059 S 
ENDBRANCH   1  29
BRANCH   9  30
ATOM     30  O   UNL     1       6.505  -5.323   6.824  0.00  0.00    -0.505 OA
ATOM     31  H   UNL     1       7.424  -5.532   6.610  0.00  0.00    +0.292 HD
ENDBRANCH   9  30
TORSDOF 5
