REMARK  Name = ZINC57925731
REMARK  6 active torsions:
REMARK  status: ('A' for Active; 'I' for Inactive)
REMARK    1  A    between atoms: C_1  and  C_2
REMARK    2  A    between atoms: C_2  and  C_3
REMARK    3  A    between atoms: N_13  and  C_14
REMARK    4  A    between atoms: C_14  and  C_15
REMARK    5  A    between atoms: C_18  and  O_21
REMARK    6  A    between atoms: O_21  and  C_22
REMARK                            x       y       z     vdW  Elec       q    Type
REMARK                         _______ _______ _______ _____ _____    ______ ____
ROOT
ATOM      1  C   UNL     1       0.718  -0.497  -1.257  0.00  0.00    +0.091 C 
ATOM      2  C   UNL     1       0.840  -2.028  -1.218  0.00  0.00    +0.124 C 
ATOM      3  N   UNL     1      -0.516  -2.597  -1.229  0.00  0.00    -0.341 N 
ATOM      4  C   UNL     1      -1.459  -2.079  -2.131  0.00  0.00    +0.051 A 
ATOM      5  C   UNL     1      -2.612  -2.791  -2.419  0.00  0.00    +0.066 A 
ATOM      6  C   UNL     1      -3.539  -2.273  -3.308  0.00  0.00    +0.160 A 
ATOM      7  C   UNL     1      -3.315  -1.045  -3.910  0.00  0.00    +0.160 A 
ATOM      8  C   UNL     1      -2.164  -0.330  -3.626  0.00  0.00    +0.066 A 
ATOM      9  C   UNL     1      -1.234  -0.845  -2.738  0.00  0.00    +0.054 A 
ATOM     10  N   UNL     1      -0.061  -0.128  -2.448  0.00  0.00    -0.320 N 
ATOM     11  F   UNL     1      -4.223  -0.544  -4.777  0.00  0.00    -0.202 F 
ATOM     12  F   UNL     1      -4.664  -2.967  -3.590  0.00  0.00    -0.202 F 
ATOM     13  H   UNL     1      -0.755  -3.317  -0.624  0.00  0.00    +0.146 HD
ENDROOT
BRANCH   1  15
ATOM     14  C   UNL     1      -0.019   1.526   0.010  0.00  0.00    +0.006 C 
ATOM     15  C   UNL     1       0.002  -0.004   0.002  0.00  0.00    +0.020 C 
ENDBRANCH   1  15
BRANCH  10  16
ATOM     16  C   UNL     1       0.379   0.968  -3.316  0.00  0.00    +0.140 C 
BRANCH  16  17
ATOM     17  C   UNL     1       1.283   0.424  -4.392  0.00  0.00    -0.030 A 
ATOM     18  C   UNL     1       2.647   0.349  -4.175  0.00  0.00    +0.009 A 
ATOM     19  C   UNL     1       3.478  -0.149  -5.160  0.00  0.00    +0.046 A 
ATOM     20  C   UNL     1       2.943  -0.574  -6.367  0.00  0.00    +0.120 A 
ATOM     21  C   UNL     1       1.574  -0.498  -6.582  0.00  0.00    +0.046 A 
ATOM     22  C   UNL     1       0.747  -0.005  -5.592  0.00  0.00    +0.009 A 
BRANCH  20  23
ATOM     23  O   UNL     1       3.758  -1.064  -7.338  0.00  0.00    -0.495 OA
ATOM     24  C   UNL     1       3.139  -1.483  -8.555  0.00  0.00    +0.277 C 
ENDBRANCH  20  23
ENDBRANCH  16  17
ENDBRANCH  10  16
TORSDOF 4
