REMARK  Name = ZINC43262444
REMARK  8 active torsions:
REMARK  status: ('A' for Active; 'I' for Inactive)
REMARK    1  A    between atoms: C_1  and  C_2
REMARK    2  A    between atoms: C_2  and  C_3
REMARK    3  A    between atoms: C_3  and  C_5
REMARK    4  A    between atoms: C_3  and  N_24
REMARK    5  A    between atoms: C_5  and  C_7
REMARK    6  A    between atoms: C_5  and  N_13
REMARK    7  A    between atoms: C_18  and  C_20
REMARK    8  A    between atoms: N_22  and  C_23
REMARK                            x       y       z     vdW  Elec       q    Type
REMARK                         _______ _______ _______ _____ _____    ______ ____
ROOT
ATOM      1  C   UNL     1      -2.780  -3.008  -0.208  0.00  0.00    -0.045 C 
ENDROOT
BRANCH   1   2
ATOM      2  N   UNL     1      -1.861  -3.108   0.934  0.00  0.00    +0.391 N 
ATOM      3  C   UNL     1      -2.500  -2.538   2.126  0.00  0.00    -0.077 C 
ATOM      4  C   UNL     1      -1.518  -2.566   3.299  0.00  0.00    -0.019 C 
ATOM      5  C   UNL     1      -1.108  -4.015   3.580  0.00  0.00    -0.003 C 
ATOM      6  C   UNL     1      -0.510  -4.622   2.308  0.00  0.00    -0.006 C 
ATOM      7  C   UNL     1      -1.530  -4.518   1.171  0.00  0.00    +0.020 C 
ATOM      8  H   UNL     1      -1.016  -2.595   0.730  0.00  0.00    -0.080 HD
BRANCH   7   9
ATOM      9  C   UNL     1      -0.946  -5.115  -0.083  0.00  0.00    +0.199 C 
ATOM     10  O   UNL     1      -0.087  -4.517  -0.696  0.00  0.00    -0.278 OA
ATOM     11  N   UNL     1      -1.378  -6.313  -0.524  0.00  0.00    -0.320 N 
ATOM     12  C   UNL     1      -0.810  -6.893  -1.744  0.00  0.00    +0.128 C 
ATOM     13  H   UNL     1      -2.065  -6.791  -0.034  0.00  0.00    +0.148 HD
ENDBRANCH   7   9
ENDBRANCH   1   2
BRANCH   1  14
ATOM     14  C   UNL     1      -1.988  -2.988  -1.490  0.00  0.00    -0.024 A 
ATOM     15  C   UNL     1      -1.875  -3.949  -2.438  0.00  0.00    +0.010 A 
ATOM     16  C   UNL     1      -1.083  -3.709  -3.546  0.00  0.00    +0.023 A 
ATOM     17  C   UNL     1      -0.443  -2.518  -3.650  0.00  0.00    +0.055 A 
ATOM     18  S   UNL     1      -0.962  -1.688  -2.157  0.00  0.00    -0.088 S 
ATOM     19 BR   UNL     1       0.698  -1.895  -5.024  0.00  0.00    -0.043 Br
ENDBRANCH   1  14
BRANCH   1  20
ATOM     20  C   UNL     1      -3.598  -1.720  -0.093  0.00  0.00    -0.085 C 
BRANCH  20  21
ATOM     21  N   UNL     1      -4.430  -1.560  -1.293  0.00  0.00    +0.379 N 
ATOM     22  H   UNL     1      -5.054  -2.348  -1.377  0.00  0.00    -0.090 HD
ATOM     23  H   UNL     1      -4.969  -0.710  -1.218  0.00  0.00    -0.090 HD
ATOM     24  H   UNL     1      -3.838  -1.511  -2.109  0.00  0.00    -0.090 HD
ENDBRANCH  20  21
BRANCH  20  26
ATOM     25  C   UNL     1      -3.466   0.748   0.274  0.00  0.00    +0.002 C 
ATOM     26  C   UNL     1      -2.651  -0.525   0.034  0.00  0.00    -0.021 C 
ENDBRANCH  20  26
ENDBRANCH   1  20
TORSDOF 6
