REMARK  Name = ZINC36110843
REMARK  8 active torsions:
REMARK  status: ('A' for Active; 'I' for Inactive)
REMARK    1  A    between atoms: C_1  and  C_2
REMARK    2  A    between atoms: C_2  and  C_3
REMARK    3  A    between atoms: C_2  and  C_4
REMARK    4  A    between atoms: C_2  and  C_5
REMARK    5  A    between atoms: N_7  and  C_8
REMARK    6  A    between atoms: C_8  and  C_9
REMARK    7  A    between atoms: C_9  and  S_10
REMARK    8  A    between atoms: S_10  and  N_13
REMARK                            x       y       z     vdW  Elec       q    Type
REMARK                         _______ _______ _______ _____ _____    ______ ____
ROOT
ATOM      1  C   UNL     1       1.553  -3.814  -2.673  0.00  0.00    +0.204 C 
ENDROOT
BRANCH   1   2
ATOM      2  S   UNL     1       2.402  -4.399  -4.166  0.00  0.00    +0.033 S 
ATOM      3  O   UNL     1       1.633  -4.090  -5.320  0.00  0.00    -0.158 OA
ATOM      4  O   UNL     1       3.783  -4.068  -4.105  0.00  0.00    -0.158 OA
BRANCH   2   5
ATOM      5  N   UNL     1       2.359  -6.051  -4.060  0.00  0.00    -0.181 NA
ATOM      6  C   UNL     1       3.438  -6.786  -3.385  0.00  0.00    +0.109 C 
ATOM      7  C   UNL     1       2.822  -7.696  -2.317  0.00  0.00    +0.017 C 
ATOM      8  C   UNL     1       1.762  -8.590  -2.965  0.00  0.00    +0.003 C 
ATOM      9  C   UNL     1       0.651  -7.720  -3.557  0.00  0.00    +0.017 C 
ATOM     10  C   UNL     1       1.239  -6.810  -4.633  0.00  0.00    +0.109 C 
ENDBRANCH   2   5
ENDBRANCH   1   2
BRANCH   1  11
ATOM     11  C   UNL     1       1.532  -2.285  -2.665  0.00  0.00    +0.128 C 
BRANCH  11  14
ATOM     12  C   UNL     1       0.707  -0.490  -1.238  0.00  0.00    +0.218 C 
ATOM     13  O   UNL     1       1.150   0.308  -2.036  0.00  0.00    -0.275 OA
ATOM     14  N   UNL     1       0.847  -1.812  -1.460  0.00  0.00    -0.313 N 
ATOM     15  H   UNL     1       0.493  -2.451  -0.821  0.00  0.00    +0.149 HD
BRANCH  12  17
ATOM     16  C   UNL     1      -0.019   1.526   0.010  0.00  0.00    +0.020 C 
ATOM     17  C   UNL     1       0.002  -0.004   0.002  0.00  0.00    +0.039 C 
ATOM     18  C   UNL     1       0.742  -0.511   1.242  0.00  0.00    +0.020 C 
ATOM     19  C   UNL     1      -1.433  -0.534   0.013  0.00  0.00    +0.020 C 
ENDBRANCH  12  17
ENDBRANCH  11  14
ENDBRANCH   1  11
TORSDOF 5
