REMARK  Name = ZINC21178076
REMARK  14 active torsions:
REMARK  status: ('A' for Active; 'I' for Inactive)
REMARK    1  A    between atoms: C_1  and  C_2
REMARK    2  A    between atoms: C_3  and  C_31
REMARK    3  A    between atoms: C_4  and  C_30
REMARK    4  A    between atoms: C_7  and  C_8
REMARK    5  A    between atoms: C_8  and  C_10
REMARK    6  A    between atoms: C_10  and  C_12
REMARK    7  A    between atoms: C_10  and  O_13
REMARK    8  A    between atoms: O_13  and  C_14
REMARK    9  A    between atoms: C_14  and  C_16
REMARK   10  A    between atoms: C_16  and  C_17
REMARK   11  A    between atoms: C_17  and  C_19
REMARK   12  A    between atoms: C_17  and  N_26
REMARK   13  A    between atoms: C_31  and  O_33
REMARK   14  A    between atoms: O_33  and  C_34
REMARK                            x       y       z     vdW  Elec       q    Type
REMARK                         _______ _______ _______ _____ _____    ______ ____
ROOT
ATOM      1  C   UNL     1      -2.493   1.327   2.587  0.00  0.00    +0.310 C 
ATOM      2  O   UNL     1      -2.446   2.520   2.396  0.00  0.00    -0.251 OA
ENDROOT
BRANCH   1   3
ATOM      3  O   UNL     1      -2.522   0.849   3.841  0.00  0.00    -0.453 OA
BRANCH   3   4
ATOM      4  C   UNL     1      -2.495   1.822   4.918  0.00  0.00    +0.245 C 
ATOM      5  C   UNL     1      -1.044   2.109   5.310  0.00  0.00    +0.061 C 
BRANCH   4   6
ATOM      6  C   UNL     1      -3.237   1.274   6.110  0.00  0.00    +0.219 C 
ATOM      7  O   UNL     1      -3.423   0.078   6.211  0.00  0.00    -0.287 OA
BRANCH   6  14
ATOM      8  C   UNL     1      -4.791   0.387   8.652  0.00  0.00    +0.047 C 
ATOM      9  C   UNL     1      -4.408   1.786   8.245  0.00  0.00    -0.008 A 
ATOM     10  C   UNL     1      -4.688   2.974   8.954  0.00  0.00    +0.083 A 
ATOM     11  C   UNL     1      -4.157   4.022   8.222  0.00  0.00    +0.028 A 
ATOM     12  N   UNL     1      -3.571   3.525   7.122  0.00  0.00    -0.355 N 
ATOM     13  H   UNL     1      -3.079   4.200   6.407  0.00  0.00    +0.166 HD
ATOM     14  C   UNL     1      -3.718   2.152   7.110  0.00  0.00    +0.090 A 
ATOM     15  C   UNL     1      -4.219   5.479   8.601  0.00  0.00    +0.064 C 
BRANCH  10  16
ATOM     16  C   UNL     1      -5.411   3.080  10.232  0.00  0.00    +0.341 C 
ATOM     17  O   UNL     1      -4.801   3.027  11.282  0.00  0.00    -0.245 OA
BRANCH  16  18
ATOM     18  O   UNL     1      -6.750   3.236  10.239  0.00  0.00    -0.464 OA
ATOM     19  C   UNL     1      -7.396   3.333  11.536  0.00  0.00    +0.280 C 
ENDBRANCH  16  18
ENDBRANCH  10  16
ENDBRANCH   6  14
ENDBRANCH   4   6
ENDBRANCH   3   4
ENDBRANCH   1   3
BRANCH   1  20
ATOM     20  C   UNL     1      -2.519   0.377   1.417  0.00  0.00    +0.147 C 
BRANCH  20  21
ATOM     21  C   UNL     1      -2.477   1.174   0.112  0.00  0.00    +0.115 C 
BRANCH  21  22
ATOM     22  C   UNL     1      -2.626   0.234  -1.056  0.00  0.00    -0.027 A 
ATOM     23  C   UNL     1      -1.568  -0.571  -1.435  0.00  0.00    +0.007 A 
ATOM     24  C   UNL     1      -1.706  -1.438  -2.502  0.00  0.00    +0.020 A 
ATOM     25  C   UNL     1      -2.900  -1.492  -3.199  0.00  0.00    +0.041 A 
ATOM     26  C   UNL     1      -3.957  -0.683  -2.822  0.00  0.00    +0.020 A 
ATOM     27  C   UNL     1      -3.820   0.180  -1.751  0.00  0.00    +0.007 A 
ATOM     28 CL   UNL     1      -3.072  -2.575  -4.544  0.00  0.00    -0.084 Cl
ENDBRANCH  21  22
BRANCH  21  29
ATOM     29  N   UNL     1      -1.196   1.879   0.011  0.00  0.00    -0.292 N 
ATOM     30  C   UNL     1      -1.105   3.010  -0.717  0.00  0.00    +0.298 C 
ATOM     31  O   UNL     1      -2.060   3.395  -1.364  0.00  0.00    -0.253 OA
ATOM     32  N   UNL     1       0.043   3.716  -0.724  0.00  0.00    -0.313 N 
ATOM     33  H   UNL     1      -0.309   1.485   0.529  0.00  0.00    +0.151 HD
ATOM     34  H   UNL     1       0.118   4.638  -1.318  0.00  0.00    +0.146 HD
ATOM     35  H   UNL     1       0.905   3.369  -0.135  0.00  0.00    +0.146 HD
ENDBRANCH  21  29
ENDBRANCH  20  21
ENDBRANCH   1  20
TORSDOF 10
