REMARK  Name = ZINC67081803
REMARK  7 active torsions:
REMARK  status: ('A' for Active; 'I' for Inactive)
REMARK    1  A    between atoms: C_1  and  C_2
REMARK    2  A    between atoms: C_6  and  C_7
REMARK    3  A    between atoms: N_9  and  N_10
REMARK    4  A    between atoms: N_13  and  C_14
REMARK    5  A    between atoms: C_14  and  C_16
REMARK    6  A    between atoms: C_14  and  C_17
REMARK    7  A    between atoms: C_18  and  C_27
REMARK                            x       y       z     vdW  Elec       q    Type
REMARK                         _______ _______ _______ _____ _____    ______ ____
ROOT
ATOM      1  N   UNL     1       0.058  -0.732   4.900  0.00  0.00    -0.218 N 
ATOM      2  C   UNL     1       0.080  -1.625   5.909  0.00  0.00    +0.317 C 
ATOM      3  O   UNL     1       0.086  -1.239   7.062  0.00  0.00    -0.251 OA
ATOM      4  N   UNL     1       0.096  -2.945   5.640  0.00  0.00    -0.289 N 
ATOM      5  H   UNL     1       0.047   0.219   5.094  0.00  0.00    +0.174 HD
ATOM      6  H   UNL     1       0.091  -3.253   4.720  0.00  0.00    +0.151 HD
ENDROOT
BRANCH   1   9
ATOM      7  C   UNL     1       0.030  -0.283   2.562  0.00  0.00    +0.267 C 
ATOM      8  O   UNL     1       0.016   0.910   2.805  0.00  0.00    -0.268 OA
ATOM      9  N   UNL     1       0.052  -1.176   3.571  0.00  0.00    -0.229 N 
ATOM     10  H   UNL     1       0.063  -2.126   3.378  0.00  0.00    +0.173 HD
BRANCH   7  16
ATOM     11  C   UNL     1      -0.018   1.503   0.010  0.00  0.00    +0.045 C 
ATOM     12  C   UNL     1       0.002  -0.004   0.002  0.00  0.00    -0.031 A 
ATOM     13  C   UNL     1       0.007  -0.729  -1.166  0.00  0.00    +0.011 A 
ATOM     14  C   UNL     1       0.026  -2.083  -1.101  0.00  0.00    +0.046 A 
ATOM     15  S   UNL     1       0.038  -2.416   0.545  0.00  0.00    -0.092 S 
ATOM     16  C   UNL     1       0.023  -0.748   1.172  0.00  0.00    +0.078 A 
ENDBRANCH   7  16
ENDBRANCH   1   9
BRANCH   4  17
ATOM     17  C   UNL     1       0.119  -3.916   6.737  0.00  0.00    +0.138 C 
ATOM     18  C   UNL     1      -1.310  -4.179   7.216  0.00  0.00    +0.036 C 
BRANCH  17  19
ATOM     19  C   UNL     1       0.733  -5.205   6.254  0.00  0.00    +0.129 A 
ATOM     20  C   UNL     1       1.645  -5.920   6.926  0.00  0.00    +0.000 A 
ATOM     21  C   UNL     1       1.953  -7.084   6.087  0.00  0.00    +0.026 A 
ATOM     22  C   UNL     1       2.804  -8.181   6.217  0.00  0.00    +0.050 A 
ATOM     23  C   UNL     1       2.857  -9.124   5.213  0.00  0.00    +0.124 A 
ATOM     24  C   UNL     1       2.067  -8.983   4.078  0.00  0.00    +0.042 A 
ATOM     25  C   UNL     1       1.222  -7.903   3.940  0.00  0.00    +0.049 A 
ATOM     26  C   UNL     1       1.154  -6.942   4.940  0.00  0.00    +0.136 A 
ATOM     27  O   UNL     1       0.439  -5.808   5.088  0.00  0.00    -0.458 OA
ATOM     28  F   UNL     1       3.679 -10.190   5.332  0.00  0.00    -0.205 F 
ATOM     29  C   UNL     1       2.237  -5.594   8.274  0.00  0.00    +0.048 C 
ENDBRANCH  17  19
ENDBRANCH   4  17
TORSDOF 4
