REMARK  Name = ZINC51644616
REMARK  5 active torsions:
REMARK  status: ('A' for Active; 'I' for Inactive)
REMARK    1  A    between atoms: C_1  and  C_2
REMARK    2  A    between atoms: C_4  and  C_21
REMARK    3  A    between atoms: C_7  and  N_8
REMARK    4  A    between atoms: C_15  and  C_18
REMARK    5  A    between atoms: C_27  and  C_30
REMARK                            x       y       z     vdW  Elec       q    Type
REMARK                         _______ _______ _______ _____ _____    ______ ____
ROOT
ATOM      1  C   UNL     1       0.522   1.619  -0.265  0.00  0.00    +0.045 C 
ATOM      2  C   UNL     1       0.305   0.129  -0.327  0.00  0.00    -0.028 A 
ATOM      3  C   UNL     1       0.209  -0.502  -1.547  0.00  0.00    +0.018 A 
ATOM      4  C   UNL     1       0.008  -1.883  -1.604  0.00  0.00    +0.037 A 
ATOM      5  C   UNL     1      -0.095  -2.621  -0.421  0.00  0.00    +0.015 A 
ATOM      6  C   UNL     1       0.003  -1.984   0.796  0.00  0.00    +0.024 A 
ATOM      7  C   UNL     1       0.208  -0.609   0.849  0.00  0.00    +0.038 A 
ENDROOT
BRANCH   7   8
ATOM      8  N   UNL     1       0.312   0.032   2.083  0.00  0.00    -0.269 N 
ATOM      9  C   UNL     1       0.576  -0.684   3.193  0.00  0.00    +0.307 C 
ATOM     10  O   UNL     1       0.831  -1.869   3.107  0.00  0.00    -0.252 OA
ATOM     11  N   UNL     1       0.558  -0.086   4.401  0.00  0.00    -0.280 N 
ATOM     12  C   UNL     1       0.341   1.365   4.524  0.00  0.00    +0.137 C 
ATOM     13  C   UNL     1      -0.771   1.602   5.552  0.00  0.00    +0.180 C 
ATOM     14  O   UNL     1      -0.456   0.902   6.758  0.00  0.00    -0.364 OA
ATOM     15  C   UNL     1      -0.381  -0.517   6.608  0.00  0.00    +0.221 C 
ATOM     16  C   UNL     1       0.747  -0.864   5.635  0.00  0.00    +0.150 C 
ATOM     17  H   UNL     1       0.195   0.993   2.141  0.00  0.00    +0.156 HD
BRANCH  15  18
ATOM     18  C   UNL     1      -0.106  -1.151   7.948  0.00  0.00    +0.241 C 
ATOM     19  O   UNL     1       0.104  -0.453   8.917  0.00  0.00    -0.273 OA
ATOM     20  N   UNL     1      -0.093  -2.493   8.069  0.00  0.00    -0.327 N 
ATOM     21  H   UNL     1      -0.261  -3.051   7.293  0.00  0.00    +0.145 HD
ATOM     22  H   UNL     1       0.084  -2.901   8.931  0.00  0.00    +0.145 HD
ENDBRANCH  15  18
ENDBRANCH   7   8
BRANCH   4  23
ATOM     23  C   UNL     1      -0.097  -2.562  -2.910  0.00  0.00    +0.247 C 
ATOM     24  O   UNL     1       0.519  -2.136  -3.868  0.00  0.00    -0.270 OA
ATOM     25  N   UNL     1      -0.875  -3.655  -3.041  0.00  0.00    -0.297 N 
ATOM     26  C   UNL     1      -0.873  -4.430  -4.290  0.00  0.00    +0.108 C 
ATOM     27  C   UNL     1      -2.316  -4.566  -4.787  0.00  0.00    +0.019 C 
ATOM     28  C   UNL     1      -3.180  -5.167  -3.675  0.00  0.00    +0.006 C 
ATOM     29  C   UNL     1      -3.173  -4.235  -2.462  0.00  0.00    +0.003 C 
ATOM     30  C   UNL     1      -1.736  -4.098  -1.936  0.00  0.00    +0.111 C 
ATOM     31  C   UNL     1      -4.064  -4.820  -1.364  0.00  0.00    +0.009 C 
ENDBRANCH   4  23
TORSDOF 3
