REMARK  Name = ZINC06266445
REMARK  6 active torsions:
REMARK  status: ('A' for Active; 'I' for Inactive)
REMARK    1  A    between atoms: C_1  and  C_2
REMARK    2  A    between atoms: C_6  and  C_20
REMARK    3  A    between atoms: N_8  and  C_19
REMARK    4  A    between atoms: C_9  and  O_18
REMARK    5  A    between atoms: N_13  and  C_17
REMARK    6  A    between atoms: C_24  and  O_26
REMARK                            x       y       z     vdW  Elec       q    Type
REMARK                         _______ _______ _______ _____ _____    ______ ____
ROOT
ATOM      1  C   UNL     1       0.158   0.956   0.223  0.00  0.00    +0.028 C 
ATOM      2  C   UNL     1      -0.127  -0.541   0.089  0.00  0.00    +0.080 C 
ATOM      3  C   UNL     1      -1.640  -0.778   0.118  0.00  0.00    +0.075 C 
ATOM      4  C   UNL     1      -2.301   0.128  -0.933  0.00  0.00    +0.116 C 
ATOM      5  N   UNL     1      -1.970   1.518  -0.587  0.00  0.00    -0.283 N 
ATOM      6  C   UNL     1      -2.030   1.904   0.730  0.00  0.00    +0.258 C 
ATOM      7  N   UNL     1      -2.119   1.051   1.694  0.00  0.00    -0.325 N 
ATOM      8  C   UNL     1      -2.174  -0.407   1.502  0.00  0.00    +0.182 C 
ATOM      9  N   UNL     1      -1.418  -1.112   2.534  0.00  0.00    -0.268 N 
ATOM     10  C   UNL     1      -0.150  -1.502   2.337  0.00  0.00    +0.304 C 
ATOM     11  O   UNL     1       0.429  -2.086   3.233  0.00  0.00    -0.253 OA
ATOM     12  N   UNL     1       0.501  -1.258   1.199  0.00  0.00    -0.296 N 
ATOM     13  C   UNL     1      -2.062  -1.401   3.818  0.00  0.00    +0.135 C 
ATOM     14  C   UNL     1      -1.582   2.474  -1.628  0.00  0.00    +0.134 C 
ATOM     15  H   UNL     1       1.409  -1.585   1.101  0.00  0.00    +0.151 HD
ATOM     16  H   UNL     1      -2.149   1.389   2.602  0.00  0.00    +0.166 HD
ENDROOT
BRANCH   4  17
ATOM     17  C   UNL     1      -1.766  -0.203  -2.302  0.00  0.00    -0.023 A 
ATOM     18  C   UNL     1      -2.595  -0.780  -3.247  0.00  0.00    +0.006 A 
ATOM     19  C   UNL     1      -2.108  -1.084  -4.504  0.00  0.00    +0.004 A 
ATOM     20  C   UNL     1      -0.791  -0.812  -4.820  0.00  0.00    +0.045 A 
ATOM     21  C   UNL     1       0.043  -0.233  -3.875  0.00  0.00    +0.117 A 
ATOM     22  C   UNL     1      -0.451   0.077  -2.615  0.00  0.00    +0.051 A 
BRANCH  21  23
ATOM     23  O   UNL     1       1.339   0.036  -4.183  0.00  0.00    -0.507 OA
ATOM     24  H   UNL     1       1.480   0.916  -4.557  0.00  0.00    +0.292 HD
ENDBRANCH  21  23
ENDBRANCH   4  17
BRANCH   6  25
ATOM     25  O   UNL     1      -1.994   3.222   1.026  0.00  0.00    -0.483 OA
ATOM     26  H   UNL     1      -2.041   3.414   1.972  0.00  0.00    +0.295 HD
ENDBRANCH   6  25
TORSDOF 3
