REMARK  Name = ZINC63020613
REMARK  8 active torsions:
REMARK  status: ('A' for Active; 'I' for Inactive)
REMARK    1  A    between atoms: C_1  and  C_2
REMARK    2  A    between atoms: C_11  and  S_13
REMARK    3  A    between atoms: S_13  and  N_16
REMARK    4  A    between atoms: N_16  and  C_17
REMARK    5  A    between atoms: C_17  and  C_18
REMARK    6  A    between atoms: C_17  and  C_19
REMARK    7  A    between atoms: C_17  and  C_20
REMARK    8  A    between atoms: C_20  and  N_21
REMARK                            x       y       z     vdW  Elec       q    Type
REMARK                         _______ _______ _______ _____ _____    ______ ____
ROOT
ATOM      1  S   UNL     1      -3.188  -6.517   0.912  0.00  0.00    +0.059 S 
ATOM      2  O   UNL     1      -4.567  -6.440   1.248  0.00  0.00    -0.153 OA
ATOM      3  O   UNL     1      -2.722  -7.211  -0.237  0.00  0.00    -0.153 OA
ENDROOT
BRANCH   1  14
ATOM      4  C   UNL     1      -0.229   1.207  -0.058  0.00  0.00    +0.109 C 
ATOM      5  C   UNL     1      -0.484  -0.271  -0.204  0.00  0.00    +0.217 C 
ATOM      6  O   UNL     1       0.126  -0.912  -1.033  0.00  0.00    -0.276 OA
ATOM      7  N   UNL     1      -1.389  -0.880   0.588  0.00  0.00    -0.271 N 
ATOM      8  C   UNL     1      -2.189  -0.212   1.618  0.00  0.00    +0.118 C 
ATOM      9  C   UNL     1      -3.058  -1.320   2.235  0.00  0.00    +0.056 C 
ATOM     10  C   UNL     1      -2.671  -2.572   1.481  0.00  0.00    -0.023 A 
ATOM     11  C   UNL     1      -1.707  -2.241   0.542  0.00  0.00    +0.040 A 
ATOM     12  C   UNL     1      -1.194  -3.242  -0.286  0.00  0.00    +0.026 A 
ATOM     13  C   UNL     1      -1.647  -4.539  -0.170  0.00  0.00    +0.030 A 
ATOM     14  C   UNL     1      -2.612  -4.858   0.767  0.00  0.00    +0.106 A 
ATOM     15  C   UNL     1      -3.118  -3.874   1.596  0.00  0.00    +0.034 A 
ENDBRANCH   1  14
BRANCH   1  16
ATOM     16  N   UNL     1      -2.421  -7.190   2.216  0.00  0.00    -0.186 NA
ATOM     17  H   UNL     1      -2.926  -7.419   3.012  0.00  0.00    +0.149 HD
BRANCH  16  18
ATOM     18  C   UNL     1      -0.978  -7.440   2.168  0.00  0.00    +0.019 C 
ATOM     19  C   UNL     1      -0.677  -8.484   1.091  0.00  0.00    +0.027 C 
ATOM     20  C   UNL     1      -0.246  -6.138   1.835  0.00  0.00    +0.027 C 
BRANCH  18  21
ATOM     21  C   UNL     1      -0.504  -7.958   3.527  0.00  0.00    -0.063 C 
BRANCH  21  22
ATOM     22  N   UNL     1      -1.207  -9.208   3.846  0.00  0.00    +0.379 N 
ATOM     23  H   UNL     1      -0.895  -9.550   4.743  0.00  0.00    -0.090 HD
ATOM     24  H   UNL     1      -2.201  -9.036   3.880  0.00  0.00    -0.090 HD
ATOM     25  H   UNL     1      -1.008  -9.897   3.136  0.00  0.00    -0.090 HD
ENDBRANCH  21  22
ENDBRANCH  18  21
ENDBRANCH  16  18
ENDBRANCH   1  16
TORSDOF 5
