REMARK  Name = ZINC62606690
REMARK  6 active torsions:
REMARK  status: ('A' for Active; 'I' for Inactive)
REMARK    1  A    between atoms: C_6  and  O_7
REMARK    2  A    between atoms: O_7  and  C_8
REMARK    3  A    between atoms: C_8  and  C_9
REMARK    4  A    between atoms: C_12  and  C_14
REMARK    5  A    between atoms: N_16  and  C_17
REMARK    6  A    between atoms: C_24  and  N_26
REMARK                            x       y       z     vdW  Elec       q    Type
REMARK                         _______ _______ _______ _____ _____    ______ ____
ROOT
ATOM      1  C   UNL     1      -5.411  -4.004   1.645  0.00  0.00    +0.280 C 
ATOM      2  O   UNL     1      -6.450  -4.449   1.192  0.00  0.00    -0.267 OA
ATOM      3  N   UNL     1      -5.233  -3.934   2.979  0.00  0.00    -0.306 N 
ATOM      4  H   UNL     1      -4.405  -3.579   3.339  0.00  0.00    +0.149 HD
ENDROOT
BRANCH   3   5
ATOM      5  C   UNL     1      -6.289  -4.393   3.884  0.00  0.00    +0.082 C 
ATOM      6  C   UNL     1      -6.162  -5.923   4.055  0.00  0.00    +0.186 C 
ATOM      7  S   UNL     1      -5.263  -6.033   5.663  0.00  0.00    -0.031 S 
ATOM      8  O   UNL     1      -5.717  -7.173   6.379  0.00  0.00    -0.174 OA
ATOM      9  O   UNL     1      -3.872  -5.849   5.438  0.00  0.00    -0.174 OA
ATOM     10  C   UNL     1      -5.966  -4.508   6.431  0.00  0.00    +0.152 C 
ATOM     11  C   UNL     1      -6.179  -3.619   5.190  0.00  0.00    -0.025 C 
BRANCH  11  12
ATOM     12  N   UNL     1      -7.411  -2.842   5.380  0.00  0.00    +0.384 N 
ATOM     13  C   UNL     1      -7.305  -2.006   6.602  0.00  0.00    -0.078 C 
ATOM     14  C   UNL     1      -8.353  -0.890   6.360  0.00  0.00    -0.020 C 
ATOM     15  C   UNL     1      -8.225  -0.619   4.844  0.00  0.00    -0.020 C 
ATOM     16  C   UNL     1      -7.596  -1.896   4.258  0.00  0.00    -0.078 C 
ATOM     17  H   UNL     1      -8.206  -3.461   5.448  0.00  0.00    -0.081 HD
ENDBRANCH  11  12
ENDBRANCH   3   5
BRANCH   1  21
ATOM     18  C   UNL     1      -2.454  -2.722   0.012  0.00  0.00    +0.143 A 
ATOM     19  C   UNL     1      -3.185  -3.033  -1.081  0.00  0.00    +0.049 A 
ATOM     20  C   UNL     1      -4.404  -3.560  -0.626  0.00  0.00    +0.055 A 
ATOM     21  C   UNL     1      -4.354  -3.545   0.738  0.00  0.00    +0.190 A 
ATOM     22  O   UNL     1      -3.159  -3.037   1.106  0.00  0.00    -0.452 OA
BRANCH  18  23
ATOM     23  C   UNL     1      -1.070  -2.126   0.001  0.00  0.00    +0.303 C 
BRANCH  23  24
ATOM     24  O   UNL     1      -1.165  -0.701   0.010  0.00  0.00    -0.484 OA
BRANCH  24  30
ATOM     25  C   UNL     1      -0.017   1.383   0.010  0.00  0.00    +0.047 A 
ATOM     26  C   UNL     1       1.171   2.089   0.002  0.00  0.00    +0.019 A 
ATOM     27  C   UNL     1       2.378   1.414  -0.013  0.00  0.00    +0.018 A 
ATOM     28  C   UNL     1       2.399   0.030  -0.022  0.00  0.00    +0.019 A 
ATOM     29  C   UNL     1       1.214  -0.679  -0.014  0.00  0.00    +0.047 A 
ATOM     30  C   UNL     1       0.002  -0.004   0.002  0.00  0.00    +0.121 A 
ATOM     31 BR   UNL     1       4.002   2.383  -0.024  0.00  0.00    -0.050 Br
ENDBRANCH  24  30
ENDBRANCH  23  24
ENDBRANCH  18  23
ENDBRANCH   1  21
TORSDOF 6
