REMARK  Name = ZINC47692933
REMARK  5 active torsions:
REMARK  status: ('A' for Active; 'I' for Inactive)
REMARK    1  A    between atoms: C_5  and  C_6
REMARK    2  A    between atoms: C_6  and  N_7
REMARK    3  A    between atoms: N_10  and  C_11
REMARK    4  A    between atoms: N_14  and  C_16
REMARK    5  A    between atoms: C_16  and  C_17
REMARK                            x       y       z     vdW  Elec       q    Type
REMARK                         _______ _______ _______ _____ _____    ______ ____
ROOT
ATOM      1  N   UNL     1      -1.544  -1.274  -1.371  0.00  0.00    -0.295 N 
ATOM      2  C   UNL     1      -2.565  -2.121  -1.611  0.00  0.00    +0.304 C 
ATOM      3  O   UNL     1      -3.163  -2.632  -0.684  0.00  0.00    -0.252 OA
ATOM      4  N   UNL     1      -2.923  -2.402  -2.880  0.00  0.00    -0.267 N 
ATOM      5  H   UNL     1      -1.067  -0.867  -2.111  0.00  0.00    +0.151 HD
ATOM      6  H   UNL     1      -2.446  -1.994  -3.620  0.00  0.00    +0.156 HD
ENDROOT
BRANCH   4   7
ATOM      7  C   UNL     1      -3.989  -3.287  -3.132  0.00  0.00    +0.072 A 
ATOM      8  C   UNL     1      -4.766  -3.940  -2.164  0.00  0.00    +0.157 A 
ATOM      9  N   UNL     1      -5.656  -4.675  -2.779  0.00  0.00    -0.177 NA
ATOM     10  N   UNL     1      -5.481  -4.519  -4.160  0.00  0.00    -0.261 N 
ATOM     11  C   UNL     1      -4.451  -3.655  -4.354  0.00  0.00    +0.132 A 
BRANCH  10  12
ATOM     12  C   UNL     1      -6.271  -5.169  -5.208  0.00  0.00    +0.238 C 
BRANCH  12  13
ATOM     13  C   UNL     1      -6.245  -6.662  -5.005  0.00  0.00    +0.232 C 
ATOM     14  O   UNL     1      -5.627  -7.137  -4.075  0.00  0.00    -0.274 OA
ATOM     15  N   UNL     1      -6.908  -7.470  -5.856  0.00  0.00    -0.328 N 
ATOM     16  H   UNL     1      -7.402  -7.090  -6.599  0.00  0.00    +0.145 HD
ATOM     17  H   UNL     1      -6.892  -8.431  -5.725  0.00  0.00    +0.145 HD
ENDBRANCH  12  13
ENDBRANCH  10  12
ENDBRANCH   4   7
BRANCH   1  18
ATOM     18  C   UNL     1      -1.156  -0.969   0.008  0.00  0.00    +0.148 C 
BRANCH  18  23
ATOM     19  C   UNL     1      -0.016   1.351   0.009  0.00  0.00    +0.028 A 
ATOM     20  C   UNL     1       1.184   2.038   0.002  0.00  0.00    +0.025 A 
ATOM     21  C   UNL     1       2.343   1.335  -0.013  0.00  0.00    +0.060 A 
ATOM     22  S   UNL     1       1.753  -0.350  -0.017  0.00  0.00    -0.099 S 
ATOM     23  C   UNL     1       0.002  -0.004   0.002  0.00  0.00    +0.008 A 
ATOM     24 BR   UNL     1       1.208   3.929   0.011  0.00  0.00    -0.050 Br
ENDBRANCH  18  23
ENDBRANCH   1  18
TORSDOF 5
