REMARK  Name = ZINC67397859
REMARK  7 active torsions:
REMARK  status: ('A' for Active; 'I' for Inactive)
REMARK    1  A    between atoms: C_1  and  C_2
REMARK    2  A    between atoms: N_7  and  C_9
REMARK    3  A    between atoms: C_9  and  C_10
REMARK    4  A    between atoms: C_10  and  C_12
REMARK    5  A    between atoms: C_10  and  N_13
REMARK    6  A    between atoms: C_14  and  C_16
REMARK    7  A    between atoms: N_18  and  C_19
REMARK                            x       y       z     vdW  Elec       q    Type
REMARK                         _______ _______ _______ _____ _____    ______ ____
ROOT
ATOM      1  N   UNL     1       0.201  -4.509   2.236  0.00  0.00    -0.307 N 
ATOM      2  C   UNL     1       0.001  -5.767   1.796  0.00  0.00    +0.299 C 
ATOM      3  O   UNL     1       0.950  -6.475   1.528  0.00  0.00    -0.265 OA
ATOM      4  H   UNL     1      -0.558  -3.943   2.450  0.00  0.00    +0.149 HD
ENDROOT
BRANCH   2   5
ATOM      5  C   UNL     1      -1.389  -6.290   1.637  0.00  0.00    +0.303 C 
ATOM      6  O   UNL     1      -2.338  -5.582   1.905  0.00  0.00    -0.265 OA
ATOM      7  N   UNL     1      -1.590  -7.548   1.197  0.00  0.00    -0.278 N 
ATOM      8  H   UNL     1      -0.836  -8.089   0.915  0.00  0.00    +0.155 HD
BRANCH   7   9
ATOM      9  C   UNL     1      -2.885  -8.073   1.146  0.00  0.00    +0.038 A 
ATOM     10  C   UNL     1      -3.101  -9.416   1.426  0.00  0.00    +0.027 A 
ATOM     11  C   UNL     1      -4.380  -9.936   1.376  0.00  0.00    +0.051 A 
ATOM     12  C   UNL     1      -5.450  -9.120   1.046  0.00  0.00    +0.173 A 
ATOM     13  C   UNL     1      -5.237  -7.772   0.765  0.00  0.00    +0.174 A 
ATOM     14  C   UNL     1      -3.955  -7.250   0.821  0.00  0.00    +0.073 A 
ATOM     15  O   UNL     1      -6.437  -7.192   0.471  0.00  0.00    -0.395 OA
ATOM     16  C   UNL     1      -7.330  -8.283   0.176  0.00  0.00    +0.589 C 
ATOM     17  O   UNL     1      -6.785  -9.383   0.929  0.00  0.00    -0.395 OA
ATOM     18  F   UNL     1      -8.627  -7.987   0.607  0.00  0.00    -0.125 F 
ATOM     19  F   UNL     1      -7.319  -8.571  -1.193  0.00  0.00    -0.125 F 
ENDBRANCH   7   9
ENDBRANCH   2   5
BRANCH   1  20
ATOM     20  C   UNL     1       1.564  -3.996   2.392  0.00  0.00    +0.054 C 
ATOM     21  C   UNL     1       2.146  -4.488   3.719  0.00  0.00    +0.026 C 
BRANCH  20  22
ATOM     22  C   UNL     1       1.538  -2.466   2.384  0.00  0.00    -0.057 C 
BRANCH  22  28
ATOM     23  C   UNL     1       1.855  -2.332  -2.500  0.00  0.00    +0.005 C 
ATOM     24  C   UNL     1       0.996  -1.948  -1.294  0.00  0.00    -0.031 C 
ATOM     25  C   UNL     1       0.778  -0.432  -1.283  0.00  0.00    -0.001 C 
ATOM     26  C   UNL     1      -0.016  -0.049  -0.031  0.00  0.00    -0.018 C 
ATOM     27  C   UNL     1       0.734  -0.536   1.211  0.00  0.00    -0.079 C 
ATOM     28  N   UNL     1       0.887  -1.995   1.154  0.00  0.00    +0.381 N 
ATOM     29  C   UNL     1       1.708  -2.365  -0.005  0.00  0.00    -0.076 C 
ATOM     30  H   UNL     1      -0.022  -2.425   1.071  0.00  0.00    -0.082 HD
ENDBRANCH  22  28
ENDBRANCH  20  22
ENDBRANCH   1  20
TORSDOF 5
