REMARK  Name = ZINC50701377
REMARK  8 active torsions:
REMARK  status: ('A' for Active; 'I' for Inactive)
REMARK    1  A    between atoms: C_1  and  C_2
REMARK    2  A    between atoms: C_2  and  C_3
REMARK    3  A    between atoms: C_3  and  C_5
REMARK    4  A    between atoms: C_3  and  N_6
REMARK    5  A    between atoms: N_6  and  C_7
REMARK    6  A    between atoms: C_7  and  C_8
REMARK    7  A    between atoms: C_9  and  C_11
REMARK    8  A    between atoms: C_19  and  N_21
REMARK                            x       y       z     vdW  Elec       q    Type
REMARK                         _______ _______ _______ _____ _____    ______ ____
ROOT
ATOM      1  C   UNL     1      -3.478   1.304   2.542  0.00  0.00    +0.128 A 
ATOM      2  C   UNL     1      -4.555   2.170   2.554  0.00  0.00    +0.041 A 
ATOM      3  C   UNL     1      -4.965   2.722   3.781  0.00  0.00    -0.012 A 
ATOM      4  C   UNL     1      -6.048   3.608   3.874  0.00  0.00    +0.009 A 
ATOM      5  C   UNL     1      -6.402   4.111   5.090  0.00  0.00    +0.001 A 
ATOM      6  C   UNL     1      -5.702   3.759   6.241  0.00  0.00    +0.001 A 
ATOM      7  C   UNL     1      -4.644   2.900   6.186  0.00  0.00    +0.012 A 
ATOM      8  C   UNL     1      -4.253   2.363   4.954  0.00  0.00    +0.022 A 
ATOM      9  C   UNL     1      -3.162   1.468   4.841  0.00  0.00    +0.125 A 
ATOM     10  N   UNL     1      -2.829   0.980   3.665  0.00  0.00    -0.227 NA
ENDROOT
BRANCH   1  12
ATOM     11  N   UNL     1      -2.066  -0.218   1.243  0.00  0.00    -0.294 N 
ATOM     12  C   UNL     1      -3.036   0.717   1.258  0.00  0.00    +0.265 C 
ATOM     13  O   UNL     1      -3.549   1.078   0.217  0.00  0.00    -0.268 OA
BRANCH  11  14
ATOM     14  C   UNL     1      -1.552  -0.720  -0.034  0.00  0.00    +0.073 C 
ATOM     15  C   UNL     1      -1.786  -2.229  -0.121  0.00  0.00    +0.028 C 
BRANCH  14  17
ATOM     16  C   UNL     1       0.173   1.083  -0.168  0.00  0.00    +0.005 C 
ATOM     17  C   UNL     1      -0.052  -0.430  -0.129  0.00  0.00    +0.019 C 
ENDBRANCH  14  17
ENDBRANCH  11  14
BRANCH  11  18
ATOM     18  C   UNL     1      -1.525  -0.734   2.503  0.00  0.00    +0.105 C 
ATOM     19  C   UNL     1      -0.424   0.202   3.006  0.00  0.00    +0.024 C 
ENDBRANCH  11  18
ENDBRANCH   1  12
BRANCH   9  20
ATOM     20  N   UNL     1      -2.449   1.101   5.970  0.00  0.00    -0.343 N 
ATOM     21  H   UNL     1      -2.697   1.457   6.837  0.00  0.00    +0.144 HD
ATOM     22  H   UNL     1      -1.702   0.487   5.893  0.00  0.00    +0.144 HD
ENDBRANCH   9  20
TORSDOF 5
