REMARK  Name = ZINC60684664
REMARK  6 active torsions:
REMARK  status: ('A' for Active; 'I' for Inactive)
REMARK    1  A    between atoms: C_1  and  C_2
REMARK    2  A    between atoms: C_2  and  C_9
REMARK    3  A    between atoms: C_13  and  N_15
REMARK    4  A    between atoms: C_16  and  C_18
REMARK    5  A    between atoms: N_22  and  C_24
REMARK    6  A    between atoms: C_24  and  C_25
REMARK                            x       y       z     vdW  Elec       q    Type
REMARK                         _______ _______ _______ _____ _____    ______ ____
ROOT
ATOM      1  C   UNL     1      -1.411  -0.550  -0.027  0.00  0.00    -0.014 A 
ATOM      2  C   UNL     1      -1.869  -1.366   0.992  0.00  0.00    +0.006 A 
ATOM      3  C   UNL     1      -3.157  -1.866   0.954  0.00  0.00    +0.002 A 
ATOM      4  C   UNL     1      -3.991  -1.552  -0.101  0.00  0.00    +0.023 A 
ATOM      5  C   UNL     1      -3.534  -0.733  -1.125  0.00  0.00    +0.034 A 
ATOM      6  C   UNL     1      -2.241  -0.229  -1.083  0.00  0.00    +0.029 A 
ENDROOT
BRANCH   1   8
ATOM      7  C   UNL     1      -0.021   1.523   0.018  0.00  0.00    +0.047 C 
ATOM      8  C   UNL     1      -0.005  -0.007   0.018  0.00  0.00    +0.135 C 
ATOM      9  C   UNL     1       0.810  -0.532  -1.147  0.00  0.00    +0.248 C 
ATOM     10  O   UNL     1       0.596  -0.359  -2.328  0.00  0.00    -0.273 OA
ATOM     11  N   UNL     1       1.823  -1.230  -0.598  0.00  0.00    -0.238 N 
ATOM     12  C   UNL     1       1.762  -1.220   0.739  0.00  0.00    +0.307 C 
ATOM     13  O   UNL     1       2.567  -1.781   1.456  0.00  0.00    -0.252 OA
ATOM     14  N   UNL     1       0.710  -0.519   1.199  0.00  0.00    -0.282 N 
ATOM     15  H   UNL     1       2.512  -1.685  -1.108  0.00  0.00    +0.159 HD
ATOM     16  H   UNL     1       0.470  -0.377   2.128  0.00  0.00    +0.152 HD
ENDBRANCH   1   8
BRANCH   5  17
ATOM     17  N   UNL     1      -4.376  -0.414  -2.196  0.00  0.00    -0.285 N 
ATOM     18  C   UNL     1      -5.259  -1.323  -2.654  0.00  0.00    +0.222 C 
ATOM     19  O   UNL     1      -5.382  -2.388  -2.086  0.00  0.00    -0.275 OA
ATOM     20  H   UNL     1      -4.325   0.463  -2.609  0.00  0.00    +0.155 HD
BRANCH  18  21
ATOM     21  C   UNL     1      -6.092  -1.018  -3.872  0.00  0.00    +0.101 C 
ATOM     22  C   UNL     1      -5.211  -0.939  -5.140  0.00  0.00    +0.110 C 
ATOM     23  C   UNL     1      -6.066  -1.555  -6.226  0.00  0.00    +0.217 C 
ATOM     24  O   UNL     1      -5.867  -1.439  -7.416  0.00  0.00    -0.276 OA
ATOM     25  N   UNL     1      -7.079  -2.250  -5.678  0.00  0.00    -0.292 N 
ATOM     26  C   UNL     1      -7.028  -2.199  -4.212  0.00  0.00    +0.121 C 
BRANCH  25  27
ATOM     27  C   UNL     1      -8.101  -2.965  -6.446  0.00  0.00    +0.221 C 
BRANCH  27  28
ATOM     28  C   UNL     1      -7.636  -4.401  -6.700  0.00  0.00    +0.405 C 
ATOM     29  F   UNL     1      -7.433  -5.049  -5.477  0.00  0.00    -0.169 F 
ATOM     30  F   UNL     1      -8.612  -5.084  -7.433  0.00  0.00    -0.169 F 
ATOM     31  F   UNL     1      -6.438  -4.382  -7.422  0.00  0.00    -0.169 F 
ENDBRANCH  27  28
ENDBRANCH  25  27
ENDBRANCH  18  21
ENDBRANCH   5  17
TORSDOF 5
