REMARK  Name = ZINC51697381
REMARK  5 active torsions:
REMARK  status: ('A' for Active; 'I' for Inactive)
REMARK    1  A    between atoms: C_1  and  O_2
REMARK    2  A    between atoms: O_2  and  C_3
REMARK    3  A    between atoms: C_3  and  C_4
REMARK    4  A    between atoms: C_6  and  N_17
REMARK    5  A    between atoms: C_8  and  C_10
REMARK                            x       y       z     vdW  Elec       q    Type
REMARK                         _______ _______ _______ _____ _____    ______ ____
ROOT
ATOM      1  C   UNL     1      -1.156  -2.103   0.002  0.00  0.00    +0.072 A 
ATOM      2  C   UNL     1       0.096  -2.689  -0.007  0.00  0.00    +0.069 A 
ATOM      3  C   UNL     1       0.180  -4.083  -0.015  0.00  0.00    +0.120 A 
ATOM      4  N   UNL     1      -0.940  -4.797  -0.014  0.00  0.00    -0.213 NA
ATOM      5  C   UNL     1      -2.122  -4.197  -0.005  0.00  0.00    +0.162 A 
ATOM      6  N   UNL     1      -2.232  -2.875   0.008  0.00  0.00    -0.230 NA
ENDROOT
BRANCH   5   7
ATOM      7  C   UNL     1      -3.353  -5.024  -0.003  0.00  0.00    +0.019 A 
ATOM      8  C   UNL     1      -4.606  -4.414   0.000  0.00  0.00    +0.012 A 
ATOM      9  C   UNL     1      -5.748  -5.188   0.002  0.00  0.00    +0.016 A 
ATOM     10  C   UNL     1      -5.651  -6.569  -0.001  0.00  0.00    +0.018 A 
ATOM     11  C   UNL     1      -4.409  -7.180  -0.004  0.00  0.00    +0.016 A 
ATOM     12  C   UNL     1      -3.261  -6.415  -0.011  0.00  0.00    +0.012 A 
ATOM     13 BR   UNL     1      -7.220  -7.624   0.002  0.00  0.00    -0.050 Br
ENDBRANCH   5   7
BRANCH   3  14
ATOM     14  N   UNL     1       1.415  -4.713  -0.025  0.00  0.00    -0.343 N 
ATOM     15  H   UNL     1       2.228  -4.185  -0.027  0.00  0.00    +0.144 HD
ATOM     16  H   UNL     1       1.465  -5.681  -0.031  0.00  0.00    +0.144 HD
ENDBRANCH   3  14
BRANCH   1  17
ATOM     17  C   UNL     1      -1.295  -0.603   0.011  0.00  0.00    +0.214 C 
BRANCH  17  19
ATOM     18  C   UNL     1      -0.017   1.425   0.010  0.00  0.00    +0.194 C 
ATOM     19  O   UNL     1       0.002  -0.004   0.002  0.00  0.00    -0.377 OA
ENDBRANCH  17  19
ENDBRANCH   1  17
TORSDOF 4
