REMARK  Name = ZINC58055100
REMARK  5 active torsions:
REMARK  status: ('A' for Active; 'I' for Inactive)
REMARK    1  A    between atoms: C_4  and  C_7
REMARK    2  A    between atoms: N_19  and  C_20
REMARK    3  A    between atoms: C_20  and  C_21
REMARK    4  A    between atoms: C_21  and  C_23
REMARK    5  A    between atoms: C_21  and  N_28
REMARK                            x       y       z     vdW  Elec       q    Type
REMARK                         _______ _______ _______ _____ _____    ______ ____
ROOT
ATOM      1  C   UNL     1       3.075  -3.159   0.277  0.00  0.00    +0.139 C 
ATOM      2  C   UNL     1       1.796  -2.611  -0.352  0.00  0.00    -0.012 A 
ATOM      3  C   UNL     1       0.734  -3.421  -0.752  0.00  0.00    +0.013 A 
ATOM      4  C   UNL     1      -0.368  -2.867  -1.307  0.00  0.00    +0.046 A 
ATOM      5  S   UNL     1       0.047  -1.129  -1.292  0.00  0.00    -0.101 S 
ATOM      6  C   UNL     1       1.651  -1.273  -0.548  0.00  0.00    -0.003 A 
ATOM      7  C   UNL     1       2.617  -0.185  -0.209  0.00  0.00    +0.062 C 
ATOM      8  C   UNL     1       3.998  -0.812   0.036  0.00  0.00    +0.115 C 
ATOM      9  N   UNL     1       3.818  -2.026   0.847  0.00  0.00    -0.274 N 
ATOM     10  C   UNL     1       4.324  -2.099   2.094  0.00  0.00    +0.303 C 
ATOM     11  O   UNL     1       4.856  -1.125   2.591  0.00  0.00    -0.253 OA
ATOM     12  N   UNL     1       4.240  -3.250   2.789  0.00  0.00    -0.300 N 
ATOM     13  H   UNL     1       3.882  -4.047   2.367  0.00  0.00    +0.150 HD
ENDROOT
BRANCH   1  17
ATOM     14  C   UNL     1       5.444  -5.088  -2.710  0.00  0.00    +0.000 A 
ATOM     15  C   UNL     1       5.089  -5.771  -1.561  0.00  0.00    +0.000 A 
ATOM     16  C   UNL     1       4.323  -5.146  -0.595  0.00  0.00    +0.006 A 
ATOM     17  C   UNL     1       3.912  -3.839  -0.776  0.00  0.00    -0.023 A 
ATOM     18  C   UNL     1       4.267  -3.156  -1.924  0.00  0.00    +0.006 A 
ATOM     19  C   UNL     1       5.032  -3.781  -2.892  0.00  0.00    +0.000 A 
ENDBRANCH   1  17
BRANCH  12  20
ATOM     20  C   UNL     1       4.689  -3.298   4.183  0.00  0.00    +0.098 C 
BRANCH  20  21
ATOM     21  C   UNL     1       4.368  -4.672   4.775  0.00  0.00    +0.016 C 
BRANCH  21  22
ATOM     22  N   UNL     1       4.915  -4.759   6.136  0.00  0.00    +0.387 N 
ATOM     23  C   UNL     1       4.766  -6.141   6.660  0.00  0.00    -0.078 C 
ATOM     24  C   UNL     1       5.837  -6.213   7.777  0.00  0.00    -0.020 C 
ATOM     25  C   UNL     1       7.009  -5.396   7.185  0.00  0.00    -0.020 C 
ATOM     26  C   UNL     1       6.369  -4.488   6.119  0.00  0.00    -0.078 C 
ATOM     27  H   UNL     1       4.446  -4.103   6.742  0.00  0.00    -0.081 HD
ENDBRANCH  21  22
BRANCH  21  28
ATOM     28  C   UNL     1       2.874  -4.864   4.821  0.00  0.00    +0.093 A 
ATOM     29  C   UNL     1       2.144  -5.569   3.939  0.00  0.00    +0.043 A 
ATOM     30  C   UNL     1       0.797  -5.484   4.360  0.00  0.00    +0.041 A 
ATOM     31  C   UNL     1       0.785  -4.731   5.475  0.00  0.00    +0.195 A 
ATOM     32  O   UNL     1       2.046  -4.363   5.752  0.00  0.00    -0.469 OA
ENDBRANCH  21  28
ENDBRANCH  20  21
ENDBRANCH  12  20
TORSDOF 5
