REMARK  Name = ZINC57570573
REMARK  4 active torsions:
REMARK  status: ('A' for Active; 'I' for Inactive)
REMARK    1  A    between atoms: C_1  and  O_2
REMARK    2  A    between atoms: O_2  and  C_3
REMARK    3  A    between atoms: C_6  and  N_9
REMARK    4  A    between atoms: C_10  and  C_16
REMARK                            x       y       z     vdW  Elec       q    Type
REMARK                         _______ _______ _______ _____ _____    ______ ____
ROOT
ATOM      1  N   UNL     1      -4.891  -2.581   0.036  0.00  0.00    -0.246 N 
ATOM      2  C   UNL     1      -5.088  -4.035  -0.062  0.00  0.00    +0.137 C 
ATOM      3  C   UNL     1      -6.619  -4.204  -0.004  0.00  0.00    +0.134 C 
ATOM      4  N   UNL     1      -7.121  -2.828   0.122  0.00  0.00    -0.297 N 
ATOM      5  C   UNL     1      -6.083  -1.981   0.142  0.00  0.00    +0.307 C 
ATOM      6  O   UNL     1      -6.212  -0.776   0.244  0.00  0.00    -0.252 OA
ATOM      7  H   UNL     1      -8.055  -2.574   0.184  0.00  0.00    +0.150 HD
ENDROOT
BRANCH   1  11
ATOM      8  C   UNL     1      -1.201  -0.638   0.010  0.00  0.00    +0.120 A 
ATOM      9  C   UNL     1      -2.374   0.102   0.002  0.00  0.00    +0.047 A 
ATOM     10  C   UNL     1      -3.596  -0.541   0.010  0.00  0.00    +0.027 A 
ATOM     11  C   UNL     1      -3.651  -1.928   0.027  0.00  0.00    +0.039 A 
ATOM     12  C   UNL     1      -2.476  -2.668   0.035  0.00  0.00    +0.027 A 
ATOM     13  C   UNL     1      -1.254  -2.024   0.021  0.00  0.00    +0.047 A 
BRANCH   8  15
ATOM     14  C   UNL     1      -0.017   1.425  -0.009  0.00  0.00    +0.277 C 
ATOM     15  O   UNL     1       0.002  -0.004   0.002  0.00  0.00    -0.495 OA
ENDBRANCH   8  15
ENDBRANCH   1  11
BRANCH   2  16
ATOM     16  C   UNL     1      -4.545  -4.556  -1.368  0.00  0.00    +0.012 A 
ATOM     17  C   UNL     1      -3.865  -5.702  -1.614  0.00  0.00    +0.013 A 
ATOM     18  C   UNL     1      -3.461  -5.978  -2.906  0.00  0.00    +0.008 A 
ATOM     19  C   UNL     1      -3.756  -5.093  -3.890  0.00  0.00    +0.045 A 
ATOM     20  S   UNL     1      -4.638  -3.826  -2.995  0.00  0.00    -0.100 S 
ENDBRANCH   2  16
TORSDOF 3
