REMARK  Name = ZINC09972642
REMARK  9 active torsions:
REMARK  status: ('A' for Active; 'I' for Inactive)
REMARK    1  A    between atoms: C_1  and  C_2
REMARK    2  A    between atoms: C_2  and  C_31
REMARK    3  A    between atoms: C_7  and  C_9
REMARK    4  A    between atoms: C_11  and  O_16
REMARK    5  A    between atoms: C_14  and  O_15
REMARK    6  A    between atoms: O_16  and  C_17
REMARK    7  A    between atoms: N_20  and  C_23
REMARK    8  A    between atoms: C_28  and  O_29
REMARK    9  A    between atoms: O_29  and  C_30
REMARK                            x       y       z     vdW  Elec       q    Type
REMARK                         _______ _______ _______ _____ _____    ______ ____
ROOT
ATOM      1  C   UNL     1      -1.658   7.430   0.482  0.00  0.00    +0.002 C 
ATOM      2  C   UNL     1      -2.592   6.226   0.623  0.00  0.00    +0.045 C 
ATOM      3  C   UNL     1      -2.221   5.397   1.829  0.00  0.00    +0.086 C 
ATOM      4  C   UNL     1      -3.015   4.086   1.443  0.00  0.00    +0.077 C 
ATOM      5  C   UNL     1      -2.557   3.875   0.046  0.00  0.00    -0.023 C 
ATOM      6  C   UNL     1      -2.851   3.331   2.683  0.00  0.00    +0.229 C 
ATOM      7  O   UNL     1      -2.705   2.134   2.805  0.00  0.00    -0.275 OA
ATOM      8  N   UNL     1      -2.897   4.275   3.679  0.00  0.00    -0.206 N 
ATOM      9  C   UNL     1      -2.753   5.551   3.201  0.00  0.00    +0.229 C 
ATOM     10  O   UNL     1      -3.008   6.586   3.778  0.00  0.00    -0.275 OA
ATOM     11  N   UNL     1      -2.393   5.255  -0.495  0.00  0.00    +0.395 N 
ATOM     12  H   UNL     1      -1.450   5.364  -0.886  0.00  0.00    -0.083 HD
ATOM     13  H   UNL     1      -3.090   5.424  -1.230  0.00  0.00    -0.083 HD
ENDROOT
BRANCH   5  14
ATOM     14  C   UNL     1      -1.242   3.140   0.030  0.00  0.00    -0.016 A 
ATOM     15  C   UNL     1      -0.055   3.847   0.023  0.00  0.00    +0.051 A 
ATOM     16  C   UNL     1       1.155   3.170   0.008  0.00  0.00    +0.121 A 
ATOM     17  C   UNL     1       1.174   1.783   0.000  0.00  0.00    +0.049 A 
ATOM     18  C   UNL     1      -0.013   1.076   0.008  0.00  0.00    +0.049 A 
ATOM     19  C   UNL     1      -1.223   1.753   0.017  0.00  0.00    +0.119 A 
BRANCH  19  20
ATOM     20  O   UNL     1      -2.392   1.057   0.019  0.00  0.00    -0.507 OA
ATOM     21  H   UNL     1      -2.725   0.851   0.903  0.00  0.00    +0.292 HD
ENDBRANCH  19  20
BRANCH  16  22
ATOM     22  O   UNL     1       2.323   3.865   0.001  0.00  0.00    -0.495 OA
ATOM     23  C   UNL     1       3.532   3.104  -0.015  0.00  0.00    +0.277 C 
ENDBRANCH  16  22
ENDBRANCH   5  14
BRANCH   8  24
ATOM     24  C   UNL     1      -3.072   3.966   5.037  0.00  0.00    +0.085 A 
ATOM     25  C   UNL     1      -4.348   3.897   5.575  0.00  0.00    +0.027 A 
ATOM     26  C   UNL     1      -4.519   3.594   6.912  0.00  0.00    +0.002 A 
ATOM     27  C   UNL     1      -3.419   3.358   7.716  0.00  0.00    +0.004 A 
ATOM     28  C   UNL     1      -2.144   3.426   7.187  0.00  0.00    +0.047 A 
ATOM     29  C   UNL     1      -1.965   3.724   5.846  0.00  0.00    +0.142 A 
BRANCH  29  30
ATOM     30  O   UNL     1      -0.712   3.785   5.322  0.00  0.00    -0.493 OA
ATOM     31  C   UNL     1       0.376   3.525   6.212  0.00  0.00    +0.277 C 
ENDBRANCH  29  30
ENDBRANCH   8  24
BRANCH   2  32
ATOM     32  C   UNL     1      -4.029   6.672   0.696  0.00  0.00    +0.346 C 
ATOM     33  O   UNL     1      -4.549   6.862   1.770  0.00  0.00    -0.248 OA
ATOM     34  O   UNL     1      -4.733   6.857  -0.432  0.00  0.00    -0.248 OA
ENDBRANCH   2  32
TORSDOF 6
