REMARK  Name = ZINC43876559
REMARK  10 active torsions:
REMARK  status: ('A' for Active; 'I' for Inactive)
REMARK    1  A    between atoms: C_1  and  C_2
REMARK    2  A    between atoms: C_2  and  O_3
REMARK    3  A    between atoms: O_3  and  C_4
REMARK    4  A    between atoms: C_9  and  O_10
REMARK    5  A    between atoms: O_10  and  C_11
REMARK    6  A    between atoms: C_11  and  C_12
REMARK    7  A    between atoms: N_14  and  N_15
REMARK    8  A    between atoms: N_18  and  C_19
REMARK    9  A    between atoms: C_19  and  C_21
REMARK   10  A    between atoms: C_19  and  C_22
REMARK                            x       y       z     vdW  Elec       q    Type
REMARK                         _______ _______ _______ _____ _____    ______ ____
ROOT
ATOM      1  N   UNL     1       4.207  -0.354  -7.437  0.00  0.00    -0.218 N 
ATOM      2  C   UNL     1       4.852  -0.690  -8.572  0.00  0.00    +0.316 C 
ATOM      3  O   UNL     1       5.264   0.178  -9.317  0.00  0.00    -0.251 OA
ATOM      4  N   UNL     1       5.040  -1.988  -8.881  0.00  0.00    -0.289 N 
ATOM      5  H   UNL     1       4.072   0.580  -7.214  0.00  0.00    +0.174 HD
ATOM      6  H   UNL     1       4.712  -2.681  -8.287  0.00  0.00    +0.151 HD
ENDROOT
BRANCH   1   9
ATOM      7  C   UNL     1       3.088  -1.019  -5.443  0.00  0.00    +0.267 C 
ATOM      8  O   UNL     1       2.919   0.150  -5.165  0.00  0.00    -0.271 OA
ATOM      9  N   UNL     1       3.733  -1.355  -6.578  0.00  0.00    -0.230 N 
ATOM     10  H   UNL     1       3.868  -2.289  -6.801  0.00  0.00    +0.173 HD
BRANCH   7  11
ATOM     11  C   UNL     1       2.578  -2.095  -4.520  0.00  0.00    +0.326 C 
BRANCH  11  12
ATOM     12  O   UNL     1       1.936  -1.492  -3.394  0.00  0.00    -0.479 OA
BRANCH  12  18
ATOM     13  C   UNL     1       0.777  -1.811  -1.336  0.00  0.00    +0.162 A 
ATOM     14  C   UNL     1       0.243  -2.669  -0.388  0.00  0.00    +0.049 A 
ATOM     15  C   UNL     1       0.352  -4.037  -0.555  0.00  0.00    +0.004 A 
ATOM     16  C   UNL     1       0.992  -4.552  -1.667  0.00  0.00    +0.004 A 
ATOM     17  C   UNL     1       1.526  -3.702  -2.616  0.00  0.00    +0.049 A 
ATOM     18  C   UNL     1       1.416  -2.330  -2.458  0.00  0.00    +0.163 A 
BRANCH  13  19
ATOM     19  O   UNL     1       0.671  -0.465  -1.174  0.00  0.00    -0.489 OA
BRANCH  19  21
ATOM     20  C   UNL     1      -0.019   1.526   0.010  0.00  0.00    +0.048 C 
ATOM     21  C   UNL     1       0.002  -0.004   0.002  0.00  0.00    +0.226 C 
ENDBRANCH  19  21
ENDBRANCH  13  19
ENDBRANCH  12  18
ENDBRANCH  11  12
ENDBRANCH   7  11
ENDBRANCH   1   9
BRANCH   4  22
ATOM     22  C   UNL     1       5.741  -2.353 -10.114  0.00  0.00    +0.137 C 
ATOM     23  C   UNL     1       7.250  -2.346  -9.865  0.00  0.00    +0.036 C 
BRANCH  22  24
ATOM     24  C   UNL     1       5.310  -3.731 -10.548  0.00  0.00    +0.126 A 
ATOM     25  C   UNL     1       5.085  -4.101 -11.816  0.00  0.00    +0.055 A 
ATOM     26  C   UNL     1       4.691  -5.514 -11.766  0.00  0.00    +0.020 A 
ATOM     27  C   UNL     1       4.332  -6.460 -12.725  0.00  0.00    +0.011 A 
ATOM     28  C   UNL     1       4.010  -7.731 -12.336  0.00  0.00    +0.001 A 
ATOM     29  C   UNL     1       4.038  -8.083 -10.994  0.00  0.00    +0.004 A 
ATOM     30  C   UNL     1       4.390  -7.161 -10.032  0.00  0.00    +0.047 A 
ATOM     31  C   UNL     1       4.721  -5.864 -10.406  0.00  0.00    +0.135 A 
ATOM     32  O   UNL     1       5.102  -4.769  -9.719  0.00  0.00    -0.458 OA
ENDBRANCH  22  24
ENDBRANCH   4  22
TORSDOF 8
