REMARK  Name = ZINC39637542
REMARK  6 active torsions:
REMARK  status: ('A' for Active; 'I' for Inactive)
REMARK    1  A    between atoms: C_1  and  C_2
REMARK    2  A    between atoms: C_7  and  N_12
REMARK    3  A    between atoms: C_9  and  C_11
REMARK    4  A    between atoms: C_13  and  C_15
REMARK    5  A    between atoms: C_26  and  C_28
REMARK    6  A    between atoms: N_32  and  C_33
REMARK                            x       y       z     vdW  Elec       q    Type
REMARK                         _______ _______ _______ _____ _____    ______ ____
ROOT
ATOM      1  C   UNL     1      -2.037  -3.915   2.291  0.00  0.00    +0.100 C 
ATOM      2  C   UNL     1      -3.080  -3.342   3.276  0.00  0.00    +0.121 C 
ATOM      3  N   UNL     1      -4.032  -4.455   3.502  0.00  0.00    -0.295 N 
ATOM      4  C   UNL     1      -3.177  -5.665   3.569  0.00  0.00    +0.115 C 
ATOM      5  C   UNL     1      -2.103  -5.439   2.487  0.00  0.00    -0.004 C 
ATOM      6  C   UNL     1      -0.754  -5.969   2.964  0.00  0.00    -0.010 C 
ATOM      7  C   UNL     1      -0.828  -7.493   3.095  0.00  0.00    -0.082 C 
ATOM      8  N   UNL     1      -1.176  -8.082   1.797  0.00  0.00    +0.379 N 
ATOM      9  C   UNL     1      -2.515  -7.639   1.389  0.00  0.00    -0.082 C 
ATOM     10  C   UNL     1      -2.513  -6.122   1.185  0.00  0.00    -0.010 C 
ATOM     11  C   UNL     1      -5.373  -4.385   3.618  0.00  0.00    +0.265 C 
ATOM     12  O   UNL     1      -6.003  -5.355   3.994  0.00  0.00    -0.268 OA
ATOM     13  H   UNL     1      -0.502  -7.791   1.105  0.00  0.00    -0.086 HD
ATOM     14  H   UNL     1      -1.164  -9.088   1.871  0.00  0.00    -0.086 HD
ENDROOT
BRANCH  11  15
ATOM     15  C   UNL     1      -6.073  -3.137   3.291  0.00  0.00    +0.124 A 
ATOM     16  C   UNL     1      -5.581  -2.086   2.570  0.00  0.00    +0.143 A 
ATOM     17  N   UNL     1      -6.534  -1.155   2.503  0.00  0.00    -0.243 NA
ATOM     18  C   UNL     1      -7.597  -1.567   3.144  0.00  0.00    +0.199 A 
ATOM     19  N   UNL     1      -7.363  -2.793   3.647  0.00  0.00    -0.330 N 
ATOM     20  C   UNL     1      -8.298  -3.608   4.426  0.00  0.00    +0.150 C 
ENDBRANCH  11  15
BRANCH   1  22
ATOM     21  N   UNL     1       0.239  -3.193   1.646  0.00  0.00    -0.312 N 
ATOM     22  C   UNL     1      -0.660  -3.402   2.627  0.00  0.00    +0.218 C 
ATOM     23  O   UNL     1      -0.362  -3.177   3.781  0.00  0.00    -0.275 OA
ATOM     24  H   UNL     1       0.001  -3.373   0.723  0.00  0.00    +0.149 HD
BRANCH  21  30
ATOM     25  C   UNL     1       2.841  -2.219  -1.633  0.00  0.00    +0.008 C 
ATOM     26  C   UNL     1       2.255  -2.943  -0.419  0.00  0.00    -0.009 C 
ATOM     27  C   UNL     1       3.159  -4.118  -0.041  0.00  0.00    +0.003 C 
ATOM     28  C   UNL     1       2.574  -4.842   1.173  0.00  0.00    +0.002 C 
ATOM     29  C   UNL     1       2.482  -3.869   2.351  0.00  0.00    +0.022 C 
ATOM     30  C   UNL     1       1.578  -2.694   1.973  0.00  0.00    +0.076 C 
ATOM     31  C   UNL     1       2.163  -1.971   0.758  0.00  0.00    +0.009 C 
ATOM     32  C   UNL     1       1.259  -0.796   0.380  0.00  0.00    +0.009 C 
ENDBRANCH  21  30
ENDBRANCH   1  22
TORSDOF 3
