REMARK  Name = ZINC48421550
REMARK  5 active torsions:
REMARK  status: ('A' for Active; 'I' for Inactive)
REMARK    1  A    between atoms: C_1  and  C_2
REMARK    2  A    between atoms: C_2  and  C_4
REMARK    3  A    between atoms: C_2  and  N_13
REMARK    4  A    between atoms: C_14  and  C_16
REMARK    5  A    between atoms: C_16  and  N_17
REMARK                            x       y       z     vdW  Elec       q    Type
REMARK                         _______ _______ _______ _____ _____    ______ ____
ROOT
ATOM      1  N   UNL     1       0.711  -0.489   1.189  0.00  0.00    -0.304 N 
ATOM      2  C   UNL     1       0.051  -0.633   2.355  0.00  0.00    +0.231 C 
ATOM      3  O   UNL     1      -1.129  -0.361   2.423  0.00  0.00    -0.274 OA
ATOM      4  H   UNL     1       1.654  -0.707   1.135  0.00  0.00    +0.149 HD
ENDROOT
BRANCH   1   6
ATOM      5  C   UNL     1      -0.019   1.526   0.010  0.00  0.00    +0.036 C 
ATOM      6  C   UNL     1       0.002  -0.004   0.002  0.00  0.00    +0.136 C 
BRANCH   6   7
ATOM      7  C   UNL     1       0.707  -0.490  -1.238  0.00  0.00    +0.126 A 
ATOM      8  C   UNL     1       0.096  -0.923  -2.349  0.00  0.00    +0.055 A 
ATOM      9  C   UNL     1       1.163  -1.291  -3.287  0.00  0.00    +0.020 A 
ATOM     10  C   UNL     1       1.188  -1.799  -4.585  0.00  0.00    +0.011 A 
ATOM     11  C   UNL     1       2.387  -2.040  -5.196  0.00  0.00    +0.001 A 
ATOM     12  C   UNL     1       3.578  -1.783  -4.531  0.00  0.00    +0.004 A 
ATOM     13  C   UNL     1       3.573  -1.281  -3.248  0.00  0.00    +0.047 A 
ATOM     14  C   UNL     1       2.365  -1.028  -2.609  0.00  0.00    +0.135 A 
ATOM     15  O   UNL     1       2.042  -0.547  -1.392  0.00  0.00    -0.458 OA
ENDBRANCH   6   7
ENDBRANCH   1   6
BRANCH   2  16
ATOM     16  C   UNL     1       0.780  -1.133   3.576  0.00  0.00    +0.201 C 
BRANCH  16  17
ATOM     17  N   UNL     1      -0.150  -1.201   4.706  0.00  0.00    -0.291 N 
ATOM     18  C   UNL     1       0.283  -1.623   5.911  0.00  0.00    +0.297 C 
ATOM     19  O   UNL     1       1.446  -1.947   6.059  0.00  0.00    -0.253 OA
ATOM     20  N   UNL     1      -0.572  -1.686   6.950  0.00  0.00    -0.313 N 
ATOM     21  H   UNL     1      -1.077  -0.942   4.588  0.00  0.00    +0.151 HD
ATOM     22  H   UNL     1      -1.500  -1.427   6.832  0.00  0.00    +0.146 HD
ATOM     23  H   UNL     1      -0.261  -1.990   7.817  0.00  0.00    +0.146 HD
ENDBRANCH  16  17
ENDBRANCH   2  16
TORSDOF 4
