REMARK  Name = ZINC18250016
REMARK  6 active torsions:
REMARK  status: ('A' for Active; 'I' for Inactive)
REMARK    1  A    between atoms: C_1  and  C_2
REMARK    2  A    between atoms: C_5  and  C_7
REMARK    3  A    between atoms: C_7  and  C_9
REMARK    4  A    between atoms: C_10  and  N_11
REMARK    5  A    between atoms: N_11  and  C_12
REMARK    6  A    between atoms: C_16  and  N_18
REMARK                            x       y       z     vdW  Elec       q    Type
REMARK                         _______ _______ _______ _____ _____    ______ ____
ROOT
ATOM      1  N   UNL     1       5.252  -3.859  -0.047  0.00  0.00    -0.320 N 
ATOM      2  H   UNL     1       5.607  -2.956  -0.043  0.00  0.00    +0.152 HD
ENDROOT
BRANCH   1   3
ATOM      3  C   UNL     1       6.123  -4.952  -0.058  0.00  0.00    +0.033 A 
ATOM      4  C   UNL     1       5.617  -6.246  -0.069  0.00  0.00    +0.023 A 
ATOM      5  C   UNL     1       6.481  -7.323  -0.080  0.00  0.00    +0.004 A 
ATOM      6  C   UNL     1       7.848  -7.115  -0.079  0.00  0.00    +0.033 A 
ATOM      7  C   UNL     1       8.355  -5.829  -0.068  0.00  0.00    +0.128 A 
ATOM      8  C   UNL     1       7.497  -4.747  -0.064  0.00  0.00    +0.056 A 
BRANCH   7   9
ATOM      9  N   UNL     1       9.819  -5.612  -0.066  0.00  0.00    +0.056 N 
ATOM     10  O   UNL     1      10.571  -6.558  -0.075  0.00  0.00    -0.126 OA
ATOM     11  O   UNL     1      10.264  -4.487  -0.056  0.00  0.00    -0.126 OA
ENDBRANCH   7   9
ENDBRANCH   1   3
BRANCH   1  13
ATOM     12  C   UNL     1       3.058  -3.007  -0.031  0.00  0.00    +0.070 C 
ATOM     13  C   UNL     1       3.900  -4.063  -0.042  0.00  0.00    +0.076 C 
BRANCH  12  14
ATOM     14  C   UNL     1       1.658  -3.218  -0.025  0.00  0.00    +0.222 C 
ATOM     15  O   UNL     1       1.212  -4.353  -0.030  0.00  0.00    -0.284 OA
BRANCH  14  20
ATOM     16  C   UNL     1      -0.018   1.503   0.010  0.00  0.00    +0.086 C 
ATOM     17  C   UNL     1       0.002  -0.004   0.002  0.00  0.00    +0.103 A 
ATOM     18  C   UNL     1      -1.085  -0.806   0.003  0.00  0.00    +0.045 A 
ATOM     19  C   UNL     1      -0.622  -2.131  -0.007  0.00  0.00    +0.053 A 
ATOM     20  C   UNL     1       0.742  -2.070  -0.014  0.00  0.00    +0.175 A 
ATOM     21  O   UNL     1       1.102  -0.770  -0.013  0.00  0.00    -0.457 OA
ENDBRANCH  14  20
ENDBRANCH  12  14
ENDBRANCH   1  13
TORSDOF 5
