REMARK  Name = ZINC66195686
REMARK  11 active torsions:
REMARK  status: ('A' for Active; 'I' for Inactive)
REMARK    1  A    between atoms: C_1  and  C_2
REMARK    2  A    between atoms: C_2  and  C_3
REMARK    3  A    between atoms: C_3  and  C_5
REMARK    4  A    between atoms: C_3  and  N_6
REMARK    5  A    between atoms: N_6  and  C_7
REMARK    6  A    between atoms: N_6  and  C_8
REMARK    7  A    between atoms: C_8  and  C_9
REMARK    8  A    between atoms: C_9  and  N_10
REMARK    9  A    between atoms: C_17  and  C_20
REMARK   10  A    between atoms: N_22  and  C_23
REMARK   11  A    between atoms: C_23  and  C_24
REMARK                            x       y       z     vdW  Elec       q    Type
REMARK                         _______ _______ _______ _____ _____    ______ ____
ROOT
ATOM      1  N   UNL     1      -5.553  -0.800  -2.004  0.00  0.00    -0.301 N 
ATOM      2  C   UNL     1      -6.441  -0.689  -3.011  0.00  0.00    +0.302 C 
ATOM      3  O   UNL     1      -6.086  -0.256  -4.090  0.00  0.00    -0.253 OA
ATOM      4  N   UNL     1      -7.724  -1.058  -2.821  0.00  0.00    -0.285 N 
ATOM      5  C   UNL     1      -8.196  -1.471  -1.493  0.00  0.00    +0.109 C 
ATOM      6  C   UNL     1      -9.424  -0.633  -1.123  0.00  0.00    +0.020 C 
ATOM      7  C   UNL     1     -10.474  -0.759  -2.230  0.00  0.00    +0.016 C 
ATOM      8  C   UNL     1      -9.900  -0.222  -3.543  0.00  0.00    +0.092 C 
ATOM      9  C   UNL     1      -8.678  -1.048  -3.939  0.00  0.00    +0.122 C 
ATOM     10  H   UNL     1      -5.817  -1.214  -1.167  0.00  0.00    +0.150 HD
ENDROOT
BRANCH   8  11
ATOM     11  C   UNL     1     -10.945  -0.315  -4.625  0.00  0.00    +0.218 C 
ATOM     12  O   UNL     1     -12.041  -0.767  -4.371  0.00  0.00    -0.275 OA
ATOM     13  N   UNL     1     -10.661   0.104  -5.874  0.00  0.00    -0.315 N 
ATOM     14  H   UNL     1      -9.784   0.465  -6.077  0.00  0.00    +0.149 HD
BRANCH  13  15
ATOM     15  C   UNL     1     -11.678   0.013  -6.926  0.00  0.00    +0.107 C 
BRANCH  15  16
ATOM     16  C   UNL     1     -11.103   0.550  -8.238  0.00  0.00    +0.006 C 
ATOM     17  C   UNL     1     -11.755   1.798  -8.836  0.00  0.00    +0.005 C 
ATOM     18  C   UNL     1     -11.974   0.433  -9.491  0.00  0.00    +0.005 C 
ENDBRANCH  15  16
ENDBRANCH  13  15
ENDBRANCH   8  11
BRANCH   1  19
ATOM     19  C   UNL     1      -4.187  -0.297  -2.173  0.00  0.00    +0.087 C 
BRANCH  19  20
ATOM     20  C   UNL     1      -3.390  -0.545  -0.891  0.00  0.00    -0.060 C 
BRANCH  20  21
ATOM     21  N   UNL     1      -2.021  -0.041  -1.060  0.00  0.00    +0.381 N 
ATOM     22  C   UNL     1      -2.053   1.419  -1.221  0.00  0.00    -0.096 C 
ATOM     23  H   UNL     1      -1.607  -0.460  -1.880  0.00  0.00    -0.082 HD
BRANCH  21  24
ATOM     24  C   UNL     1      -1.222  -0.385   0.123  0.00  0.00    -0.072 C 
ATOM     25  C   UNL     1      -1.927   0.125   1.381  0.00  0.00    -0.013 C 
BRANCH  24  27
ATOM     26  C   UNL     1      -0.244  -2.400  -0.986  0.00  0.00    +0.002 C 
ATOM     27  C   UNL     1      -1.064  -1.905   0.207  0.00  0.00    -0.019 C 
ENDBRANCH  24  27
ENDBRANCH  21  24
ENDBRANCH  20  21
ENDBRANCH  19  20
ENDBRANCH   1  19
TORSDOF 8
