REMARK  Name = ZINC36056931
REMARK  12 active torsions:
REMARK  status: ('A' for Active; 'I' for Inactive)
REMARK    1  A    between atoms: C_1  and  C_2
REMARK    2  A    between atoms: C_8  and  C_12
REMARK    3  A    between atoms: C_12  and  C_13
REMARK    4  A    between atoms: C_13  and  N_14
REMARK    5  A    between atoms: N_14  and  C_15
REMARK    6  A    between atoms: C_15  and  C_16
REMARK    7  A    between atoms: C_16  and  C_18
REMARK    8  A    between atoms: C_16  and  O_39
REMARK    9  A    between atoms: C_18  and  N_19
REMARK   10  A    between atoms: C_21  and  C_29
REMARK   11  A    between atoms: C_30  and  C_31
REMARK   12  A    between atoms: C_31  and  C_33
REMARK                            x       y       z     vdW  Elec       q    Type
REMARK                         _______ _______ _______ _____ _____    ______ ____
ROOT
ATOM      1  C   UNL     1      -3.436  -1.838   7.510  0.00  0.00    +0.115 C 
ENDROOT
BRANCH   1   2
ATOM      2  O   UNL     1      -3.022  -0.487   7.725  0.00  0.00    -0.392 OA
ATOM      3  H   UNL     1      -3.620   0.172   7.348  0.00  0.00    +0.210 HD
ENDBRANCH   1   2
BRANCH   1   4
ATOM      4  C   UNL     1      -3.522  -2.112   6.007  0.00  0.00    -0.049 C 
BRANCH   4   5
ATOM      5  N   UNL     1      -2.180  -2.019   5.415  0.00  0.00    +0.381 N 
ATOM      6  H   UNL     1      -1.574  -2.699   5.848  0.00  0.00    -0.086 HD
ATOM      7  H   UNL     1      -1.810  -1.093   5.568  0.00  0.00    -0.086 HD
BRANCH   5   8
ATOM      8  C   UNL     1      -2.263  -2.282   3.973  0.00  0.00    -0.078 C 
BRANCH   8   9
ATOM      9  C   UNL     1      -0.866  -2.184   3.356  0.00  0.00    +0.018 C 
BRANCH   9  17
ATOM     10  C   UNL     1      -2.154   1.993  -0.345  0.00  0.00    +0.044 C 
ATOM     11  C   UNL     1      -1.827   0.522  -0.348  0.00  0.00    -0.050 A 
ATOM     12  C   UNL     1      -1.789  -0.172  -1.550  0.00  0.00    +0.005 A 
ATOM     13  C   UNL     1      -1.493  -1.517  -1.575  0.00  0.00    +0.026 A 
ATOM     14  C   UNL     1      -1.228  -2.189  -0.386  0.00  0.00    +0.047 A 
ATOM     15  C   UNL     1      -1.268  -1.481   0.829  0.00  0.00    +0.003 A 
ATOM     16  C   UNL     1      -1.565  -0.116   0.831  0.00  0.00    +0.013 A 
ATOM     17  C   UNL     1      -0.950  -2.455   1.876  0.00  0.00    -0.024 A 
ATOM     18  C   UNL     1      -0.747  -3.634   1.267  0.00  0.00    +0.087 A 
ATOM     19  N   UNL     1      -0.909  -3.494  -0.085  0.00  0.00    -0.360 N 
ATOM     20  H   UNL     1      -0.814  -4.208  -0.734  0.00  0.00    +0.165 HD
ENDBRANCH   9  17
ENDBRANCH   8   9
ENDBRANCH   5   8
ENDBRANCH   4   5
ENDBRANCH   1   4
BRANCH   1  21
ATOM     21  C   UNL     1      -4.810  -2.057   8.148  0.00  0.00    +0.134 C 
BRANCH  21  22
ATOM     22  N   UNL     1      -4.728  -1.795   9.586  0.00  0.00    -0.325 N 
ATOM     23  C   UNL     1      -4.425  -2.712  10.545  0.00  0.00    +0.079 C 
ATOM     24  C   UNL     1      -4.611  -2.214  11.822  0.00  0.00    -0.006 C 
ATOM     25  C   UNL     1      -5.120  -0.851  11.703  0.00  0.00    -0.019 C 
ATOM     26  C   UNL     1      -5.667  -0.006  12.590  0.00  0.00    +0.006 C 
ATOM     27  C   UNL     1      -6.243   1.236  12.041  0.00  0.00    -0.004 C 
ATOM     28  C   UNL     1      -6.514   1.331  10.740  0.00  0.00    -0.025 C 
ATOM     29  C   UNL     1      -6.230   0.199   9.780  0.00  0.00    +0.054 C 
ATOM     30  C   UNL     1      -4.951  -0.505  10.230  0.00  0.00    +0.108 C 
BRANCH  24  31
ATOM     31  C   UNL     1      -4.352  -2.906  13.032  0.00  0.00    +0.013 C 
ATOM     32  C   UNL     1      -4.456  -2.255  14.222  0.00  0.00    +0.052 C 
BRANCH  32  33
ATOM     33  C   UNL     1      -4.347  -2.974  15.430  0.00  0.00    +0.186 C 
ATOM     34  O   UNL     1      -4.160  -4.178  15.408  0.00  0.00    -0.287 OA
BRANCH  33  35
ATOM     35  C   UNL     1      -4.459  -2.267  16.725  0.00  0.00    +0.022 A 
ATOM     36  C   UNL     1      -4.678  -0.889  16.754  0.00  0.00    +0.012 A 
ATOM     37  C   UNL     1      -4.782  -0.235  17.964  0.00  0.00    +0.001 A 
ATOM     38  C   UNL     1      -4.668  -0.943  19.148  0.00  0.00    +0.000 A 
ATOM     39  C   UNL     1      -4.450  -2.309  19.126  0.00  0.00    +0.001 A 
ATOM     40  C   UNL     1      -4.351  -2.975  17.922  0.00  0.00    +0.012 A 
ENDBRANCH  33  35
ENDBRANCH  32  33
ENDBRANCH  24  31
ENDBRANCH  21  22
ENDBRANCH   1  21
TORSDOF 11
