REMARK  Name = ZINC02092711
REMARK  10 active torsions:
REMARK  status: ('A' for Active; 'I' for Inactive)
REMARK    1  A    between atoms: C_1  and  C_2
REMARK    2  A    between atoms: C_2  and  C_4
REMARK    3  A    between atoms: C_2  and  N_10
REMARK    4  A    between atoms: C_11  and  C_13
REMARK    5  A    between atoms: N_26  and  C_29
REMARK    6  A    between atoms: C_27  and  N_28
REMARK    7  A    between atoms: C_29  and  C_30
REMARK    8  A    between atoms: C_30  and  C_31
REMARK    9  A    between atoms: C_34  and  O_37
REMARK   10  A    between atoms: O_37  and  C_38
REMARK                            x       y       z     vdW  Elec       q    Type
REMARK                         _______ _______ _______ _____ _____    ______ ____
ROOT
ATOM      1  C   UNL     1       1.313   2.090   0.009  0.00  0.00    +0.075 A 
ATOM      2  C   UNL     1       0.056   1.501  -0.002  0.00  0.00    +0.033 A 
ATOM      3  C   UNL     1      -0.050   0.103  -0.016  0.00  0.00    +0.083 A 
ATOM      4  C   UNL     1       1.106  -0.709  -0.020  0.00  0.00    +0.150 A 
ATOM      5  N   UNL     1       0.973  -2.029  -0.034  0.00  0.00    -0.211 NA
ATOM      6  C   UNL     1      -0.227  -2.611  -0.045  0.00  0.00    +0.143 A 
ATOM      7  C   UNL     1      -0.304  -4.016  -0.060  0.00  0.00    +0.047 A 
ATOM      8  C   UNL     1      -1.524  -4.623  -0.070  0.00  0.00    +0.005 A 
ATOM      9  C   UNL     1      -2.687  -3.840  -0.067  0.00  0.00    +0.018 A 
ATOM     10  C   UNL     1      -2.594  -2.491  -0.052  0.00  0.00    +0.096 A 
ATOM     11  N   UNL     1      -1.379  -1.875  -0.042  0.00  0.00    -0.268 N 
ATOM     12  C   UNL     1      -1.323  -0.524  -0.027  0.00  0.00    +0.268 A 
ATOM     13  O   UNL     1      -2.344   0.140  -0.023  0.00  0.00    -0.267 OA
ATOM     14  N   UNL     1       2.357  -0.142  -0.010  0.00  0.00    -0.313 N 
ATOM     15  C   UNL     1       2.505   1.228   0.005  0.00  0.00    +0.110 A 
ENDROOT
BRANCH   1  17
ATOM     16  N   UNL     1       0.357   4.329   0.143  0.00  0.00    -0.305 N 
ATOM     17  C   UNL     1       1.450   3.551   0.024  0.00  0.00    +0.248 C 
ATOM     18  O   UNL     1       2.552   4.059  -0.072  0.00  0.00    -0.270 OA
ATOM     19  H   UNL     1      -0.639   3.870   0.230  0.00  0.00    +0.150 HD
BRANCH  16  21
ATOM     20  C   UNL     1       0.804   6.257   1.581  0.00  0.00    +0.033 C 
ATOM     21  C   UNL     1       0.495   5.788   0.158  0.00  0.00    +0.100 C 
BRANCH  21  22
ATOM     22  C   UNL     1      -0.792   6.418  -0.310  0.00  0.00    -0.027 A 
ATOM     23  C   UNL     1      -2.005   5.888   0.086  0.00  0.00    +0.005 A 
ATOM     24  C   UNL     1      -3.185   6.469  -0.340  0.00  0.00    +0.000 A 
ATOM     25  C   UNL     1      -3.151   7.575  -1.169  0.00  0.00    +0.000 A 
ATOM     26  C   UNL     1      -1.938   8.102  -1.569  0.00  0.00    +0.000 A 
ATOM     27  C   UNL     1      -0.758   7.523  -1.140  0.00  0.00    +0.005 A 
ENDBRANCH  21  22
ENDBRANCH  16  21
ENDBRANCH   1  17
BRANCH  15  28
ATOM     28  N   UNL     1       3.701   1.760   0.015  0.00  0.00    -0.344 N 
ATOM     29  H   UNL     1       4.591   1.113   0.012  0.00  0.00    +0.144 HD
ATOM     30  H   UNL     1       3.816   2.854   0.026  0.00  0.00    +0.144 HD
ENDBRANCH  15  28
BRANCH  14  31
ATOM     31  C   UNL     1       3.544  -1.001  -0.015  0.00  0.00    +0.129 C 
BRANCH  31  32
ATOM     32  C   UNL     1       3.962  -1.285  -1.459  0.00  0.00    +0.057 C 
BRANCH  32  33
ATOM     33  C   UNL     1       5.183  -2.168  -1.464  0.00  0.00    -0.045 A 
ATOM     34  C   UNL     1       6.444  -1.602  -1.459  0.00  0.00    +0.007 A 
ATOM     35  C   UNL     1       7.565  -2.410  -1.458  0.00  0.00    +0.046 A 
ATOM     36  C   UNL     1       7.424  -3.790  -1.473  0.00  0.00    +0.120 A 
ATOM     37  C   UNL     1       6.157  -4.356  -1.483  0.00  0.00    +0.046 A 
ATOM     38  C   UNL     1       5.040  -3.543  -1.478  0.00  0.00    +0.007 A 
BRANCH  36  39
ATOM     39  O   UNL     1       8.525  -4.587  -1.477  0.00  0.00    -0.495 OA
ATOM     40  C   UNL     1       9.797  -3.935  -1.466  0.00  0.00    +0.277 C 
ENDBRANCH  36  39
ENDBRANCH  32  33
ENDBRANCH  31  32
ENDBRANCH  14  31
TORSDOF 8
