REMARK  Name = ZINC05783466
REMARK  5 active torsions:
REMARK  status: ('A' for Active; 'I' for Inactive)
REMARK    1  A    between atoms: N_4  and  C_10
REMARK    2  A    between atoms: C_5  and  C_8
REMARK    3  A    between atoms: C_8  and  O_9
REMARK    4  A    between atoms: C_10  and  N_12
REMARK    5  A    between atoms: C_13  and  C_15
REMARK                            x       y       z     vdW  Elec       q    Type
REMARK                         _______ _______ _______ _____ _____    ______ ____
ROOT
ATOM      1  N   UNL     1       4.379  -0.037   1.169  0.00  0.00    -0.267 N 
ATOM      2  C   UNL     1       5.500  -0.770   1.316  0.00  0.00    +0.225 C 
ATOM      3  O   UNL     1       5.422  -1.953   1.570  0.00  0.00    -0.275 OA
ATOM      4  H   UNL     1       4.441   0.910   0.966  0.00  0.00    +0.157 HD
ENDROOT
BRANCH   2   5
ATOM      5  C   UNL     1       6.851  -0.119   1.165  0.00  0.00    +0.048 C 
ATOM      6  C   UNL     1       6.978   0.472  -0.241  0.00  0.00    +0.019 C 
ATOM      7  C   UNL     1       8.349   1.133  -0.394  0.00  0.00    -0.009 C 
ATOM      8  C   UNL     1       9.446   0.087  -0.180  0.00  0.00    +0.007 C 
ATOM      9  C   UNL     1       9.319  -0.504   1.225  0.00  0.00    -0.009 C 
ATOM     10  C   UNL     1       7.948  -1.165   1.379  0.00  0.00    +0.019 C 
ATOM     11  C   UNL     1       9.468   0.611   2.263  0.00  0.00    +0.007 C 
ATOM     12  C   UNL     1       8.371   1.656   2.049  0.00  0.00    -0.009 C 
ATOM     13  C   UNL     1       8.498   2.247   0.643  0.00  0.00    +0.007 C 
ATOM     14  C   UNL     1       7.000   0.996   2.202  0.00  0.00    +0.019 C 
ENDBRANCH   2   5
BRANCH   1  15
ATOM     15  C   UNL     1       3.171  -0.619   1.304  0.00  0.00    +0.139 C 
ATOM     16  S   UNL     1       3.058  -2.310   1.543  0.00  0.00    -0.018 S 
BRANCH  15  20
ATOM     17  C   UNL     1      -0.079   1.574   0.078  0.00  0.00    +0.003 C 
ATOM     18  C   UNL     1       1.349   2.123   0.030  0.00  0.00    +0.019 C 
ATOM     19  C   UNL     1       2.134   1.598   1.236  0.00  0.00    +0.107 C 
ATOM     20  N   UNL     1       2.052   0.131   1.252  0.00  0.00    -0.307 N 
ATOM     21  C   UNL     1       0.728  -0.503   1.208  0.00  0.00    +0.100 C 
ATOM     22  C   UNL     1      -0.042   0.046   0.002  0.00  0.00    +0.025 C 
BRANCH  21  23
ATOM     23  C   UNL     1       0.889  -2.018   1.071  0.00  0.00    +0.178 C 
BRANCH  23  24
ATOM     24  O   UNL     1       1.171  -2.585   2.352  0.00  0.00    -0.393 OA
ATOM     25  H   UNL     1       1.327  -3.539   2.334  0.00  0.00    +0.209 HD
ENDBRANCH  23  24
ENDBRANCH  21  23
ENDBRANCH  15  20
ENDBRANCH   1  15
TORSDOF 5
