REMARK  Name = ZINC44785694
REMARK  7 active torsions:
REMARK  status: ('A' for Active; 'I' for Inactive)
REMARK    1  A    between atoms: C_1  and  C_2
REMARK    2  A    between atoms: C_2  and  C_3
REMARK    3  A    between atoms: C_2  and  C_4
REMARK    4  A    between atoms: C_2  and  C_8
REMARK    5  A    between atoms: N_5  and  O_6
REMARK    6  A    between atoms: C_14  and  C_16
REMARK    7  A    between atoms: C_16  and  O_17
REMARK                            x       y       z     vdW  Elec       q    Type
REMARK                         _______ _______ _______ _____ _____    ______ ____
ROOT
ATOM      1  C   UNL     1       0.670  -0.624   1.231  0.00  0.00    +0.028 C 
ATOM      2  C   UNL     1       0.002  -0.004   0.002  0.00  0.00    +0.100 C 
ATOM      3  C   UNL     1      -1.433  -0.521  -0.113  0.00  0.00    +0.028 C 
ENDROOT
BRANCH   2   4
ATOM      4  C   UNL     1       0.774  -0.386  -1.235  0.00  0.00    +0.229 C 
ATOM      5  O   UNL     1       0.231  -1.014  -2.119  0.00  0.00    -0.275 OA
ATOM      6  N   UNL     1       2.067  -0.028  -1.359  0.00  0.00    -0.295 N 
ATOM      7  C   UNL     1       2.878   0.637  -0.323  0.00  0.00    +0.108 C 
ATOM      8  C   UNL     1       4.000   1.366  -1.104  0.00  0.00    +0.021 C 
ATOM      9  C   UNL     1       4.296   0.353  -2.241  0.00  0.00    +0.026 C 
ATOM     10  C   UNL     1       2.905  -0.242  -2.548  0.00  0.00    +0.101 C 
BRANCH  10  11
ATOM     11  C   UNL     1       3.029  -1.739  -2.835  0.00  0.00    +0.178 C 
BRANCH  11  12
ATOM     12  O   UNL     1       3.731  -2.374  -1.765  0.00  0.00    -0.393 OA
ATOM     13  H   UNL     1       3.846  -3.327  -1.880  0.00  0.00    +0.209 HD
ENDBRANCH  11  12
ENDBRANCH  10  11
ENDBRANCH   2   4
BRANCH   2  14
ATOM     14  C   UNL     1      -0.013   1.496   0.142  0.00  0.00    +0.146 C 
ATOM     15  N   UNL     1       0.494   2.052   1.192  0.00  0.00    -0.076 NA
ATOM     16  N   UNL     1      -0.569   2.274  -0.850  0.00  0.00    -0.343 N 
ATOM     17  H   UNL     1      -0.949   1.857  -1.638  0.00  0.00    +0.144 HD
ATOM     18  H   UNL     1      -0.579   3.240  -0.759  0.00  0.00    +0.144 HD
BRANCH  15  19
ATOM     19  O   UNL     1       0.479   3.462   1.323  0.00  0.00    -0.408 OA
ATOM     20  H   UNL     1       0.881   3.785   2.141  0.00  0.00    +0.328 HD
ENDBRANCH  15  19
ENDBRANCH   2  14
TORSDOF 5
