REMARK  Name = ZINC37140098
REMARK  7 active torsions:
REMARK  status: ('A' for Active; 'I' for Inactive)
REMARK    1  A    between atoms: C_1  and  C_2
REMARK    2  A    between atoms: C_5  and  O_22
REMARK    3  A    between atoms: C_6  and  C_8
REMARK    4  A    between atoms: C_8  and  C_10
REMARK    5  A    between atoms: C_8  and  N_11
REMARK    6  A    between atoms: N_11  and  C_12
REMARK    7  A    between atoms: C_17  and  N_18
REMARK                            x       y       z     vdW  Elec       q    Type
REMARK                         _______ _______ _______ _____ _____    ______ ____
ROOT
ATOM      1  N   UNL     1       0.544  -2.011   3.593  0.00  0.00    -0.335 N 
ATOM      2  H   UNL     1       0.402  -1.052   3.575  0.00  0.00    +0.147 HD
ENDROOT
BRANCH   1   3
ATOM      3  C   UNL     1       1.279  -2.589   4.632  0.00  0.00    +0.058 A 
ATOM      4  C   UNL     1       1.515  -3.958   4.640  0.00  0.00    +0.026 A 
ATOM      5  C   UNL     1       2.242  -4.525   5.668  0.00  0.00    +0.017 A 
ATOM      6  C   UNL     1       2.735  -3.732   6.689  0.00  0.00    +0.020 A 
ATOM      7  C   UNL     1       2.501  -2.369   6.684  0.00  0.00    +0.050 A 
ATOM      8  C   UNL     1       1.780  -1.794   5.655  0.00  0.00    +0.148 A 
ATOM      9 BR   UNL     1       3.729  -4.513   8.095  0.00  0.00    -0.050 Br
BRANCH   8  10
ATOM     10  N   UNL     1       1.536  -0.334   5.646  0.00  0.00    +0.058 N 
ATOM     11  O   UNL     1       1.552   0.275   4.602  0.00  0.00    -0.126 OA
ATOM     12  O   UNL     1       1.321   0.249   6.683  0.00  0.00    -0.126 OA
ENDBRANCH   8  10
ENDBRANCH   1   3
BRANCH   1  13
ATOM     13  C   UNL     1      -0.011  -2.855   2.532  0.00  0.00    +0.101 C 
ATOM     14  C   UNL     1      -1.362  -3.416   2.981  0.00  0.00    +0.033 C 
BRANCH  13  20
ATOM     15  C   UNL     1      -0.869   1.560   0.339  0.00  0.00    +0.044 C 
ATOM     16  C   UNL     1      -0.609   0.079   0.233  0.00  0.00    -0.050 A 
ATOM     17  C   UNL     1      -0.543  -0.522  -1.011  0.00  0.00    +0.007 A 
ATOM     18  C   UNL     1      -0.306  -1.879  -1.111  0.00  0.00    +0.046 A 
ATOM     19  C   UNL     1      -0.133  -2.639   0.037  0.00  0.00    +0.122 A 
ATOM     20  C   UNL     1      -0.199  -2.033   1.283  0.00  0.00    +0.014 A 
ATOM     21  C   UNL     1      -0.431  -0.674   1.378  0.00  0.00    +0.012 A 
BRANCH  19  22
ATOM     22  O   UNL     1       0.100  -3.974  -0.059  0.00  0.00    -0.506 OA
ATOM     23  H   UNL     1       1.037  -4.207  -0.116  0.00  0.00    +0.292 HD
ENDBRANCH  19  22
ENDBRANCH  13  20
ENDBRANCH   1  13
TORSDOF 5
