REMARK  Name = ZINC10028302
REMARK  7 active torsions:
REMARK  status: ('A' for Active; 'I' for Inactive)
REMARK    1  A    between atoms: C_1  and  C_2
REMARK    2  A    between atoms: C_5  and  C_8
REMARK    3  A    between atoms: C_8  and  C_10
REMARK    4  A    between atoms: C_8  and  N_47
REMARK    5  A    between atoms: C_13  and  C_14
REMARK    6  A    between atoms: C_13  and  N_47
REMARK    7  A    between atoms: C_22  and  C_25
REMARK                            x       y       z     vdW  Elec       q    Type
REMARK                         _______ _______ _______ _____ _____    ______ ____
ROOT
ATOM      1  N   UNL     1      -2.848   0.032  -0.451  0.00  0.00    +0.387 N 
ATOM      2  H   UNL     1      -3.736  -0.302  -0.843  0.00  0.00    -0.084 HD
ATOM      3  H   UNL     1      -3.031   0.572   0.403  0.00  0.00    -0.084 HD
ENDROOT
BRANCH   1   4
ATOM      4  C   UNL     1      -2.176   0.898  -1.438  0.00  0.00    -0.037 C 
BRANCH   4   9
ATOM      5  C   UNL     1      -6.151   4.023  -4.235  0.00  0.00    +0.044 C 
ATOM      6  C   UNL     1      -5.114   3.208  -3.506  0.00  0.00    -0.050 A 
ATOM      7  C   UNL     1      -4.039   2.680  -4.196  0.00  0.00    +0.003 A 
ATOM      8  C   UNL     1      -3.088   1.933  -3.527  0.00  0.00    +0.002 A 
ATOM      9  C   UNL     1      -3.212   1.713  -2.168  0.00  0.00    -0.061 A 
ATOM     10  C   UNL     1      -4.290   2.237  -1.478  0.00  0.00    +0.002 A 
ATOM     11  C   UNL     1      -5.238   2.989  -2.147  0.00  0.00    +0.003 A 
ENDBRANCH   4   9
BRANCH   4  12
ATOM     12  C   UNL     1      -1.204   1.835  -0.719  0.00  0.00    -0.021 C 
ATOM     13  C   UNL     1      -0.356   2.772  -1.582  0.00  0.00    +0.002 C 
ATOM     14  C   UNL     1       0.294   1.570  -0.893  0.00  0.00    +0.002 C 
ENDBRANCH   4  12
ENDBRANCH   1   4
BRANCH   1  15
ATOM     15  C   UNL     1      -1.996  -1.126  -0.122  0.00  0.00    -0.025 C 
BRANCH  15  16
ATOM     16  C   UNL     1      -2.752  -2.049   0.799  0.00  0.00    +0.032 A 
ATOM     17  C   UNL     1      -3.098  -3.317   0.373  0.00  0.00    +0.092 A 
ATOM     18  C   UNL     1      -3.795  -4.158   1.248  0.00  0.00    +0.258 A 
ATOM     19  O   UNL     1      -4.112  -5.286   0.904  0.00  0.00    -0.267 OA
ATOM     20  N   UNL     1      -4.116  -3.701   2.477  0.00  0.00    -0.268 N 
ATOM     21  C   UNL     1      -4.800  -4.505   3.338  0.00  0.00    +0.096 A 
ATOM     22  C   UNL     1      -5.133  -4.070   4.574  0.00  0.00    +0.019 A 
ATOM     23  C   UNL     1      -4.776  -2.778   4.985  0.00  0.00    +0.008 A 
ATOM     24  C   UNL     1      -4.093  -1.965   4.131  0.00  0.00    -0.008 A 
ATOM     25  C   UNL     1      -3.755  -2.436   2.849  0.00  0.00    +0.143 A 
ATOM     26  N   UNL     1      -3.087  -1.643   2.013  0.00  0.00    -0.236 NA
ATOM     27  C   UNL     1      -3.701  -0.573   4.557  0.00  0.00    +0.047 C 
ENDBRANCH  15  16
ENDBRANCH   1  15
TORSDOF 5
