REMARK  Name = ZINC00999722
REMARK  8 active torsions:
REMARK  status: ('A' for Active; 'I' for Inactive)
REMARK    1  A    between atoms: C_1  and  C_2
REMARK    2  A    between atoms: C_2  and  O_3
REMARK    3  A    between atoms: O_3  and  C_4
REMARK    4  A    between atoms: N_12  and  C_13
REMARK    5  A    between atoms: C_16  and  C_19
REMARK    6  A    between atoms: C_19  and  C_21
REMARK    7  A    between atoms: C_22  and  C_24
REMARK    8  A    between atoms: C_27  and  C_29
REMARK                            x       y       z     vdW  Elec       q    Type
REMARK                         _______ _______ _______ _____ _____    ______ ____
ROOT
ATOM      1  C   UNL     1       2.042   7.550  -0.849  0.00  0.00    +0.163 A 
ATOM      2  C   UNL     1       3.175   8.253  -1.218  0.00  0.00    +0.049 A 
ATOM      3  C   UNL     1       3.330   9.582  -0.854  0.00  0.00    +0.004 A 
ATOM      4  C   UNL     1       2.373  10.217  -0.114  0.00  0.00    +0.012 A 
ATOM      5  C   UNL     1       1.225   9.520   0.289  0.00  0.00    +0.022 A 
ATOM      6  C   UNL     1       1.051   8.180  -0.101  0.00  0.00    +0.179 A 
ATOM      7  O   UNL     1      -0.080   7.517   0.234  0.00  0.00    -0.435 OA
ATOM      8  C   UNL     1      -0.726   7.925   1.354  0.00  0.00    +0.212 A 
ATOM      9  N   UNL     1      -1.292   7.056   2.169  0.00  0.00    -0.325 N 
ATOM     10  C   UNL     1      -0.768   9.373   1.633  0.00  0.00    +0.098 A 
ATOM     11  C   UNL     1       0.243  10.156   1.094  0.00  0.00    +0.030 A 
ATOM     12  H   UNL     1      -1.882   7.411   3.027  0.00  0.00    +0.169 HD
ENDROOT
BRANCH  10  13
ATOM     13  C   UNL     1      -1.840   9.964   2.451  0.00  0.00    +0.255 C 
ATOM     14  O   UNL     1      -2.714   9.255   2.911  0.00  0.00    -0.270 OA
ATOM     15  N   UNL     1      -1.852  11.290   2.689  0.00  0.00    -0.252 N 
ATOM     16  C   UNL     1      -2.834  11.831   3.437  0.00  0.00    +0.216 C 
ATOM     17  O   UNL     1      -3.706  11.125   3.896  0.00  0.00    -0.276 OA
ATOM     18  C   UNL     1      -2.848  13.315   3.704  0.00  0.00    +0.109 C 
ATOM     19  H   UNL     1      -1.061  11.931   2.272  0.00  0.00    +0.158 HD
ENDBRANCH  10  13
BRANCH   9  20
ATOM     20  C   UNL     1      -1.148   5.722   1.948  0.00  0.00    +0.042 A 
ATOM     21  C   UNL     1      -0.022   5.048   2.441  0.00  0.00    +0.026 A 
ATOM     22  C   UNL     1       0.124   3.711   2.220  0.00  0.00    +0.013 A 
ATOM     23  C   UNL     1      -0.854   3.010   1.498  0.00  0.00    +0.017 A 
ATOM     24  C   UNL     1      -1.978   3.685   1.001  0.00  0.00    +0.013 A 
ATOM     25  C   UNL     1      -2.125   5.021   1.227  0.00  0.00    +0.026 A 
BRANCH  23  26
ATOM     26  C   UNL     1      -0.697   1.572   1.259  0.00  0.00    +0.160 C 
ATOM     27  O   UNL     1       0.278   0.989   1.685  0.00  0.00    -0.292 OA
ATOM     28  C   UNL     1      -1.747   0.819   0.484  0.00  0.00    +0.091 C 
ENDBRANCH  23  26
ENDBRANCH   9  20
BRANCH   1  29
ATOM     29  O   UNL     1       1.897   6.248  -1.214  0.00  0.00    -0.489 OA
BRANCH  29  31
ATOM     30  C   UNL     1       2.615   4.209  -2.294  0.00  0.00    +0.048 C 
ATOM     31  C   UNL     1       2.954   5.667  -1.980  0.00  0.00    +0.226 C 
ENDBRANCH  29  31
ENDBRANCH   1  29
TORSDOF 5
