REMARK  Name = ZINC44318439
REMARK  12 active torsions:
REMARK  status: ('A' for Active; 'I' for Inactive)
REMARK    1  A    between atoms: C_1  and  C_2
REMARK    2  A    between atoms: C_2  and  C_3
REMARK    3  A    between atoms: C_2  and  C_4
REMARK    4  A    between atoms: C_2  and  O_5
REMARK    5  A    between atoms: O_5  and  C_6
REMARK    6  A    between atoms: N_8  and  CA_9
REMARK    7  A    between atoms: CA_9  and  C_11
REMARK    8  A    between atoms: CA_9  and  C_27
REMARK    9  A    between atoms: C_11  and  C_12
REMARK   10  A    between atoms: C_14  and  C_20
REMARK   11  A    between atoms: C_17  and  O_18
REMARK   12  A    between atoms: C_20  and  C_21
REMARK                            x       y       z     vdW  Elec       q    Type
REMARK                         _______ _______ _______ _____ _____    ______ ____
ROOT
ATOM      1  C   UNL     1       4.824  -2.415  -2.783  0.00  0.00    -0.002 A 
ATOM      2  C   UNL     1       3.930  -3.417  -3.111  0.00  0.00    +0.011 A 
ATOM      3  C   UNL     1       3.990  -4.637  -2.464  0.00  0.00    -0.042 A 
ATOM      4  C   UNL     1       4.943  -4.859  -1.487  0.00  0.00    +0.023 A 
ATOM      5  C   UNL     1       5.839  -3.861  -1.155  0.00  0.00    +0.060 A 
ATOM      6  C   UNL     1       5.785  -2.636  -1.807  0.00  0.00    +0.134 A 
ATOM      7 BR   UNL     1       7.142  -4.164   0.181  0.00  0.00    -0.047 Br
ENDROOT
BRANCH   6   8
ATOM      8  O   UNL     1       6.668  -1.654  -1.487  0.00  0.00    -0.505 OA
ATOM      9  H   UNL     1       6.367  -1.070  -0.778  0.00  0.00    +0.292 HD
ENDBRANCH   6   8
BRANCH   1  10
ATOM     10  C   UNL     1       4.759  -1.086  -3.489  0.00  0.00    +0.072 C 
BRANCH  10  11
ATOM     11  CA  UNL     1       4.035  -0.071  -2.601  0.00  0.00    +0.193 C 
BRANCH  11  14
ATOM     12  C   UNL     1       1.952  -0.085  -1.337  0.00  0.00    +0.401 C 
ATOM     13  O   UNL     1       2.488   0.619  -0.503  0.00  0.00    -0.226 OA
ATOM     14  N   UNL     1       2.641  -0.485  -2.424  0.00  0.00    -0.267 N 
ATOM     15  H   UNL     1       2.213  -1.047  -3.089  0.00  0.00    +0.153 HD
BRANCH  12  16
ATOM     16  O   UNL     1       0.671  -0.465  -1.174  0.00  0.00    -0.445 OA
BRANCH  16  18
ATOM     17  C   UNL     1      -0.019   1.526   0.010  0.00  0.00    +0.055 C 
ATOM     18  C   UNL     1       0.002  -0.004   0.002  0.00  0.00    +0.107 C 
ATOM     19  C   UNL     1       0.742  -0.511   1.242  0.00  0.00    +0.055 C 
ATOM     20  C   UNL     1      -1.433  -0.534   0.013  0.00  0.00    +0.055 C 
ENDBRANCH  16  18
ENDBRANCH  12  16
ENDBRANCH  11  14
BRANCH  11  21
ATOM     21  C   UNL     1       4.077   1.287  -3.253  0.00  0.00    +0.376 C 
ATOM     22  O   UNL     1       3.039   1.857  -3.542  0.00  0.00    -0.244 OA
ATOM     23  OXT UNL     1       5.149   1.816  -3.491  0.00  0.00    -0.244 OA
ENDBRANCH  11  21
ENDBRANCH  10  11
ENDBRANCH   1  10
BRANCH   3  24
ATOM     24  C   UNL     1       3.013  -5.727  -2.823  0.00  0.00    +0.070 C 
BRANCH  24  25
ATOM     25  C   UNL     1       3.588  -6.571  -3.931  0.00  0.00    -0.043 A 
ATOM     26  C   UNL     1       3.350  -6.235  -5.250  0.00  0.00    +0.004 A 
ATOM     27  C   UNL     1       3.878  -7.009  -6.267  0.00  0.00    +0.000 A 
ATOM     28  C   UNL     1       4.643  -8.120  -5.964  0.00  0.00    +0.000 A 
ATOM     29  C   UNL     1       4.881  -8.456  -4.644  0.00  0.00    +0.000 A 
ATOM     30  C   UNL     1       4.357  -7.679  -3.628  0.00  0.00    +0.004 A 
ENDBRANCH  24  25
ENDBRANCH   3  24
TORSDOF 9
