REMARK  Name = ZINC66120030
REMARK  6 active torsions:
REMARK  status: ('A' for Active; 'I' for Inactive)
REMARK    1  A    between atoms: C_2  and  C_10
REMARK    2  A    between atoms: C_10  and  C_11
REMARK    3  A    between atoms: C_11  and  N_12
REMARK    4  A    between atoms: C_19  and  C_22
REMARK    5  A    between atoms: C_22  and  C_23
REMARK    6  A    between atoms: C_23  and  C_24
REMARK                            x       y       z     vdW  Elec       q    Type
REMARK                         _______ _______ _______ _____ _____    ______ ____
ROOT
ATOM      1  N   UNL     1       2.270   5.098   1.443  0.00  0.00    -0.299 N 
ATOM      2  C   UNL     1       2.397   5.764   2.608  0.00  0.00    +0.302 C 
ATOM      3  O   UNL     1       2.041   5.245   3.648  0.00  0.00    -0.253 OA
ATOM      4  N   UNL     1       2.919   7.007   2.620  0.00  0.00    -0.285 N 
ATOM      5  C   UNL     1       3.247   7.694   1.363  0.00  0.00    +0.109 C 
ATOM      6  C   UNL     1       4.706   8.156   1.419  0.00  0.00    +0.019 C 
ATOM      7  C   UNL     1       4.920   9.005   2.674  0.00  0.00    +0.006 C 
ATOM      8  C   UNL     1       4.633   8.162   3.918  0.00  0.00    +0.007 C 
ATOM      9  C   UNL     1       3.167   7.702   3.891  0.00  0.00    +0.112 C 
ATOM     10  H   UNL     1       2.485   5.539   0.607  0.00  0.00    +0.150 HD
ENDROOT
BRANCH   1  11
ATOM     11  C   UNL     1       1.806   3.709   1.441  0.00  0.00    +0.112 C 
BRANCH  11  12
ATOM     12  C   UNL     1       1.751   3.192   0.002  0.00  0.00    +0.073 C 
BRANCH  12  14
ATOM     13  C   UNL     1      -0.011   1.356   0.010  0.00  0.00    +0.108 A 
ATOM     14  C   UNL     1       1.274   1.762   0.000  0.00  0.00    +0.035 A 
ATOM     15  N   UNL     1       2.056   0.670  -0.013  0.00  0.00    -0.347 N 
ATOM     16  C   UNL     1       1.306  -0.393  -0.010  0.00  0.00    +0.087 A 
ATOM     17  N   UNL     1       0.009  -0.007   0.003  0.00  0.00    -0.336 N 
ATOM     18  C   UNL     1      -1.136  -0.921   0.008  0.00  0.00    +0.123 C 
ATOM     19  C   UNL     1      -0.660  -2.311  -0.430  0.00  0.00    +0.022 C 
ATOM     20  C   UNL     1       0.569  -2.712   0.391  0.00  0.00    +0.009 C 
ATOM     21  C   UNL     1       1.759  -1.834  -0.019  0.00  0.00    +0.072 C 
ATOM     22  H   UNL     1       3.026   0.674  -0.022  0.00  0.00    +0.167 HD
ENDBRANCH  12  14
ENDBRANCH  11  12
ENDBRANCH   1  11
BRANCH   8  23
ATOM     23  C   UNL     1       4.879   9.002   5.173  0.00  0.00    +0.014 C 
BRANCH  23  24
ATOM     24  C   UNL     1       4.713   8.125   6.415  0.00  0.00    +0.096 C 
BRANCH  24  25
ATOM     25  C   UNL     1       4.956   8.953   7.651  0.00  0.00    +0.210 C 
ATOM     26  O   UNL     1       5.235  10.128   7.548  0.00  0.00    -0.276 OA
ATOM     27  N   UNL     1       4.863   8.386   8.871  0.00  0.00    -0.329 N 
ATOM     28  H   UNL     1       4.640   7.446   8.953  0.00  0.00    +0.145 HD
ATOM     29  H   UNL     1       5.020   8.919   9.666  0.00  0.00    +0.145 HD
ENDBRANCH  24  25
ENDBRANCH  23  24
ENDBRANCH   8  23
TORSDOF 6
