REMARK  Name = ZINC08622844
REMARK  11 active torsions:
REMARK  status: ('A' for Active; 'I' for Inactive)
REMARK    1  A    between atoms: C_1  and  C_2
REMARK    2  A    between atoms: C_4  and  C_30
REMARK    3  A    between atoms: C_6  and  C_8
REMARK    4  A    between atoms: C_16  and  C_18
REMARK    5  A    between atoms: C_18  and  N_19
REMARK    6  A    between atoms: N_19  and  C_20
REMARK    7  A    between atoms: C_20  and  N_22
REMARK    8  A    between atoms: N_22  and  C_23
REMARK    9  A    between atoms: C_33  and  N_36
REMARK   10  A    between atoms: N_36  and  C_37
REMARK   11  A    between atoms: N_36  and  C_38
REMARK                            x       y       z     vdW  Elec       q    Type
REMARK                         _______ _______ _______ _____ _____    ______ ____
ROOT
ATOM      1  C   UNL     1       2.513  -0.030  -0.224  0.00  0.00    +0.024 C 
ATOM      2  C   UNL     1       1.108  -0.556  -0.606  0.00  0.00    -0.068 C 
ATOM      3  C   UNL     1       0.039   1.382   0.379  0.00  0.00    -0.078 C 
ATOM      4  C   UNL     1       1.394   1.967   0.785  0.00  0.00    -0.015 C 
ATOM      5  C   UNL     1       2.372   0.815   1.048  0.00  0.00    -0.007 C 
ATOM      6  C   UNL     1       1.798  -0.069   2.162  0.00  0.00    -0.010 C 
ATOM      7  C   UNL     1       0.431  -0.599   1.718  0.00  0.00    -0.051 C 
ATOM      8  N   UNL     1       0.096  -0.096   0.369  0.00  0.00    +0.383 N 
ATOM      9  H   UNL     1      -0.822  -0.464   0.095  0.00  0.00    -0.081 HD
ENDROOT
BRANCH   1  15
ATOM     10  C   UNL     1       6.264  -1.916   2.283  0.00  0.00    +0.088 C 
ATOM     11  C   UNL     1       5.221  -2.074   1.206  0.00  0.00    +0.127 A 
ATOM     12  N   UNL     1       5.168  -3.202   0.528  0.00  0.00    -0.232 NA
ATOM     13  C   UNL     1       4.260  -3.376  -0.431  0.00  0.00    +0.075 A 
ATOM     14  C   UNL     1       3.358  -2.343  -0.703  0.00  0.00    +0.052 A 
ATOM     15  C   UNL     1       3.457  -1.176   0.033  0.00  0.00    +0.047 A 
ATOM     16  N   UNL     1       4.388  -1.080   0.970  0.00  0.00    -0.237 NA
BRANCH  13  17
ATOM     17  C   UNL     1       4.202  -4.646  -1.192  0.00  0.00    +0.001 A 
ATOM     18  C   UNL     1       3.325  -4.776  -2.268  0.00  0.00    +0.012 A 
ATOM     19  C   UNL     1       3.277  -5.956  -2.978  0.00  0.00    +0.024 A 
ATOM     20  C   UNL     1       4.095  -7.021  -2.615  0.00  0.00    +0.029 A 
ATOM     21  C   UNL     1       4.967  -6.895  -1.539  0.00  0.00    +0.024 A 
ATOM     22  C   UNL     1       5.022  -5.715  -0.830  0.00  0.00    +0.012 A 
BRANCH  20  23
ATOM     23  N   UNL     1       4.041  -8.215  -3.332  0.00  0.00    -0.336 N 
ATOM     24  C   UNL     1       4.903  -9.337  -2.951  0.00  0.00    +0.129 C 
ATOM     25  C   UNL     1       3.122  -8.349  -4.465  0.00  0.00    +0.129 C 
ENDBRANCH  20  23
ENDBRANCH  13  17
ENDBRANCH   1  15
BRANCH   7  26
ATOM     26  C   UNL     1       0.463  -2.128   1.685  0.00  0.00    +0.088 C 
BRANCH  26  27
ATOM     27  N   UNL     1      -0.796  -2.630   1.129  0.00  0.00    -0.328 N 
ATOM     28  H   UNL     1      -1.459  -2.008   0.789  0.00  0.00    +0.148 HD
BRANCH  27  29
ATOM     29  C   UNL     1      -1.034  -3.956   1.089  0.00  0.00    +0.134 C 
ATOM     30  S   UNL     1       0.076  -5.046   1.804  0.00  0.00    -0.019 S 
BRANCH  29  31
ATOM     31  N   UNL     1      -2.145  -4.424   0.486  0.00  0.00    -0.297 N 
ATOM     32  H   UNL     1      -2.803  -3.804   0.134  0.00  0.00    +0.154 HD
BRANCH  31  33
ATOM     33  C   UNL     1      -2.350  -5.804   0.370  0.00  0.00    +0.033 A 
ATOM     34  C   UNL     1      -2.770  -6.345  -0.838  0.00  0.00    +0.026 A 
ATOM     35  C   UNL     1      -2.966  -7.707  -0.953  0.00  0.00    +0.040 A 
ATOM     36  C   UNL     1      -2.754  -8.532   0.139  0.00  0.00    +0.124 A 
ATOM     37  C   UNL     1      -2.341  -7.994   1.346  0.00  0.00    +0.040 A 
ATOM     38  C   UNL     1      -2.139  -6.633   1.463  0.00  0.00    +0.026 A 
ATOM     39  F   UNL     1      -2.951  -9.864   0.026  0.00  0.00    -0.205 F 
ENDBRANCH  31  33
ENDBRANCH  29  31
ENDBRANCH  27  29
ENDBRANCH  26  27
ENDBRANCH   7  26
TORSDOF 8
