REMARK  Name = ZINC43721936
REMARK  8 active torsions:
REMARK  status: ('A' for Active; 'I' for Inactive)
REMARK    1  A    between atoms: C_1  and  C_2
REMARK    2  A    between atoms: C_4  and  O_32
REMARK    3  A    between atoms: C_12  and  O_20
REMARK    4  A    between atoms: C_14  and  C_15
REMARK    5  A    between atoms: C_14  and  O_19
REMARK    6  A    between atoms: C_15  and  C_17
REMARK    7  A    between atoms: C_17  and  O_18
REMARK    8  A    between atoms: C_29  and  C_30
REMARK                            x       y       z     vdW  Elec       q    Type
REMARK                         _______ _______ _______ _____ _____    ______ ____
ROOT
ATOM      1  C   UNL     1      -0.055   1.553   0.028  0.00  0.00    +0.015 C 
ATOM      2  C   UNL     1      -0.008   0.022   0.005  0.00  0.00    +0.012 C 
ATOM      3  C   UNL     1       0.604  -0.518  -1.280  0.00  0.00    +0.044 C 
ATOM      4  C   UNL     1       2.107  -0.199  -1.351  0.00  0.00    +0.154 C 
ATOM      5  C   UNL     1       2.831  -0.878  -0.200  0.00  0.00    +0.153 C 
ATOM      6  C   UNL     1       2.233  -0.477   1.140  0.00  0.00    +0.034 C 
ATOM      7  C   UNL     1       0.735  -0.555   1.222  0.00  0.00    +0.007 C 
ATOM      8  C   UNL     1       0.234  -2.009   1.319  0.00  0.00    +0.039 C 
ATOM      9  C   UNL     1      -1.222  -1.964   0.812  0.00  0.00    +0.154 C 
ATOM     10  C   UNL     1      -1.429  -0.577   0.177  0.00  0.00    +0.157 C 
ATOM     11  C   UNL     1       2.758   0.905   1.542  0.00  0.00    +0.011 C 
ATOM     12  C   UNL     1       4.198   0.706   2.020  0.00  0.00    +0.032 C 
ATOM     13  C   UNL     1       4.935  -0.199   1.059  0.00  0.00    -0.053 C 
ATOM     14  C   UNL     1       6.198  -0.504   1.397  0.00  0.00    +0.051 C 
ATOM     15  C   UNL     1       6.994  -1.401   0.536  0.00  0.00    +0.179 C 
ATOM     16  O   UNL     1       8.211  -1.496   0.671  0.00  0.00    -0.288 OA
ATOM     17  C   UNL     1       6.276  -2.203  -0.478  0.00  0.00    +0.047 C 
ATOM     18  C   UNL     1       5.022  -1.879  -0.805  0.00  0.00    -0.009 C 
ATOM     19  C   UNL     1       4.331  -0.690  -0.210  0.00  0.00    +0.044 C 
ATOM     20  C   UNL     1       4.644   0.440  -1.195  0.00  0.00    +0.023 C 
ATOM     21  F   UNL     1       2.617  -2.271  -0.340  0.00  0.00    -0.238 F 
ENDROOT
BRANCH  10  22
ATOM     22  C   UNL     1      -2.149  -0.697  -1.136  0.00  0.00    +0.193 C 
ATOM     23  O   UNL     1      -2.064  -1.715  -1.780  0.00  0.00    -0.292 OA
BRANCH  22  24
ATOM     24  C   UNL     1      -2.977   0.452  -1.649  0.00  0.00    +0.233 C 
BRANCH  24  25
ATOM     25  O   UNL     1      -3.557   0.098  -2.906  0.00  0.00    -0.387 OA
ATOM     26  H   UNL     1      -4.105   0.793  -3.297  0.00  0.00    +0.210 HD
ENDBRANCH  24  25
ENDBRANCH  22  24
ENDBRANCH  10  22
BRANCH  10  27
ATOM     27  O   UNL     1      -2.190   0.248   1.069  0.00  0.00    -0.378 OA
ATOM     28  H   UNL     1      -3.091  -0.067   1.224  0.00  0.00    +0.211 HD
ENDBRANCH  10  27
BRANCH   9  29
ATOM     29  O   UNL     1      -2.129  -2.142   1.903  0.00  0.00    -0.388 OA
ATOM     30  H   UNL     1      -2.036  -2.991   2.357  0.00  0.00    +0.210 HD
ENDBRANCH   9  29
BRANCH   4  31
ATOM     31  O   UNL     1       2.568  -0.719  -2.609  0.00  0.00    -0.389 OA
ATOM     32  H   UNL     1       2.128  -0.335  -3.379  0.00  0.00    +0.210 HD
ENDBRANCH   4  31
TORSDOF 6
