REMARK  Name = ZINC01435501
REMARK  7 active torsions:
REMARK  status: ('A' for Active; 'I' for Inactive)
REMARK    1  A    between atoms: C_1  and  C_2
REMARK    2  A    between atoms: C_2  and  C_3
REMARK    3  A    between atoms: C_3  and  C_4
REMARK    4  A    between atoms: C_11  and  N_29
REMARK    5  A    between atoms: C_12  and  C_27
REMARK    6  A    between atoms: C_13  and  C_15
REMARK    7  A    between atoms: C_18  and  C_20
REMARK                            x       y       z     vdW  Elec       q    Type
REMARK                         _______ _______ _______ _____ _____    ______ ____
ROOT
ATOM      1  C   UNL     1      -3.802  -3.648  -0.021  0.00  0.00    +0.071 A 
ATOM      2  C   UNL     1      -3.998  -2.828  -1.124  0.00  0.00    +0.052 A 
ATOM      3  C   UNL     1      -3.324  -3.373  -2.182  0.00  0.00    +0.223 A 
ATOM      4  N   UNL     1      -2.728  -4.495  -1.749  0.00  0.00    -0.246 N 
ATOM      5  H   UNL     1      -2.162  -5.111  -2.297  0.00  0.00    +0.192 HD
ATOM      6  N   UNL     1      -3.041  -4.652  -0.389  0.00  0.00    -0.176 NA
ATOM      7  O   UNL     1      -3.318  -2.808  -3.415  0.00  0.00    -0.423 OA
ATOM      8  C   UNL     1      -4.217  -1.833  -3.660  0.00  0.00    +0.201 C 
ATOM      9  C   UNL     1      -4.934  -1.212  -2.698  0.00  0.00    +0.101 C 
ATOM     10  C   UNL     1      -4.790  -1.551  -1.235  0.00  0.00    +0.137 C 
ENDROOT
BRANCH  10  11
ATOM     11  C   UNL     1      -4.063  -0.439  -0.524  0.00  0.00    +0.119 A 
ATOM     12  C   UNL     1      -4.542   0.275   0.513  0.00  0.00    +0.046 A 
ATOM     13  C   UNL     1      -3.545   1.206   0.869  0.00  0.00    +0.050 A 
ATOM     14  C   UNL     1      -2.503   1.007   0.019  0.00  0.00    +0.137 A 
ATOM     15  O   UNL     1      -2.833   0.010  -0.824  0.00  0.00    -0.459 OA
BRANCH  14  16
ATOM     16  C   UNL     1      -1.230   1.759   0.017  0.00  0.00    +0.036 A 
ATOM     17  C   UNL     1      -0.013   1.076   0.008  0.00  0.00    +0.013 A 
ATOM     18  C   UNL     1       1.172   1.783   0.000  0.00  0.00    +0.001 A 
ATOM     19  C   UNL     1       1.155   3.167   0.007  0.00  0.00    +0.001 A 
ATOM     20  C   UNL     1      -0.047   3.851   0.021  0.00  0.00    +0.021 A 
ATOM     21  C   UNL     1      -1.240   3.155   0.030  0.00  0.00    +0.052 A 
ATOM     22 CL   UNL     1      -2.748   4.015   0.048  0.00  0.00    -0.083 Cl
ENDBRANCH  14  16
ENDBRANCH  10  11
BRANCH   8  23
ATOM     23  N   UNL     1      -4.416  -1.451  -4.963  0.00  0.00    -0.328 N 
ATOM     24  H   UNL     1      -3.917  -1.879  -5.676  0.00  0.00    +0.145 HD
ATOM     25  H   UNL     1      -5.056  -0.752  -5.171  0.00  0.00    +0.145 HD
ENDBRANCH   8  23
BRANCH   9  26
ATOM     26  C   UNL     1      -5.864  -0.193  -3.081  0.00  0.00    +0.101 C 
ATOM     27  N   UNL     1      -6.603   0.615  -3.385  0.00  0.00    -0.191 NA
ENDBRANCH   9  26
BRANCH   1  28
ATOM     28  C   UNL     1      -4.366  -3.425   1.359  0.00  0.00    +0.057 C 
BRANCH  28  30
ATOM     29  C   UNL     1      -6.302  -3.882   2.870  0.00  0.00    +0.004 C 
ATOM     30  C   UNL     1      -5.730  -4.109   1.469  0.00  0.00    +0.003 C 
ENDBRANCH  28  30
ENDBRANCH   1  28
TORSDOF 6
