REMARK  Name = ZINC66886488
REMARK  7 active torsions:
REMARK  status: ('A' for Active; 'I' for Inactive)
REMARK    1  A    between atoms: C_1  and  C_2
REMARK    2  A    between atoms: C_2  and  C_4
REMARK    3  A    between atoms: C_2  and  N_13
REMARK    4  A    between atoms: N_9  and  C_10
REMARK    5  A    between atoms: C_16  and  N_19
REMARK    6  A    between atoms: C_20  and  C_22
REMARK    7  A    between atoms: C_22  and  C_23
REMARK                            x       y       z     vdW  Elec       q    Type
REMARK                         _______ _______ _______ _____ _____    ______ ____
ROOT
ATOM      1  N   UNL     1       0.713  -0.491   1.192  0.00  0.00    -0.292 NA
ATOM      2  C   UNL     1       2.050   0.107   1.288  0.00  0.00    +0.087 C 
ATOM      3  C   UNL     1       2.813  -0.529   2.452  0.00  0.00    +0.037 C 
ATOM      4  C   UNL     1       2.036  -0.298   3.751  0.00  0.00    +0.075 C 
ATOM      5  C   UNL     1       0.631  -0.888   3.608  0.00  0.00    +0.037 C 
ATOM      6  C   UNL     1      -0.069  -0.241   2.410  0.00  0.00    +0.087 C 
ENDROOT
BRANCH   4   7
ATOM      7  N   UNL     1       2.732  -0.955   4.861  0.00  0.00    -0.312 N 
ATOM      8  C   UNL     1       2.564  -0.508   6.121  0.00  0.00    +0.214 C 
ATOM      9  O   UNL     1       1.836   0.438   6.337  0.00  0.00    -0.276 OA
ATOM     10  H   UNL     1       3.314  -1.712   4.688  0.00  0.00    +0.149 HD
BRANCH   8  11
ATOM     11  C   UNL     1       3.279  -1.184   7.262  0.00  0.00    +0.099 C 
BRANCH  11  12
ATOM     12  C   UNL     1       2.918  -0.487   8.575  0.00  0.00    -0.002 C 
ATOM     13  C   UNL     1       3.451   0.947   8.555  0.00  0.00    +0.004 C 
ATOM     14  C   UNL     1       3.090   1.644   9.868  0.00  0.00    +0.000 C 
ATOM     15  C   UNL     1       3.716   0.883  11.039  0.00  0.00    +0.000 C 
ATOM     16  C   UNL     1       3.182  -0.550  11.059  0.00  0.00    +0.000 C 
ATOM     17  C   UNL     1       3.544  -1.248   9.746  0.00  0.00    +0.004 C 
ENDBRANCH  11  12
ENDBRANCH   8  11
ENDBRANCH   4   7
BRANCH   1  19
ATOM     18  C   UNL     1      -0.019   1.526   0.010  0.00  0.00    +0.034 C 
ATOM     19  C   UNL     1       0.002  -0.004   0.002  0.00  0.00    +0.140 C 
BRANCH  19  20
ATOM     20  C   UNL     1       0.707  -0.490  -1.238  0.00  0.00    +0.237 C 
ATOM     21  O   UNL     1       1.704  -1.174  -1.140  0.00  0.00    -0.274 OA
ATOM     22  N   UNL     1       0.231  -0.164  -2.456  0.00  0.00    -0.239 N 
ATOM     23  C   UNL     1       0.862  -0.599  -3.565  0.00  0.00    +0.306 C 
ATOM     24  O   UNL     1       1.860  -1.285  -3.466  0.00  0.00    -0.252 OA
ATOM     25  N   UNL     1       0.385  -0.273  -4.782  0.00  0.00    -0.296 N 
ATOM     26  H   UNL     1      -0.566   0.383  -2.534  0.00  0.00    +0.159 HD
ATOM     27  H   UNL     1      -0.412   0.274  -4.861  0.00  0.00    +0.151 HD
BRANCH  25  28
ATOM     28  C   UNL     1       1.071  -0.745  -5.988  0.00  0.00    +0.075 C 
ATOM     29  C   UNL     1       1.265   0.256  -7.128  0.00  0.00    +0.024 C 
ATOM     30  C   UNL     1       0.242  -0.874  -7.268  0.00  0.00    +0.024 C 
ENDBRANCH  25  28
ENDBRANCH  19  20
ENDBRANCH   1  19
TORSDOF 6
