REMARK  Name = ZINC62535728
REMARK  6 active torsions:
REMARK  status: ('A' for Active; 'I' for Inactive)
REMARK    1  A    between atoms: C_1  and  C_2
REMARK    2  A    between atoms: C_2  and  C_3
REMARK    3  A    between atoms: C_3  and  C_4
REMARK    4  A    between atoms: C_6  and  N_19
REMARK    5  A    between atoms: N_10  and  C_18
REMARK    6  A    between atoms: C_13  and  C_17
REMARK                            x       y       z     vdW  Elec       q    Type
REMARK                         _______ _______ _______ _____ _____    ______ ____
ROOT
ATOM      1  C   UNL     1      -0.136  -2.447   1.570  0.00  0.00    -0.044 A 
ATOM      2  C   UNL     1      -1.220  -3.276   1.790  0.00  0.00    +0.030 A 
ATOM      3  C   UNL     1      -1.099  -4.647   1.602  0.00  0.00    +0.069 A 
ATOM      4  C   UNL     1       0.116  -5.184   1.191  0.00  0.00    +0.162 A 
ATOM      5  C   UNL     1       1.204  -4.344   0.974  0.00  0.00    +0.080 A 
ATOM      6  C   UNL     1       1.073  -2.976   1.158  0.00  0.00    +0.031 A 
ATOM      7  N   UNL     1       2.428  -4.896   0.570  0.00  0.00    -0.271 N 
ATOM      8  C   UNL     1       2.451  -5.776  -0.456  0.00  0.00    +0.226 C 
ATOM      9  O   UNL     1       3.491  -6.311  -0.776  0.00  0.00    -0.275 OA
ATOM     10  C   UNL     1       1.179  -6.088  -1.200  0.00  0.00    +0.110 C 
ATOM     11  C   UNL     1       0.282  -6.986  -0.351  0.00  0.00    +0.241 C 
ATOM     12  O   UNL     1       0.248  -6.524   0.997  0.00  0.00    -0.488 OA
ATOM     13  C   UNL     1       0.440  -4.785  -1.511  0.00  0.00    +0.020 C 
ATOM     14  C   UNL     1       3.669  -4.523   1.253  0.00  0.00    +0.138 C 
ENDROOT
BRANCH   3  15
ATOM     15  N   UNL     1      -2.197  -5.485   1.825  0.00  0.00    -0.355 N 
ATOM     16  H   UNL     1      -3.044  -5.109   2.112  0.00  0.00    +0.142 HD
ATOM     17  H   UNL     1      -2.111  -6.443   1.693  0.00  0.00    +0.142 HD
ENDBRANCH   3  15
BRANCH   1  18
ATOM     18  C   UNL     1      -0.274  -0.960   1.775  0.00  0.00    +0.035 C 
BRANCH  18  20
ATOM     19  C   UNL     1      -0.866   1.204   0.675  0.00  0.00    +0.004 C 
ATOM     20  C   UNL     1      -0.725  -0.305   0.467  0.00  0.00    +0.001 C 
ENDBRANCH  18  20
ENDBRANCH   1  18
TORSDOF 3
