REMARK  Name = ZINC37284558
REMARK  6 active torsions:
REMARK  status: ('A' for Active; 'I' for Inactive)
REMARK    1  A    between atoms: C_1  and  C_2
REMARK    2  A    between atoms: C_2  and  C_4
REMARK    3  A    between atoms: C_2  and  N_10
REMARK    4  A    between atoms: N_10  and  C_11
REMARK    5  A    between atoms: C_11  and  C_12
REMARK    6  A    between atoms: C_15  and  N_17
REMARK                            x       y       z     vdW  Elec       q    Type
REMARK                         _______ _______ _______ _____ _____    ______ ____
ROOT
ATOM      1  N   UNL     1      -1.376  -0.512   0.012  0.00  0.00    -0.302 NA
ATOM      2  H   UNL     1      -1.974   0.053  -0.571  0.00  0.00    +0.123 HD
ENDROOT
BRANCH   1   4
ATOM      3  C   UNL     1      -0.019   1.526   0.010  0.00  0.00    +0.029 C 
ATOM      4  C   UNL     1       0.002  -0.004   0.002  0.00  0.00    +0.088 C 
BRANCH   4   5
ATOM      5  C   UNL     1       0.707  -0.490  -1.238  0.00  0.00    +0.008 A 
ATOM      6  C   UNL     1       1.980  -0.934  -1.377  0.00  0.00    +0.014 A 
ATOM      7  C   UNL     1       2.418  -1.335  -2.626  0.00  0.00    +0.028 A 
ATOM      8  C   UNL     1       1.560  -1.271  -3.674  0.00  0.00    +0.078 A 
ATOM      9  S   UNL     1       0.081  -0.638  -2.903  0.00  0.00    -0.080 S 
ATOM     10 CL   UNL     1       1.830  -1.701  -5.335  0.00  0.00    -0.076 Cl
ENDBRANCH   4   5
ENDBRANCH   1   4
BRANCH   1  11
ATOM     11  C   UNL     1      -1.898  -0.590   1.383  0.00  0.00    +0.156 C 
BRANCH  11  12
ATOM     12  C   UNL     1      -3.311  -1.115   1.354  0.00  0.00    +0.122 A 
ATOM     13  C   UNL     1      -3.671  -2.408   1.430  0.00  0.00    +0.048 A 
ATOM     14  C   UNL     1      -5.083  -2.444   1.365  0.00  0.00    +0.076 A 
ATOM     15  C   UNL     1      -5.501  -1.171   1.254  0.00  0.00    +0.280 A 
ATOM     16  O   UNL     1      -4.423  -0.369   1.253  0.00  0.00    -0.438 OA
BRANCH  15  17
ATOM     17  N   UNL     1      -6.910  -0.727   1.155  0.00  0.00    +0.093 N 
ATOM     18  O   UNL     1      -7.803  -1.542   1.171  0.00  0.00    -0.123 OA
ATOM     19  O   UNL     1      -7.168   0.450   1.058  0.00  0.00    -0.123 OA
ENDBRANCH  15  17
ENDBRANCH  11  12
ENDBRANCH   1  11
TORSDOF 5
