REMARK  Name = ZINC43687530
REMARK  4 active torsions:
REMARK  status: ('A' for Active; 'I' for Inactive)
REMARK    1  A    between atoms: C_3  and  O_11
REMARK    2  A    between atoms: C_4  and  C_8
REMARK    3  A    between atoms: O_11  and  C_12
REMARK    4  A    between atoms: C_12  and  C_13
REMARK                            x       y       z     vdW  Elec       q    Type
REMARK                         _______ _______ _______ _____ _____    ______ ____
ROOT
ATOM      1  C   UNL     1      -0.017   1.379   0.010  0.00  0.00    +0.006 A 
ATOM      2  C   UNL     1       1.165   2.095   0.002  0.00  0.00    +0.046 A 
ATOM      3  C   UNL     1       2.381   1.431  -0.013  0.00  0.00    +0.134 A 
ATOM      4  C   UNL     1       2.408   0.029  -0.021  0.00  0.00    +0.089 A 
ATOM      5  C   UNL     1       1.205  -0.684  -0.013  0.00  0.00    +0.137 A 
ATOM      6  C   UNL     1       0.002  -0.004   0.002  0.00  0.00    +0.039 A 
ATOM      7  F   UNL     1       1.219  -2.035  -0.021  0.00  0.00    -0.205 F 
ENDROOT
BRANCH   4   8
ATOM      8  C   UNL     1       3.697  -0.689  -0.038  0.00  0.00    +0.101 C 
ATOM      9  N   UNL     1       4.031  -1.434  -1.092  0.00  0.00    -0.387 N 
ATOM     10  N   UNL     1       4.527  -0.593   1.000  0.00  0.00    -0.344 N 
ATOM     11  H   UNL     1       3.426  -1.504  -1.847  0.00  0.00    +0.157 HD
ATOM     12  H   UNL     1       4.284  -0.050   1.767  0.00  0.00    +0.144 HD
ATOM     13  H   UNL     1       5.375  -1.065   0.989  0.00  0.00    +0.144 HD
ATOM     14  H   UNL     1       4.878  -1.906  -1.103  0.00  0.00    +0.157 HD
ENDBRANCH   4   8
BRANCH   3  15
ATOM     15  O   UNL     1       3.542   2.134  -0.022  0.00  0.00    -0.486 OA
BRANCH  15  16
ATOM     16  C   UNL     1       3.437   3.559  -0.013  0.00  0.00    +0.271 C 
BRANCH  16  17
ATOM     17  C   UNL     1       4.817   4.164  -0.024  0.00  0.00    +0.028 A 
ATOM     18  C   UNL     1       5.585   4.517  -1.083  0.00  0.00    +0.029 A 
ATOM     19  C   UNL     1       6.835   5.062  -0.853  0.00  0.00    +0.025 A 
ATOM     20  C   UNL     1       7.255   5.226   0.426  0.00  0.00    +0.060 A 
ATOM     21  S   UNL     1       5.860   4.609   1.354  0.00  0.00    -0.097 S 
ATOM     22 BR   UNL     1       7.943   5.569  -2.299  0.00  0.00    -0.050 Br
ENDBRANCH  16  17
ENDBRANCH  15  16
ENDBRANCH   3  15
TORSDOF 4
