REMARK  Name = ZINC51411490
REMARK  5 active torsions:
REMARK  status: ('A' for Active; 'I' for Inactive)
REMARK    1  A    between atoms: C_4  and  C_7
REMARK    2  A    between atoms: C_10  and  C_13
REMARK    3  A    between atoms: C_13  and  N_14
REMARK    4  A    between atoms: C_15  and  C_17
REMARK    5  A    between atoms: C_17  and  N_18
REMARK                            x       y       z     vdW  Elec       q    Type
REMARK                         _______ _______ _______ _____ _____    ______ ____
ROOT
ATOM      1  N   UNL     1       6.188  -3.995  -1.463  0.00  0.00    -0.307 N 
ATOM      2  C   UNL     1       6.788  -5.174  -1.725  0.00  0.00    +0.233 C 
ATOM      3  O   UNL     1       7.069  -5.926  -0.816  0.00  0.00    -0.274 OA
ATOM      4  H   UNL     1       5.963  -3.394  -2.190  0.00  0.00    +0.149 HD
ENDROOT
BRANCH   1   5
ATOM      5  C   UNL     1       5.875  -3.624  -0.081  0.00  0.00    +0.178 C 
BRANCH   5   9
ATOM      6  C   UNL     1       3.696  -0.685  -0.037  0.00  0.00    +0.066 A 
ATOM      7  C   UNL     1       4.937  -0.128  -0.041  0.00  0.00    +0.139 A 
ATOM      8  N   UNL     1       5.833  -1.122  -0.056  0.00  0.00    -0.239 NA
ATOM      9  C   UNL     1       5.212  -2.270  -0.063  0.00  0.00    +0.125 A 
ATOM     10  N   UNL     1       3.880  -2.049  -0.046  0.00  0.00    -0.341 N 
ATOM     11  H   UNL     1       3.183  -2.725  -0.044  0.00  0.00    +0.167 HD
BRANCH   6  15
ATOM     12  C   UNL     1      -0.017   1.379   0.010  0.00  0.00    +0.000 A 
ATOM     13  C   UNL     1       1.168   2.093   0.002  0.00  0.00    +0.001 A 
ATOM     14  C   UNL     1       2.377   1.429  -0.013  0.00  0.00    +0.010 A 
ATOM     15  C   UNL     1       2.403   0.034  -0.021  0.00  0.00    -0.000 A 
ATOM     16  C   UNL     1       1.204  -0.680  -0.013  0.00  0.00    +0.010 A 
ATOM     17  C   UNL     1       0.002  -0.004   0.002  0.00  0.00    +0.001 A 
ENDBRANCH   6  15
ENDBRANCH   5   9
ENDBRANCH   1   5
BRANCH   2  18
ATOM     18  C   UNL     1       7.110  -5.556  -3.146  0.00  0.00    +0.225 C 
BRANCH  18  19
ATOM     19  N   UNL     1       7.754  -6.872  -3.164  0.00  0.00    -0.252 N 
ATOM     20  C   UNL     1       9.099  -6.952  -3.066  0.00  0.00    +0.265 A 
ATOM     21  O   UNL     1       9.778  -5.949  -2.964  0.00  0.00    -0.267 OA
ATOM     22  C   UNL     1       9.722  -8.288  -3.086  0.00  0.00    +0.063 A 
ATOM     23  C   UNL     1      11.101  -8.454  -2.990  0.00  0.00    +0.015 A 
ATOM     24  C   UNL     1      11.635  -9.726  -3.013  0.00  0.00    +0.001 A 
ATOM     25  C   UNL     1      10.808 -10.832  -3.131  0.00  0.00    +0.002 A 
ATOM     26  C   UNL     1       9.440 -10.681  -3.228  0.00  0.00    +0.026 A 
ATOM     27  C   UNL     1       8.884  -9.411  -3.206  0.00  0.00    +0.056 A 
ATOM     28  N   UNL     1       7.514  -9.214  -3.300  0.00  0.00    -0.307 N 
ATOM     29  H   UNL     1       6.924  -9.980  -3.383  0.00  0.00    +0.170 HD
ATOM     30  C   UNL     1       6.996  -7.974  -3.272  0.00  0.00    +0.330 A 
ATOM     31  O   UNL     1       5.790  -7.846  -3.352  0.00  0.00    -0.246 OA
ENDBRANCH  18  19
ENDBRANCH   2  18
TORSDOF 5
