REMARK  Name = ZINC38786609
REMARK  12 active torsions:
REMARK  status: ('A' for Active; 'I' for Inactive)
REMARK    1  A    between atoms: C_1  and  C_2
REMARK    2  A    between atoms: C_2  and  C_3
REMARK    3  A    between atoms: C_3  and  C_4
REMARK    4  A    between atoms: C_10  and  C_12
REMARK    5  A    between atoms: C_12  and  S_13
REMARK    6  A    between atoms: S_13  and  C_14
REMARK    7  A    between atoms: N_17  and  C_21
REMARK    8  A    between atoms: C_21  and  C_22
REMARK    9  A    between atoms: C_22  and  C_23
REMARK   10  A    between atoms: C_23  and  N_24
REMARK   11  A    between atoms: N_24  and  C_25
REMARK   12  A    between atoms: N_24  and  C_26
REMARK                            x       y       z     vdW  Elec       q    Type
REMARK                         _______ _______ _______ _____ _____    ______ ____
ROOT
ATOM      1  C   UNL     1       0.611 -11.045  -1.464  0.00  0.00    +0.108 A 
ATOM      2  C   UNL     1      -0.102 -12.190  -1.895  0.00  0.00    +0.004 A 
ATOM      3  C   UNL     1       0.405 -13.408  -1.630  0.00  0.00    +0.029 A 
ATOM      4  N   UNL     1       1.586 -13.501  -0.942  0.00  0.00    -0.296 N 
ATOM      5  C   UNL     1       2.238 -12.396  -0.545  0.00  0.00    +0.350 A 
ATOM      6  O   UNL     1       3.290 -12.505   0.063  0.00  0.00    -0.244 OA
ATOM      7  N   UNL     1       1.756 -11.184  -0.811  0.00  0.00    -0.186 NA
ATOM      8  C   UNL     1      -0.263 -14.685  -2.064  0.00  0.00    +0.054 C 
ATOM      9  C   UNL     1      -1.729 -14.434  -2.412  0.00  0.00    +0.006 C 
ATOM     10  C   UNL     1      -1.799 -13.250  -3.383  0.00  0.00    +0.005 C 
ATOM     11  C   UNL     1      -1.401 -11.984  -2.626  0.00  0.00    +0.039 C 
ENDROOT
BRANCH   1  12
ATOM     12  S   UNL     1      -0.020  -9.435  -1.803  0.00  0.00    -0.096 S 
BRANCH  12  13
ATOM     13  C   UNL     1       1.214  -8.319  -1.081  0.00  0.00    +0.172 C 
BRANCH  13  20
ATOM     14  C   UNL     1       0.739  -2.004  -1.265  0.00  0.00    +0.104 A 
ATOM     15  N   UNL     1      -0.127  -2.859  -1.772  0.00  0.00    -0.145 NA
ATOM     16  N   UNL     1       0.095  -4.098  -1.662  0.00  0.00    -0.126 NA
ATOM     17  C   UNL     1       1.169  -4.561  -1.054  0.00  0.00    +0.188 A 
ATOM     18  S   UNL     1       1.948  -3.138  -0.597  0.00  0.00    -0.035 S 
ATOM     19  N   UNL     1       1.560  -5.880  -0.849  0.00  0.00    -0.263 N 
ATOM     20  C   UNL     1       0.791  -6.890  -1.303  0.00  0.00    +0.229 C 
ATOM     21  O   UNL     1      -0.242  -6.648  -1.891  0.00  0.00    -0.275 OA
ATOM     22  H   UNL     1       2.386  -6.074  -0.379  0.00  0.00    +0.157 HD
BRANCH  14  23
ATOM     23  C   UNL     1       0.718  -0.497  -1.257  0.00  0.00    +0.064 C 
BRANCH  23  25
ATOM     24  C   UNL     1      -0.019   1.526   0.010  0.00  0.00    +0.004 C 
ATOM     25  C   UNL     1       0.002  -0.004   0.002  0.00  0.00    +0.003 C 
ENDBRANCH  23  25
ENDBRANCH  14  23
ENDBRANCH  13  20
ENDBRANCH  12  13
ENDBRANCH   1  12
BRANCH   4  26
ATOM     26  C   UNL     1       2.143 -14.820  -0.636  0.00  0.00    +0.125 C 
BRANCH  26  27
ATOM     27  C   UNL     1       3.064 -15.262  -1.775  0.00  0.00    +0.003 C 
BRANCH  27  28
ATOM     28  C   UNL     1       3.647 -16.640  -1.455  0.00  0.00    -0.078 C 
BRANCH  28  29
ATOM     29  N   UNL     1       4.531 -17.064  -2.548  0.00  0.00    +0.376 N 
ATOM     30  C   UNL     1       5.183 -18.331  -2.188  0.00  0.00    -0.097 C 
ATOM     31  C   UNL     1       3.741 -17.251  -3.773  0.00  0.00    -0.097 C 
ATOM     32  H   UNL     1       5.234 -16.357  -2.706  0.00  0.00    -0.083 HD
ENDBRANCH  28  29
ENDBRANCH  27  28
ENDBRANCH  26  27
ENDBRANCH   4  26
TORSDOF 9
