REMARK  Name = ZINC04156435
REMARK  7 active torsions:
REMARK  status: ('A' for Active; 'I' for Inactive)
REMARK    1  A    between atoms: C_1  and  C_2
REMARK    2  A    between atoms: C_3  and  C_4
REMARK    3  A    between atoms: C_4  and  O_5
REMARK    4  A    between atoms: O_5  and  C_6
REMARK    5  A    between atoms: C_6  and  C_8
REMARK    6  A    between atoms: C_9  and  C_23
REMARK    7  A    between atoms: C_14  and  C_16
REMARK                            x       y       z     vdW  Elec       q    Type
REMARK                         _______ _______ _______ _____ _____    ______ ____
ROOT
ATOM      1  C   UNL     1       2.917   0.887  -1.462  0.00  0.00    +0.078 C 
ATOM      2  C   UNL     1       4.111   1.403  -1.825  0.00  0.00    +0.021 C 
ATOM      3  N   UNL     1       4.905   2.046  -0.920  0.00  0.00    -0.273 N 
ATOM      4  C   UNL     1       4.578   2.216   0.367  0.00  0.00    +0.304 C 
ATOM      5  O   UNL     1       5.351   2.804   1.098  0.00  0.00    -0.252 OA
ATOM      6  N   UNL     1       3.419   1.757   0.879  0.00  0.00    -0.288 N 
ATOM      7  C   UNL     1       2.490   1.048  -0.017  0.00  0.00    +0.144 C 
ATOM      8  C   UNL     1       4.574   1.266  -3.252  0.00  0.00    +0.061 C 
ATOM      9  H   UNL     1       5.755   2.401  -1.226  0.00  0.00    +0.156 HD
ATOM     10  H   UNL     1       3.201   1.891   1.815  0.00  0.00    +0.151 HD
ENDROOT
BRANCH   7  11
ATOM     11  C   UNL     1       1.175   1.783   0.000  0.00  0.00    -0.021 A 
ATOM     12  C   UNL     1       1.156   3.166   0.008  0.00  0.00    +0.006 A 
ATOM     13  C   UNL     1      -0.050   3.841   0.024  0.00  0.00    +0.002 A 
ATOM     14  C   UNL     1      -1.238   3.135   0.031  0.00  0.00    +0.020 A 
ATOM     15  C   UNL     1      -1.220   1.752   0.017  0.00  0.00    +0.041 A 
ATOM     16  C   UNL     1      -0.013   1.076   0.008  0.00  0.00    +0.025 A 
ATOM     17 CL   UNL     1      -2.712   0.864   0.019  0.00  0.00    -0.084 Cl
ENDBRANCH   7  11
BRANCH   1  18
ATOM     18  C   UNL     1       2.093   0.220  -2.398  0.00  0.00    +0.339 C 
ATOM     19  O   UNL     1       2.456   0.103  -3.554  0.00  0.00    -0.245 OA
BRANCH  18  20
ATOM     20  O   UNL     1       0.904  -0.287  -2.010  0.00  0.00    -0.457 OA
BRANCH  20  21
ATOM     21  C   UNL     1       0.124  -0.948  -3.008  0.00  0.00    +0.260 C 
BRANCH  21  24
ATOM     22  C   UNL     1      -3.581  -1.762  -2.407  0.00  0.00    +0.035 C 
ATOM     23  C   UNL     1      -2.297  -1.266  -3.020  0.00  0.00    -0.031 C 
ATOM     24  C   UNL     1      -1.160  -1.445  -2.395  0.00  0.00    +0.009 C 
ENDBRANCH  21  24
ENDBRANCH  20  21
ENDBRANCH  18  20
ENDBRANCH   1  18
TORSDOF 5
