REMARK  Name = ZINC20745458
REMARK  5 active torsions:
REMARK  status: ('A' for Active; 'I' for Inactive)
REMARK    1  A    between atoms: C_1  and  C_2
REMARK    2  A    between atoms: C_10  and  C_12
REMARK    3  A    between atoms: C_20  and  C_23
REMARK    4  A    between atoms: C_26  and  O_29
REMARK    5  A    between atoms: O_29  and  C_30
REMARK                            x       y       z     vdW  Elec       q    Type
REMARK                         _______ _______ _______ _____ _____    ______ ____
ROOT
ATOM      1  C   UNL     1       3.091   4.772  -0.398  0.00  0.00    +0.069 C 
ATOM      2  C   UNL     1       2.513   3.396  -0.186  0.00  0.00    +0.087 A 
ATOM      3  C   UNL     1       1.173   3.030  -0.276  0.00  0.00    +0.049 A 
ATOM      4  C   UNL     1       1.165   1.687   0.000  0.00  0.00    +0.226 A 
ATOM      5  O   UNL     1       2.430   1.345   0.224  0.00  0.00    -0.339 OA
ATOM      6  N   UNL     1       3.169   2.304   0.118  0.00  0.00    -0.081 NA
ATOM      7  N   UNL     1      -0.011   0.966   0.007  0.00  0.00    -0.286 N 
ATOM      8  C   UNL     1      -1.202   1.652   0.017  0.00  0.00    +0.019 C 
ATOM      9  C   UNL     1      -1.283   2.974  -0.239  0.00  0.00    +0.025 C 
ATOM     10  C   UNL     1      -0.066   3.805  -0.592  0.00  0.00    +0.097 C 
ATOM     11  C   UNL     1      -2.518   3.646  -0.193  0.00  0.00    +0.162 C 
ATOM     12  O   UNL     1      -2.556   4.834  -0.449  0.00  0.00    -0.292 OA
ATOM     13  C   UNL     1      -3.791   2.931   0.146  0.00  0.00    +0.088 C 
ATOM     14  C   UNL     1      -3.459   1.743   1.056  0.00  0.00    +0.032 C 
ATOM     15  C   UNL     1      -2.446   0.853   0.334  0.00  0.00    +0.059 C 
ATOM     16  H   UNL     1       0.018  -0.134   0.006  0.00  0.00    +0.155 HD
ENDROOT
BRANCH  14  17
ATOM     17  C   UNL     1      -4.712   0.957   1.343  0.00  0.00    -0.043 A 
ATOM     18  C   UNL     1      -5.440   0.413   0.301  0.00  0.00    +0.007 A 
ATOM     19  C   UNL     1      -6.586  -0.313   0.563  0.00  0.00    +0.046 A 
ATOM     20  C   UNL     1      -7.013  -0.486   1.871  0.00  0.00    +0.120 A 
ATOM     21  C   UNL     1      -6.284   0.066   2.915  0.00  0.00    +0.046 A 
ATOM     22  C   UNL     1      -5.135   0.786   2.649  0.00  0.00    +0.007 A 
BRANCH  20  23
ATOM     23  O   UNL     1      -8.143  -1.196   2.131  0.00  0.00    -0.495 OA
ATOM     24  C   UNL     1      -8.842  -1.735   1.008  0.00  0.00    +0.277 C 
ENDBRANCH  20  23
ENDBRANCH  14  17
BRANCH  10  25
ATOM     25  C   UNL     1      -0.091   4.135  -2.062  0.00  0.00    +0.002 A 
ATOM     26  C   UNL     1      -0.121   5.349  -2.664  0.00  0.00    +0.012 A 
ATOM     27  C   UNL     1      -0.139   5.413  -4.044  0.00  0.00    +0.008 A 
ATOM     28  C   UNL     1      -0.127   4.260  -4.756  0.00  0.00    +0.045 A 
ATOM     29  S   UNL     1      -0.082   3.029  -3.463  0.00  0.00    -0.101 S 
ENDBRANCH  10  25
TORSDOF 3
