REMARK  Name = ZINC01092151
REMARK  11 active torsions:
REMARK  status: ('A' for Active; 'I' for Inactive)
REMARK    1  A    between atoms: C_1  and  C_2
REMARK    2  A    between atoms: C_2  and  C_4
REMARK    3  A    between atoms: C_2  and  N_22
REMARK    4  A    between atoms: N_6  and  N_7
REMARK    5  A    between atoms: C_8  and  C_9
REMARK    6  A    between atoms: C_12  and  O_20
REMARK    7  A    between atoms: C_13  and  O_15
REMARK    8  A    between atoms: O_15  and  C_16
REMARK    9  A    between atoms: C_16  and  C_17
REMARK   10  A    between atoms: O_20  and  C_21
REMARK   11  A    between atoms: N_22  and  C_23
REMARK                            x       y       z     vdW  Elec       q    Type
REMARK                         _______ _______ _______ _____ _____    ______ ____
ROOT
ATOM      1  C   UNL     1      -0.749   3.086   1.275  0.00  0.00    +0.252 C 
ATOM      2  O   UNL     1      -0.224   3.695   2.183  0.00  0.00    -0.272 OA
ATOM      3  N   UNL     1      -1.352   3.757   0.274  0.00  0.00    -0.205 N 
ATOM      4  H   UNL     1      -1.772   3.271  -0.453  0.00  0.00    +0.177 HD
ENDROOT
BRANCH   1   6
ATOM      5  C   UNL     1      -0.013   1.086   0.008  0.00  0.00    +0.038 C 
ATOM      6  C   UNL     1      -0.729   1.579   1.267  0.00  0.00    +0.155 C 
BRANCH   6   7
ATOM      7  N   UNL     1      -0.020   1.094   2.454  0.00  0.00    -0.333 N 
ATOM      8  H   UNL     1       0.639   1.657   2.889  0.00  0.00    +0.147 HD
BRANCH   7   9
ATOM      9  C   UNL     1      -0.294  -0.178   2.959  0.00  0.00    +0.028 A 
ATOM     10  C   UNL     1      -1.248  -0.985   2.325  0.00  0.00    +0.023 A 
ATOM     11  C   UNL     1      -1.534  -2.228   2.795  0.00  0.00    +0.010 A 
ATOM     12  C   UNL     1      -0.868  -2.718   3.932  0.00  0.00    -0.018 A 
ATOM     13  C   UNL     1      -1.144  -4.000   4.439  0.00  0.00    +0.008 A 
ATOM     14  C   UNL     1      -0.481  -4.445   5.541  0.00  0.00    +0.001 A 
ATOM     15  C   UNL     1       0.469  -3.649   6.178  0.00  0.00    +0.001 A 
ATOM     16  C   UNL     1       0.762  -2.403   5.716  0.00  0.00    +0.008 A 
ATOM     17  C   UNL     1       0.098  -1.909   4.579  0.00  0.00    -0.016 A 
ATOM     18  C   UNL     1       0.380  -0.630   4.072  0.00  0.00    +0.031 A 
ENDBRANCH   7   9
ENDBRANCH   6   7
ENDBRANCH   1   6
BRANCH   3  19
ATOM     19  N   UNL     1      -1.371   5.158   0.281  0.00  0.00    -0.188 NA
ATOM     20  C   UNL     1      -1.951   5.805  -0.683  0.00  0.00    +0.138 C 
BRANCH  20  21
ATOM     21  C   UNL     1      -1.971   7.279  -0.675  0.00  0.00    -0.002 A 
ATOM     22  C   UNL     1      -1.371   7.981   0.373  0.00  0.00    +0.013 A 
ATOM     23  C   UNL     1      -1.386   9.360   0.376  0.00  0.00    +0.050 A 
ATOM     24  C   UNL     1      -2.006  10.053  -0.654  0.00  0.00    +0.162 A 
ATOM     25  C   UNL     1      -2.611   9.359  -1.700  0.00  0.00    +0.163 A 
ATOM     26  C   UNL     1      -2.595   7.976  -1.712  0.00  0.00    +0.059 A 
BRANCH  24  27
ATOM     27  O   UNL     1      -2.023  11.412  -0.643  0.00  0.00    -0.491 OA
ATOM     28  C   UNL     1      -1.383  12.060   0.458  0.00  0.00    +0.277 C 
ENDBRANCH  24  27
BRANCH  25  29
ATOM     29  O   UNL     1      -3.217  10.041  -2.708  0.00  0.00    -0.479 OA
BRANCH  29  30
ATOM     30  C   UNL     1      -3.817   9.265  -3.747  0.00  0.00    +0.324 C 
BRANCH  30  31
ATOM     31  C   UNL     1      -4.435  10.185  -4.768  0.00  0.00    +0.248 C 
ATOM     32  O   UNL     1      -4.368  11.387  -4.620  0.00  0.00    -0.272 OA
ATOM     33  N   UNL     1      -5.062   9.673  -5.846  0.00  0.00    -0.327 N 
ATOM     34  H   UNL     1      -5.115   8.711  -5.964  0.00  0.00    +0.145 HD
ATOM     35  H   UNL     1      -5.459  10.265  -6.503  0.00  0.00    +0.145 HD
ENDBRANCH  30  31
ENDBRANCH  29  30
ENDBRANCH  25  29
ENDBRANCH  20  21
ENDBRANCH   3  19
TORSDOF 9
