REMARK  Name = ZINC24965652
REMARK  6 active torsions:
REMARK  status: ('A' for Active; 'I' for Inactive)
REMARK    1  A    between atoms: C_1  and  N_2
REMARK    2  A    between atoms: N_2  and  C_3
REMARK    3  A    between atoms: C_6  and  C_11
REMARK    4  A    between atoms: C_11  and  S_12
REMARK    5  A    between atoms: S_12  and  C_13
REMARK    6  A    between atoms: N_23  and  C_24
REMARK                            x       y       z     vdW  Elec       q    Type
REMARK                         _______ _______ _______ _____ _____    ______ ____
ROOT
ATOM      1  C   UNL     1       5.402   3.821  -1.488  0.00  0.00    +0.177 A 
ATOM      2  N   UNL     1       5.769   4.069  -0.254  0.00  0.00    -0.223 NA
ATOM      3  C   UNL     1       7.065   4.290   0.068  0.00  0.00    +0.079 A 
ATOM      4  C   UNL     1       7.459   4.550   1.384  0.00  0.00    +0.028 A 
ATOM      5  C   UNL     1       8.778   4.774   1.663  0.00  0.00    +0.002 A 
ATOM      6  C   UNL     1       9.736   4.747   0.658  0.00  0.00    +0.001 A 
ATOM      7  C   UNL     1       9.381   4.496  -0.639  0.00  0.00    +0.015 A 
ATOM      8  C   UNL     1       8.043   4.264  -0.953  0.00  0.00    +0.065 A 
ATOM      9  C   UNL     1       7.604   3.990  -2.327  0.00  0.00    +0.267 A 
ATOM     10  O   UNL     1       8.399   3.955  -3.248  0.00  0.00    -0.267 OA
ATOM     11  N   UNL     1       6.283   3.778  -2.533  0.00  0.00    -0.255 N 
ENDROOT
BRANCH  11  12
ATOM     12  C   UNL     1       5.815   3.512  -3.826  0.00  0.00    +0.052 A 
ATOM     13  C   UNL     1       5.745   2.203  -4.285  0.00  0.00    +0.026 A 
ATOM     14  C   UNL     1       5.278   1.944  -5.558  0.00  0.00    +0.002 A 
ATOM     15  C   UNL     1       4.890   2.986  -6.380  0.00  0.00    +0.000 A 
ATOM     16  C   UNL     1       4.963   4.291  -5.928  0.00  0.00    +0.002 A 
ATOM     17  C   UNL     1       5.425   4.556  -4.653  0.00  0.00    +0.026 A 
ENDBRANCH  11  12
BRANCH   1  18
ATOM     18  S   UNL     1       3.695   3.538  -1.816  0.00  0.00    -0.079 S 
BRANCH  18  19
ATOM     19  C   UNL     1       3.021   3.707  -0.144  0.00  0.00    +0.153 C 
BRANCH  19  25
ATOM     20  C   UNL     1      -2.259   0.625   0.081  0.00  0.00    +0.132 C 
ATOM     21  N   UNL     1      -0.809   0.831   0.115  0.00  0.00    -0.306 N 
ATOM     22  C   UNL     1       0.088  -0.308   0.326  0.00  0.00    +0.132 C 
ATOM     23  C   UNL     1      -0.288   2.098  -0.052  0.00  0.00    +0.222 A 
ATOM     24  N   UNL     1       1.029   2.286  -0.021  0.00  0.00    -0.198 NA
ATOM     25  C   UNL     1       1.529   3.498  -0.180  0.00  0.00    +0.146 A 
ATOM     26  N   UNL     1       0.724   4.529  -0.371  0.00  0.00    -0.199 NA
ATOM     27  C   UNL     1      -0.595   4.349  -0.404  0.00  0.00    +0.217 A 
ATOM     28  N   UNL     1      -1.101   3.131  -0.244  0.00  0.00    -0.181 NA
ATOM     29  N   UNL     1      -1.434   5.425  -0.609  0.00  0.00    -0.327 N 
ATOM     30  H   UNL     1      -2.523   5.275  -0.635  0.00  0.00    +0.145 HD
ATOM     31  H   UNL     1      -1.014   6.432  -0.746  0.00  0.00    +0.145 HD
ENDBRANCH  19  25
ENDBRANCH  18  19
ENDBRANCH   1  18
TORSDOF 4
