REMARK  Name = ZINC63855889
REMARK  3 active torsions:
REMARK  status: ('A' for Active; 'I' for Inactive)
REMARK    1  A    between atoms: N_11  and  C_14
REMARK    2  A    between atoms: C_14  and  C_15
REMARK    3  A    between atoms: C_15  and  O_26
REMARK                            x       y       z     vdW  Elec       q    Type
REMARK                         _______ _______ _______ _____ _____    ______ ____
ROOT
ATOM      1  C   UNL     1       4.841   2.116  -0.033  0.00  0.00    +0.179 C 
ENDROOT
BRANCH   1  12
ATOM      2  C   UNL     1       0.769   4.866   0.039  0.00  0.00    +0.081 A 
ATOM      3  C   UNL     1       1.550   3.703   0.001  0.00  0.00    +0.116 A 
ATOM      4  C   UNL     1       2.950   3.812   0.018  0.00  0.00    +0.093 A 
ATOM      5  C   UNL     1       3.551   5.065   0.072  0.00  0.00    +0.079 A 
ATOM      6  C   UNL     1       2.770   6.204   0.109  0.00  0.00    +0.164 A 
ATOM      7  C   UNL     1       1.376   6.102   0.090  0.00  0.00    +0.164 A 
ATOM      8  O   UNL     1       0.599   7.221   0.117  0.00  0.00    -0.485 OA
ATOM      9  C   UNL     1       1.229   8.433   0.545  0.00  0.00    +0.270 C 
ATOM     10  C   UNL     1       2.576   8.556  -0.181  0.00  0.00    +0.270 C 
ATOM     11  O   UNL     1       3.377   7.421   0.165  0.00  0.00    -0.485 OA
ATOM     12  N   UNL     1       3.434   2.525  -0.029  0.00  0.00    -0.241 N 
ATOM     13  N   UNL     1       2.314   1.681  -0.072  0.00  0.00    -0.064 NA
ATOM     14  N   UNL     1       1.242   2.391  -0.053  0.00  0.00    -0.129 NA
ENDBRANCH   1  12
BRANCH   1  15
ATOM     15  C   UNL     1       5.311   1.921  -1.476  0.00  0.00    +0.074 C 
ATOM     16  C   UNL     1       4.418   0.889  -2.167  0.00  0.00    +0.033 C 
ATOM     17  C   UNL     1       4.569  -0.453  -1.443  0.00  0.00    -0.016 C 
ATOM     18  C   UNL     1       6.040  -0.865  -1.469  0.00  0.00    -0.078 C 
ATOM     19  N   UNL     1       6.861   0.144  -0.783  0.00  0.00    +0.383 N 
ATOM     20  C   UNL     1       6.763   1.433  -1.477  0.00  0.00    -0.035 C 
ATOM     21  C   UNL     1       7.620   2.482  -0.760  0.00  0.00    -0.013 C 
ATOM     22  C   UNL     1       9.078   2.021  -0.721  0.00  0.00    -0.003 C 
ATOM     23  C   UNL     1       9.143   0.658  -0.023  0.00  0.00    -0.019 C 
ATOM     24  C   UNL     1       8.254  -0.327  -0.782  0.00  0.00    -0.078 C 
ATOM     25  H   UNL     1       6.540   0.249   0.168  0.00  0.00    -0.081 HD
BRANCH  15  26
ATOM     26  O   UNL     1       5.227   3.164  -2.175  0.00  0.00    -0.388 OA
ATOM     27  H   UNL     1       4.335   3.535  -2.213  0.00  0.00    +0.210 HD
ENDBRANCH  15  26
ENDBRANCH   1  15
TORSDOF 3
