REMARK  Name = ZINC47002193
REMARK  6 active torsions:
REMARK  status: ('A' for Active; 'I' for Inactive)
REMARK    1  A    between atoms: C_1  and  N_2
REMARK    2  A    between atoms: C_7  and  N_12
REMARK    3  A    between atoms: N_15  and  C_16
REMARK    4  A    between atoms: N_15  and  C_17
REMARK    5  A    between atoms: C_17  and  C_18
REMARK    6  A    between atoms: C_23  and  O_24
REMARK                            x       y       z     vdW  Elec       q    Type
REMARK                         _______ _______ _______ _____ _____    ______ ____
ROOT
ATOM      1  N   UNL     1      -0.906  -4.283  -1.109  0.00  0.00    -0.292 N 
ATOM      2  C   UNL     1      -0.513  -5.173  -0.178  0.00  0.00    +0.303 C 
ATOM      3  O   UNL     1       0.622  -5.137   0.258  0.00  0.00    -0.253 OA
ATOM      4  N   UNL     1      -1.377  -6.105   0.272  0.00  0.00    -0.284 N 
ATOM      5  C   UNL     1      -2.744  -6.150  -0.253  0.00  0.00    +0.134 C 
ATOM      6  H   UNL     1      -1.812  -4.312  -1.456  0.00  0.00    +0.151 HD
ENDROOT
BRANCH   1  13
ATOM      7  C   UNL     1      -0.018   1.461   0.010  0.00  0.00    +0.172 C 
ATOM      8  N   UNL     1       0.002  -0.004   0.002  0.00  0.00    -0.271 N 
ATOM      9  C   UNL     1       0.008  -0.789  -1.088  0.00  0.00    +0.044 A 
ATOM     10  C   UNL     1       0.025  -2.081  -0.670  0.00  0.00    +0.013 A 
ATOM     11  C   UNL     1       0.032  -2.082   0.723  0.00  0.00    +0.140 A 
ATOM     12  N   UNL     1       0.025  -0.837   1.131  0.00  0.00    -0.179 NA
ATOM     13  C   UNL     1       0.033  -3.270  -1.598  0.00  0.00    +0.108 C 
ATOM     14  C   UNL     1      -0.395  -2.798  -2.993  0.00  0.00    +0.027 C 
ATOM     15  C   UNL     1       0.427  -1.569  -3.391  0.00  0.00    +0.008 C 
ATOM     16  C   UNL     1      -0.001  -0.369  -2.536  0.00  0.00    +0.055 C 
ENDBRANCH   1  13
BRANCH   4  17
ATOM     17  C   UNL     1      -0.949  -7.073   1.284  0.00  0.00    +0.147 C 
BRANCH  17  18
ATOM     18  C   UNL     1      -1.225  -6.518   2.658  0.00  0.00    +0.011 A 
ATOM     19  C   UNL     1      -0.204  -5.941   3.388  0.00  0.00    +0.009 A 
ATOM     20  C   UNL     1      -0.456  -5.432   4.649  0.00  0.00    +0.001 A 
ATOM     21  C   UNL     1      -1.731  -5.499   5.182  0.00  0.00    +0.004 A 
ATOM     22  C   UNL     1      -2.755  -6.076   4.456  0.00  0.00    +0.046 A 
ATOM     23  C   UNL     1      -2.505  -6.582   3.188  0.00  0.00    +0.122 A 
BRANCH  23  24
ATOM     24  O   UNL     1      -3.512  -7.145   2.470  0.00  0.00    -0.506 OA
ATOM     25  H   UNL     1      -3.617  -8.095   2.617  0.00  0.00    +0.292 HD
ENDBRANCH  23  24
ENDBRANCH  17  18
ENDBRANCH   4  17
TORSDOF 4
