REMARK  Name = ZINC21603582
REMARK  12 active torsions:
REMARK  status: ('A' for Active; 'I' for Inactive)
REMARK    1  A    between atoms: C_1  and  C_2
REMARK    2  A    between atoms: C_2  and  C_4
REMARK    3  A    between atoms: C_2  and  O_14
REMARK    4  A    between atoms: N_9  and  C_10
REMARK    5  A    between atoms: C_10  and  C_11
REMARK    6  A    between atoms: C_10  and  C_12
REMARK    7  A    between atoms: C_10  and  C_13
REMARK    8  A    between atoms: O_14  and  C_15
REMARK    9  A    between atoms: C_15  and  C_17
REMARK   10  A    between atoms: C_21  and  O_24
REMARK   11  A    between atoms: C_22  and  O_23
REMARK   12  A    between atoms: O_24  and  C_25
REMARK                            x       y       z     vdW  Elec       q    Type
REMARK                         _______ _______ _______ _____ _____    ______ ____
ROOT
ATOM      1  C   UNL     1      -0.729   1.579   1.267  0.00  0.00    +0.062 C 
ATOM      2  C   UNL     1      -0.013   1.086   0.008  0.00  0.00    +0.259 C 
ENDROOT
BRANCH   2   3
ATOM      3  C   UNL     1       1.401   1.607  -0.003  0.00  0.00    +0.261 C 
ATOM      4  O   UNL     1       1.753   2.387  -0.862  0.00  0.00    -0.271 OA
ATOM      5  N   UNL     1       2.274   1.208   0.943  0.00  0.00    -0.237 N 
ATOM      6  C   UNL     1       3.538   1.674   0.933  0.00  0.00    +0.306 C 
ATOM      7  O   UNL     1       3.892   2.455   0.072  0.00  0.00    -0.252 OA
ATOM      8  N   UNL     1       4.412   1.274   1.879  0.00  0.00    -0.294 N 
ATOM      9  H   UNL     1       1.955   0.500   1.723  0.00  0.00    +0.159 HD
ATOM     10  H   UNL     1       4.092   0.567   2.659  0.00  0.00    +0.151 HD
BRANCH   8  11
ATOM     11  C   UNL     1       5.786   1.781   1.869  0.00  0.00    +0.028 C 
ATOM     12  C   UNL     1       5.768   3.305   2.003  0.00  0.00    +0.031 C 
ATOM     13  C   UNL     1       6.562   1.175   3.040  0.00  0.00    +0.031 C 
ATOM     14  C   UNL     1       6.463   1.393   0.553  0.00  0.00    +0.031 C 
ENDBRANCH   8  11
ENDBRANCH   2   3
BRANCH   2  15
ATOM     15  O   UNL     1      -0.715   1.567  -1.168  0.00  0.00    -0.449 OA
BRANCH  15  16
ATOM     16  C   UNL     1      -1.691   0.780  -1.663  0.00  0.00    +0.344 C 
ATOM     17  O   UNL     1      -1.948  -0.279  -1.126  0.00  0.00    -0.245 OA
BRANCH  16  18
ATOM     18  C   UNL     1      -2.446   1.204  -2.855  0.00  0.00    +0.104 A 
ATOM     19  C   UNL     1      -2.154   2.422  -3.476  0.00  0.00    +0.019 A 
ATOM     20  C   UNL     1      -2.862   2.815  -4.591  0.00  0.00    +0.005 A 
ATOM     21  C   UNL     1      -3.865   2.008  -5.102  0.00  0.00    +0.049 A 
ATOM     22  C   UNL     1      -4.167   0.800  -4.499  0.00  0.00    +0.162 A 
ATOM     23  C   UNL     1      -3.457   0.386  -3.376  0.00  0.00    +0.173 A 
BRANCH  23  24
ATOM     24  O   UNL     1      -3.746  -0.801  -2.784  0.00  0.00    -0.503 OA
ATOM     25  H   UNL     1      -4.541  -1.441  -3.196  0.00  0.00    +0.292 HD
ENDBRANCH  23  24
BRANCH  22  26
ATOM     26  O   UNL     1      -5.154   0.014  -5.007  0.00  0.00    -0.491 OA
ATOM     27  C   UNL     1      -5.838   0.498  -6.165  0.00  0.00    +0.277 C 
ENDBRANCH  22  26
ENDBRANCH  16  18
ENDBRANCH  15  16
ENDBRANCH   2  15
TORSDOF 7
