REMARK  Name = ZINC08845503
REMARK  7 active torsions:
REMARK  status: ('A' for Active; 'I' for Inactive)
REMARK    1  A    between atoms: C_4  and  O_35
REMARK    2  A    between atoms: C_5  and  C_7
REMARK    3  A    between atoms: C_9  and  C_13
REMARK    4  A    between atoms: N_15  and  C_16
REMARK    5  A    between atoms: C_17  and  C_25
REMARK    6  A    between atoms: N_27  and  C_28
REMARK    7  A    between atoms: C_28  and  C_29
REMARK                            x       y       z     vdW  Elec       q    Type
REMARK                         _______ _______ _______ _____ _____    ______ ____
ROOT
ATOM      1  C   UNL     1      -0.199  -7.922  -0.049  0.00  0.00    +0.085 A 
ATOM      2  C   UNL     1       0.292  -9.219  -0.053  0.00  0.00    +0.069 A 
ATOM      3  C   UNL     1      -0.681 -10.297  -0.055  0.00  0.00    -0.023 A 
ATOM      4  C   UNL     1      -1.966  -9.882  -0.052  0.00  0.00    -0.004 A 
ATOM      5  S   UNL     1      -1.867  -8.116  -0.039  0.00  0.00    -0.077 S 
ATOM      6  C   UNL     1      -3.191 -10.744  -0.055  0.00  0.00    +0.043 C 
ATOM      7  C   UNL     1      -2.774 -12.171  -0.442  0.00  0.00    +0.005 C 
ATOM      8  C   UNL     1      -1.554 -12.575   0.391  0.00  0.00    +0.005 C 
ATOM      9  C   UNL     1      -0.329 -11.777  -0.059  0.00  0.00    +0.037 C 
ENDROOT
BRANCH   1  12
ATOM     10  C   UNL     1      -0.126  -5.556  -0.035  0.00  0.00    +0.266 C 
ATOM     11  O   UNL     1      -1.342  -5.528  -0.028  0.00  0.00    -0.268 OA
ATOM     12  N   UNL     1       0.521  -6.739  -0.046  0.00  0.00    -0.274 N 
ATOM     13  H   UNL     1       1.490  -6.761  -0.052  0.00  0.00    +0.156 HD
BRANCH  10  16
ATOM     14  C   UNL     1       1.244  -2.166  -0.023  0.00  0.00    +0.097 A 
ATOM     15  C   UNL     1       0.123  -3.017  -0.022  0.00  0.00    +0.062 A 
ATOM     16  C   UNL     1       0.639  -4.299  -0.032  0.00  0.00    +0.121 A 
ATOM     17  N   UNL     1       1.999  -4.169  -0.039  0.00  0.00    -0.272 N 
ATOM     18  H   UNL     1       2.630  -4.907  -0.047  0.00  0.00    +0.189 HD
ATOM     19  N   UNL     1       2.319  -2.926  -0.039  0.00  0.00    -0.173 NA
BRANCH  14  24
ATOM     20  C   UNL     1      -0.017   1.376   0.010  0.00  0.00    +0.001 A 
ATOM     21  C   UNL     1       1.169   2.089   0.002  0.00  0.00    +0.004 A 
ATOM     22  C   UNL     1       2.381   1.425  -0.013  0.00  0.00    +0.046 A 
ATOM     23  C   UNL     1       2.414   0.040  -0.022  0.00  0.00    +0.126 A 
ATOM     24  C   UNL     1       1.218  -0.682  -0.014  0.00  0.00    +0.044 A 
ATOM     25  C   UNL     1       0.002  -0.004   0.002  0.00  0.00    +0.014 A 
BRANCH  23  26
ATOM     26  O   UNL     1       3.605  -0.613  -0.038  0.00  0.00    -0.506 OA
ATOM     27  H   UNL     1       3.959  -0.807   0.841  0.00  0.00    +0.292 HD
ENDBRANCH  23  26
ENDBRANCH  14  24
ENDBRANCH  10  16
ENDBRANCH   1  12
BRANCH   2  28
ATOM     28  C   UNL     1       1.732  -9.490  -0.057  0.00  0.00    +0.247 C 
ATOM     29  O   UNL     1       2.333  -9.606   0.995  0.00  0.00    -0.270 OA
ATOM     30  N   UNL     1       2.392  -9.610  -1.226  0.00  0.00    -0.309 N 
ATOM     31  H   UNL     1       1.914  -9.518  -2.065  0.00  0.00    +0.149 HD
BRANCH  30  32
ATOM     32  C   UNL     1       3.832  -9.881  -1.230  0.00  0.00    +0.136 C 
BRANCH  32  33
ATOM     33  C   UNL     1       4.330  -9.971  -2.674  0.00  0.00    +0.135 C 
ATOM     34  C   UNL     1       5.820 -10.375  -2.689  0.00  0.00    +0.035 C 
ATOM     35  C   UNL     1       6.387  -9.500  -3.840  0.00  0.00    +0.031 C 
ATOM     36  C   UNL     1       5.526  -8.221  -3.689  0.00  0.00    +0.160 C 
ATOM     37  O   UNL     1       4.221  -8.690  -3.306  0.00  0.00    -0.375 OA
ENDBRANCH  32  33
ENDBRANCH  30  32
ENDBRANCH   2  28
TORSDOF 7
