REMARK  Name = ZINC46588506
REMARK  7 active torsions:
REMARK  status: ('A' for Active; 'I' for Inactive)
REMARK    1  A    between atoms: C_1  and  C_2
REMARK    2  A    between atoms: C_2  and  C_26
REMARK    3  A    between atoms: C_8  and  O_11
REMARK    4  A    between atoms: O_11  and  C_12
REMARK    5  A    between atoms: C_12  and  C_13
REMARK    6  A    between atoms: C_13  and  N_14
REMARK    7  A    between atoms: C_15  and  C_17
REMARK                            x       y       z     vdW  Elec       q    Type
REMARK                         _______ _______ _______ _____ _____    ______ ____
ROOT
ATOM      1  C   UNL     1       3.850  -0.801   5.250  0.00  0.00    +0.145 C 
ENDROOT
BRANCH   1   2
ATOM      2  N   UNL     1       3.019  -1.952   5.611  0.00  0.00    -0.306 N 
ATOM      3  C   UNL     1       2.583  -2.098   6.878  0.00  0.00    +0.280 C 
ATOM      4  O   UNL     1       2.880  -1.274   7.722  0.00  0.00    -0.267 OA
ATOM      5  H   UNL     1       2.782  -2.609   4.938  0.00  0.00    +0.149 HD
BRANCH   3   6
ATOM      6  C   UNL     1       1.750  -3.253   7.240  0.00  0.00    +0.190 A 
ATOM      7  C   UNL     1       1.251  -3.499   8.479  0.00  0.00    +0.063 A 
ATOM      8  C   UNL     1       0.491  -4.744   8.370  0.00  0.00    +0.021 A 
ATOM      9  C   UNL     1      -0.248  -5.516   9.270  0.00  0.00    +0.011 A 
ATOM     10  C   UNL     1      -0.856  -6.661   8.839  0.00  0.00    +0.001 A 
ATOM     11  C   UNL     1      -0.745  -7.061   7.515  0.00  0.00    +0.004 A 
ATOM     12  C   UNL     1      -0.020  -6.314   6.611  0.00  0.00    +0.047 A 
ATOM     13  C   UNL     1       0.607  -5.145   7.026  0.00  0.00    +0.136 A 
ATOM     14  O   UNL     1       1.359  -4.226   6.390  0.00  0.00    -0.450 OA
ENDBRANCH   3   6
ENDBRANCH   1   2
BRANCH   1  15
ATOM     15  C   UNL     1       4.205  -0.874   3.764  0.00  0.00    +0.248 C 
BRANCH  15  16
ATOM     16  O   UNL     1       3.016  -0.742   2.983  0.00  0.00    -0.487 OA
BRANCH  16  24
ATOM     17  C   UNL     1      -0.019   1.526   0.010  0.00  0.00    +0.056 C 
ATOM     18  C   UNL     1       0.002  -0.004   0.002  0.00  0.00    +0.109 C 
ATOM     19  C   UNL     1       0.832  -0.534  -1.191  0.00  0.00    +0.086 C 
ATOM     20  C   UNL     1       2.204  -0.704  -0.568  0.00  0.00    +0.002 A 
ATOM     21  C   UNL     1       3.456  -0.875  -1.120  0.00  0.00    +0.007 A 
ATOM     22  C   UNL     1       4.564  -1.000  -0.301  0.00  0.00    +0.004 A 
ATOM     23  C   UNL     1       4.412  -0.953   1.073  0.00  0.00    +0.049 A 
ATOM     24  C   UNL     1       3.157  -0.786   1.631  0.00  0.00    +0.162 A 
ATOM     25  C   UNL     1       2.034  -0.662   0.808  0.00  0.00    +0.166 A 
ATOM     26  O   UNL     1       0.721  -0.510   1.139  0.00  0.00    -0.482 OA
ATOM     27  C   UNL     1      -1.422  -0.563  -0.032  0.00  0.00    +0.056 C 
ENDBRANCH  16  24
ENDBRANCH  15  16
ENDBRANCH   1  15
TORSDOF 5
