REMARK  Name = ZINC00104207
REMARK  5 active torsions:
REMARK  status: ('A' for Active; 'I' for Inactive)
REMARK    1  A    between atoms: C_1  and  C_2
REMARK    2  A    between atoms: C_2  and  C_3
REMARK    3  A    between atoms: C_3  and  N_4
REMARK    4  A    between atoms: C_5  and  C_16
REMARK    5  A    between atoms: C_19  and  C_22
REMARK                            x       y       z     vdW  Elec       q    Type
REMARK                         _______ _______ _______ _____ _____    ______ ____
ROOT
ATOM      1  N   UNL     1      -1.410  -1.981   0.117  0.00  0.00    -0.275 N 
ATOM      2  C   UNL     1      -1.330  -2.806  -1.089  0.00  0.00    +0.193 C 
ATOM      3  N   UNL     1      -2.021  -4.085  -0.877  0.00  0.00    -0.321 N 
ATOM      4  C   UNL     1      -1.809  -4.764   0.317  0.00  0.00    +0.041 A 
ATOM      5  C   UNL     1      -1.879  -6.144   0.398  0.00  0.00    +0.024 A 
ATOM      6  C   UNL     1      -1.657  -6.770   1.609  0.00  0.00    +0.002 A 
ATOM      7  C   UNL     1      -1.365  -6.028   2.743  0.00  0.00    +0.001 A 
ATOM      8  C   UNL     1      -1.293  -4.651   2.680  0.00  0.00    +0.015 A 
ATOM      9  C   UNL     1      -1.516  -4.007   1.466  0.00  0.00    +0.058 A 
ATOM     10  C   UNL     1      -1.455  -2.539   1.344  0.00  0.00    +0.250 C 
ATOM     11  O   UNL     1      -1.448  -1.839   2.338  0.00  0.00    -0.270 OA
ATOM     12  H   UNL     1      -2.611  -4.447  -1.556  0.00  0.00    +0.148 HD
ENDROOT
BRANCH   2  13
ATOM     13  C   UNL     1       0.117  -3.073  -1.415  0.00  0.00    -0.009 A 
ATOM     14  C   UNL     1       0.464  -4.184  -2.161  0.00  0.00    +0.007 A 
ATOM     15  C   UNL     1       1.791  -4.429  -2.461  0.00  0.00    +0.004 A 
ATOM     16  C   UNL     1       2.771  -3.562  -2.015  0.00  0.00    -0.050 A 
ATOM     17  C   UNL     1       2.424  -2.450  -1.271  0.00  0.00    +0.004 A 
ATOM     18  C   UNL     1       1.097  -2.203  -0.974  0.00  0.00    +0.007 A 
ATOM     19  C   UNL     1       4.218  -3.829  -2.341  0.00  0.00    +0.044 C 
ENDBRANCH   2  13
BRANCH   1  20
ATOM     20  C   UNL     1      -1.437  -0.522  -0.011  0.00  0.00    +0.110 C 
BRANCH  20  22
ATOM     21  C   UNL     1      -2.912   1.494  -0.008  0.00  0.00    +0.005 C 
ATOM     22  C   UNL     1      -2.887  -0.035   0.002  0.00  0.00    +0.016 C 
ENDBRANCH  20  22
ENDBRANCH   1  20
TORSDOF 3
