REMARK  Name = ZINC16610647
REMARK  9 active torsions:
REMARK  status: ('A' for Active; 'I' for Inactive)
REMARK    1  A    between atoms: C_1  and  C_2
REMARK    2  A    between atoms: C_2  and  N_3
REMARK    3  A    between atoms: C_4  and  C_33
REMARK    4  A    between atoms: C_5  and  C_29
REMARK    5  A    between atoms: C_6  and  C_11
REMARK    6  A    between atoms: C_14  and  N_17
REMARK    7  A    between atoms: N_20  and  C_21
REMARK    8  A    between atoms: C_29  and  O_31
REMARK    9  A    between atoms: O_31  and  C_32
REMARK                            x       y       z     vdW  Elec       q    Type
REMARK                         _______ _______ _______ _____ _____    ______ ____
ROOT
ATOM      1  C   UNL     1      -3.743   7.387   0.128  0.00  0.00    -0.022 A 
ATOM      2  C   UNL     1      -2.554   8.090   0.061  0.00  0.00    +0.007 A 
ATOM      3  C   UNL     1      -1.352   7.413   0.006  0.00  0.00    +0.024 A 
ATOM      4  C   UNL     1      -1.337   6.024   0.017  0.00  0.00    +0.035 A 
ATOM      5  C   UNL     1      -2.533   5.321   0.078  0.00  0.00    +0.024 A 
ATOM      6  C   UNL     1      -3.732   6.004   0.138  0.00  0.00    +0.007 A 
ENDROOT
BRANCH   1  10
ATOM      7  N   UNL     1      -7.434   7.155   1.203  0.00  0.00    -0.286 N 
ATOM      8  C   UNL     1      -6.601   7.808   2.065  0.00  0.00    +0.021 C 
ATOM      9  C   UNL     1      -5.420   8.312   1.647  0.00  0.00    +0.078 C 
ATOM     10  C   UNL     1      -5.053   8.129   0.188  0.00  0.00    +0.141 C 
ATOM     11  N   UNL     1      -6.021   7.411  -0.659  0.00  0.00    -0.315 N 
ATOM     12  C   UNL     1      -7.160   6.965  -0.093  0.00  0.00    +0.138 C 
ATOM     13  S   UNL     1      -8.294   6.129  -1.066  0.00  0.00    -0.018 S 
ATOM     14  C   UNL     1      -7.006   7.968   3.508  0.00  0.00    +0.061 C 
ATOM     15  H   UNL     1      -5.843   7.263  -1.601  0.00  0.00    +0.149 HD
BRANCH   7  17
ATOM     16  C   UNL     1      -8.464   5.256   2.350  0.00  0.00    +0.025 C 
ATOM     17  C   UNL     1      -8.699   6.633   1.726  0.00  0.00    +0.109 C 
ENDBRANCH   7  17
BRANCH   9  18
ATOM     18  C   UNL     1      -4.556   8.988   2.539  0.00  0.00    +0.339 C 
ATOM     19  O   UNL     1      -4.871   9.122   3.707  0.00  0.00    -0.245 OA
BRANCH  18  20
ATOM     20  O   UNL     1      -3.381   9.483   2.096  0.00  0.00    -0.465 OA
ATOM     21  C   UNL     1      -2.558  10.154   3.052  0.00  0.00    +0.280 C 
ENDBRANCH  18  20
ENDBRANCH   9  18
ENDBRANCH   1  10
BRANCH   4  22
ATOM     22  N   UNL     1      -0.121   5.335  -0.039  0.00  0.00    -0.269 N 
ATOM     23  C   UNL     1       0.975   5.852   0.550  0.00  0.00    +0.308 C 
ATOM     24  O   UNL     1       0.886   6.869   1.212  0.00  0.00    -0.252 OA
ATOM     25  N   UNL     1       2.168   5.243   0.407  0.00  0.00    -0.267 N 
ATOM     26  H   UNL     1      -0.066   4.484  -0.503  0.00  0.00    +0.156 HD
ATOM     27  H   UNL     1       2.255   4.479  -0.184  0.00  0.00    +0.156 HD
BRANCH  25  28
ATOM     28  C   UNL     1       3.285   5.713   1.113  0.00  0.00    +0.070 A 
ATOM     29  C   UNL     1       3.111   6.478   2.258  0.00  0.00    +0.029 A 
ATOM     30  C   UNL     1       4.212   6.941   2.953  0.00  0.00    +0.040 A 
ATOM     31  C   UNL     1       5.489   6.642   2.508  0.00  0.00    +0.126 A 
ATOM     32  C   UNL     1       5.666   5.879   1.367  0.00  0.00    +0.078 A 
ATOM     33  C   UNL     1       4.567   5.414   0.668  0.00  0.00    +0.147 A 
ATOM     34  F   UNL     1       4.739   4.670  -0.446  0.00  0.00    -0.203 F 
ATOM     35  F   UNL     1       6.564   7.095   3.190  0.00  0.00    -0.205 F 
ENDBRANCH  25  28
ENDBRANCH   4  22
TORSDOF 6
