REMARK  Name = ZINC06607216
REMARK  5 active torsions:
REMARK  status: ('A' for Active; 'I' for Inactive)
REMARK    1  A    between atoms: C_1  and  C_2
REMARK    2  A    between atoms: C_8  and  N_10
REMARK    3  A    between atoms: C_14  and  C_16
REMARK    4  A    between atoms: C_16  and  S_17
REMARK    5  A    between atoms: S_17  and  C_18
REMARK                            x       y       z     vdW  Elec       q    Type
REMARK                         _______ _______ _______ _____ _____    ______ ____
ROOT
ATOM      1  N   UNL     1       0.056  -0.038   2.447  0.00  0.00    -0.296 N 
ATOM      2  C   UNL     1       0.738   0.093   3.602  0.00  0.00    +0.306 C 
ATOM      3  O   UNL     1       1.921  -0.180   3.644  0.00  0.00    -0.252 OA
ATOM      4  N   UNL     1       0.107   0.528   4.711  0.00  0.00    -0.239 N 
ATOM      5  C   UNL     1       0.789   0.659   5.866  0.00  0.00    +0.231 C 
ATOM      6  O   UNL     1       1.969   0.387   5.908  0.00  0.00    -0.274 OA
ATOM      7  H   UNL     1      -0.888   0.180   2.413  0.00  0.00    +0.151 HD
ATOM      8  H   UNL     1      -0.838   0.746   4.678  0.00  0.00    +0.159 HD
ENDROOT
BRANCH   1  15
ATOM      9  C   UNL     1      -0.019   1.526   0.010  0.00  0.00    +0.009 C 
ATOM     10  C   UNL     1       0.002  -0.004   0.002  0.00  0.00    +0.006 C 
ATOM     11  C   UNL     1       0.718  -0.497  -1.257  0.00  0.00    +0.005 C 
ATOM     12  C   UNL     1       0.739  -2.027  -1.265  0.00  0.00    +0.000 C 
ATOM     13  C   UNL     1       1.479  -2.534  -0.026  0.00  0.00    +0.002 C 
ATOM     14  C   UNL     1       0.763  -2.041   1.233  0.00  0.00    +0.022 C 
ATOM     15  C   UNL     1       0.742  -0.511   1.242  0.00  0.00    +0.077 C 
ENDBRANCH   1  15
BRANCH   5  16
ATOM     16  C   UNL     1       0.083   1.145   7.106  0.00  0.00    +0.173 C 
BRANCH  16  17
ATOM     17  S   UNL     1       1.261   1.215   8.484  0.00  0.00    -0.075 S 
BRANCH  17  18
ATOM     18  C   UNL     1       0.297   1.793   9.841  0.00  0.00    +0.210 A 
ATOM     19  N   UNL     1       0.750   2.007  11.081  0.00  0.00    -0.188 NA
ATOM     20  C   UNL     1      -0.234   2.436  11.843  0.00  0.00    +0.209 A 
ATOM     21  N   UNL     1      -1.349   2.504  11.086  0.00  0.00    -0.246 N 
ATOM     22  H   UNL     1      -2.230   2.787  11.375  0.00  0.00    +0.192 HD
ATOM     23  N   UNL     1      -0.980   2.088   9.797  0.00  0.00    -0.144 NA
ATOM     24  N   UNL     1      -0.141   2.760  13.184  0.00  0.00    -0.328 N 
ATOM     25  H   UNL     1       0.709   2.679  13.645  0.00  0.00    +0.145 HD
ATOM     26  H   UNL     1      -0.925   3.069  13.664  0.00  0.00    +0.145 HD
ENDBRANCH  17  18
ENDBRANCH  16  17
ENDBRANCH   5  16
TORSDOF 4
