REMARK  Name = ZINC02380145
REMARK  7 active torsions:
REMARK  status: ('A' for Active; 'I' for Inactive)
REMARK    1  A    between atoms: C_1  and  C_2
REMARK    2  A    between atoms: C_5  and  N_8
REMARK    3  A    between atoms: C_11  and  C_15
REMARK    4  A    between atoms: C_11  and  N_19
REMARK    5  A    between atoms: C_13  and  O_14
REMARK    6  A    between atoms: N_19  and  S_20
REMARK    7  A    between atoms: S_20  and  C_23
REMARK                            x       y       z     vdW  Elec       q    Type
REMARK                         _______ _______ _______ _____ _____    ______ ____
ROOT
ATOM      1  N   UNL     1       0.057  -4.172  -0.021  0.00  0.00    -0.194 N 
ATOM      2  C   UNL     1       0.164  -4.945   1.081  0.00  0.00    +0.241 C 
ATOM      3  O   UNL     1       0.261  -4.579   2.232  0.00  0.00    -0.274 OA
ATOM      4  C   UNL     1       0.137  -6.370   0.565  0.00  0.00    +0.185 C 
ATOM      5  N   UNL     1       0.007  -6.217  -0.893  0.00  0.00    -0.236 NA
ATOM      6  C   UNL     1      -0.037  -4.949  -1.150  0.00  0.00    +0.288 C 
ENDROOT
BRANCH   1  11
ATOM      7  C   UNL     1      -0.018   1.503   0.010  0.00  0.00    +0.044 C 
ATOM      8  C   UNL     1       0.002  -0.004   0.002  0.00  0.00    -0.050 A 
ATOM      9  C   UNL     1       0.027  -0.687  -1.200  0.00  0.00    +0.005 A 
ATOM     10  C   UNL     1       0.045  -2.068  -1.211  0.00  0.00    +0.024 A 
ATOM     11  C   UNL     1       0.039  -2.771  -0.013  0.00  0.00    +0.046 A 
ATOM     12  C   UNL     1       0.014  -2.082   1.192  0.00  0.00    +0.024 A 
ATOM     13  C   UNL     1       0.001  -0.701   1.196  0.00  0.00    +0.005 A 
ENDBRANCH   1  11
BRANCH   4  14
ATOM     14  C   UNL     1      -1.066  -7.125   1.135  0.00  0.00    +0.403 C 
ATOM     15  F   UNL     1      -2.246  -6.480   0.749  0.00  0.00    -0.170 F 
ATOM     16  F   UNL     1      -1.069  -8.435   0.646  0.00  0.00    -0.170 F 
ATOM     17  F   UNL     1      -0.982  -7.148   2.531  0.00  0.00    -0.170 F 
ENDBRANCH   4  14
BRANCH   6  18
ATOM     18  O   UNL     1      -0.160  -4.443  -2.397  0.00  0.00    -0.481 OA
ATOM     19  H   UNL     1      -0.215  -5.115  -3.090  0.00  0.00    +0.295 HD
ENDBRANCH   6  18
BRANCH   4  20
ATOM     20  N   UNL     1       1.385  -7.062   0.899  0.00  0.00    +0.505 NA
BRANCH  20  21
ATOM     21  S   UNL     1       1.605  -8.639   0.445  0.00  0.00    -0.055 S 
ATOM     22  O   UNL     1       0.660  -9.408   1.177  0.00  0.00    -0.191 OA
ATOM     23  O   UNL     1       1.658  -8.649  -0.975  0.00  0.00    -0.191 OA
BRANCH  21  24
ATOM     24  C   UNL     1       3.200  -9.127   1.012  0.00  0.00    +0.066 A 
ATOM     25  C   UNL     1       4.306  -8.948   0.203  0.00  0.00    +0.026 A 
ATOM     26  C   UNL     1       5.557  -9.330   0.647  0.00  0.00    +0.022 A 
ATOM     27  C   UNL     1       5.703  -9.892   1.903  0.00  0.00    +0.041 A 
ATOM     28  C   UNL     1       4.596 -10.071   2.713  0.00  0.00    +0.022 A 
ATOM     29  C   UNL     1       3.346  -9.683   2.270  0.00  0.00    +0.026 A 
ATOM     30 CL   UNL     1       7.275 -10.374   2.462  0.00  0.00    -0.084 Cl
ENDBRANCH  21  24
ENDBRANCH  20  21
ENDBRANCH   4  20
TORSDOF 6
