REMARK  Name = ZINC39730706
REMARK  4 active torsions:
REMARK  status: ('A' for Active; 'I' for Inactive)
REMARK    1  A    between atoms: C_4  and  N_7
REMARK    2  A    between atoms: C_11  and  S_12
REMARK    3  A    between atoms: S_12  and  C_13
REMARK    4  A    between atoms: C_13  and  C_14
REMARK                            x       y       z     vdW  Elec       q    Type
REMARK                         _______ _______ _______ _____ _____    ______ ____
ROOT
ATOM      1  S   UNL     1       4.025   0.299   2.936  0.00  0.00    -0.078 S 
ENDROOT
BRANCH   1   6
ATOM      2  N   UNL     1       2.799  -0.486   0.555  0.00  0.00    -0.291 N 
ATOM      3  C   UNL     1       3.121  -1.230  -0.551  0.00  0.00    +0.047 A 
ATOM      4  C   UNL     1       4.378  -1.683  -0.377  0.00  0.00    +0.064 A 
ATOM      5  N   UNL     1       4.827  -1.234   0.802  0.00  0.00    -0.226 NA
ATOM      6  C   UNL     1       3.892  -0.507   1.374  0.00  0.00    +0.174 A 
ATOM      7  C   UNL     1       5.108  -2.550  -1.374  0.00  0.00    +0.057 C 
ATOM      8  C   UNL     1       4.080  -3.142  -2.345  0.00  0.00    +0.007 C 
ATOM      9  C   UNL     1       3.183  -2.025  -2.885  0.00  0.00    +0.007 C 
ATOM     10  C   UNL     1       2.270  -1.517  -1.762  0.00  0.00    +0.056 C 
BRANCH   2  14
ATOM     11  C   UNL     1      -0.809   1.475   1.270  0.00  0.00    +0.000 A 
ATOM     12  C   UNL     1       0.353   2.206   1.104  0.00  0.00    +0.002 A 
ATOM     13  C   UNL     1       1.550   1.559   0.867  0.00  0.00    +0.026 A 
ATOM     14  C   UNL     1       1.586   0.173   0.795  0.00  0.00    +0.049 A 
ATOM     15  C   UNL     1       0.418  -0.558   0.962  0.00  0.00    +0.026 A 
ATOM     16  C   UNL     1      -0.776   0.095   1.199  0.00  0.00    +0.002 A 
ENDBRANCH   2  14
ENDBRANCH   1   6
BRANCH   1  17
ATOM     17  C   UNL     1       5.698  -0.115   3.502  0.00  0.00    +0.173 C 
BRANCH  17  18
ATOM     18  C   UNL     1       5.945   0.521   4.846  0.00  0.00    +0.227 C 
ATOM     19  O   UNL     1       5.078   1.188   5.370  0.00  0.00    -0.275 OA
ATOM     20  N   UNL     1       7.130   0.350   5.465  0.00  0.00    -0.285 N 
ATOM     21  C   UNL     1       7.842   1.399   5.829  0.00  0.00    +0.036 C 
ATOM     22  C   UNL     1       7.406   2.749   5.452  0.00  0.00    +0.025 C 
ATOM     23  C   UNL     1       8.128   3.825   5.821  0.00  0.00    +0.032 C 
ATOM     24  C   UNL     1       9.355   3.654   6.604  0.00  0.00    +0.095 C 
ATOM     25  N   UNL     1      10.253   4.483   7.101  0.00  0.00    -0.190 NA
ATOM     26  C   UNL     1      11.197   3.779   7.747  0.00  0.00    +0.369 C 
ATOM     27  O   UNL     1      12.264   4.330   8.373  0.00  0.00    -0.243 OA
ATOM     28  N   UNL     1      10.956   2.490   7.696  0.00  0.00    -0.190 NA
ATOM     29  C   UNL     1       9.803   2.301   6.989  0.00  0.00    +0.097 C 
ATOM     30  C   UNL     1       9.076   1.215   6.624  0.00  0.00    +0.053 C 
ATOM     31  H   UNL     1       7.459  -0.545   5.643  0.00  0.00    +0.155 HD
ENDBRANCH  17  18
ENDBRANCH   1  17
TORSDOF 4
