REMARK  Name = ZINC06511222
REMARK  15 active torsions:
REMARK  status: ('A' for Active; 'I' for Inactive)
REMARK    1  A    between atoms: C_1  and  C_2
REMARK    2  A    between atoms: C_2  and  N_67
REMARK    3  A    between atoms: C_3  and  C_4
REMARK    4  A    between atoms: C_3  and  N_67
REMARK    5  A    between atoms: C_5  and  C_6
REMARK    6  A    between atoms: C_5  and  N_67
REMARK    7  A    between atoms: C_6  and  C_7
REMARK    8  A    between atoms: C_7  and  N_8
REMARK    9  A    between atoms: N_8  and  C_9
REMARK   10  A    between atoms: C_9  and  C_11
REMARK   11  A    between atoms: C_9  and  C_12
REMARK   12  A    between atoms: N_14  and  C_15
REMARK   13  A    between atoms: C_21  and  C_23
REMARK   14  A    between atoms: C_24  and  N_31
REMARK   15  A    between atoms: C_25  and  C_28
REMARK                            x       y       z     vdW  Elec       q    Type
REMARK                         _______ _______ _______ _____ _____    ______ ____
ROOT
ATOM      1  N   UNL     1       4.205   0.778   0.061  0.00  0.00    -0.286 N 
ATOM      2  C   UNL     1       3.294  -0.120   0.486  0.00  0.00    +0.257 C 
ATOM      3  O   UNL     1       3.596  -1.295   0.580  0.00  0.00    -0.269 OA
ENDROOT
BRANCH   2   4
ATOM      4  C   UNL     1       1.941   0.319   0.835  0.00  0.00    +0.115 A 
ATOM      5  C   UNL     1       0.819  -0.446   1.160  0.00  0.00    +0.076 A 
ATOM      6  C   UNL     1      -0.300   0.339   1.436  0.00  0.00    +0.155 A 
ATOM      7  N   UNL     1      -0.201   1.648   1.369  0.00  0.00    -0.203 NA
ATOM      8  S   UNL     1       1.287   1.970   0.960  0.00  0.00    +0.019 S 
BRANCH   6   9
ATOM      9  C   UNL     1      -1.582  -0.293   1.799  0.00  0.00    +0.262 C 
ATOM     10  O   UNL     1      -1.667  -1.505   1.859  0.00  0.00    -0.269 OA
ATOM     11  N   UNL     1      -2.659   0.472   2.064  0.00  0.00    -0.324 N 
ATOM     12  H   UNL     1      -2.591   1.438   2.017  0.00  0.00    +0.145 HD
ATOM     13  H   UNL     1      -3.502   0.056   2.303  0.00  0.00    +0.145 HD
ENDBRANCH   6   9
BRANCH   5  14
ATOM     14  N   UNL     1       0.818  -1.834   1.203  0.00  0.00    -0.355 N 
ATOM     15  H   UNL     1       0.006  -2.311   1.435  0.00  0.00    +0.142 HD
ATOM     16  H   UNL     1       1.629  -2.326   1.000  0.00  0.00    +0.142 HD
ENDBRANCH   5  14
ENDBRANCH   2   4
BRANCH   1  17
ATOM     17  C   UNL     1       5.535   0.330  -0.357  0.00  0.00    +0.159 C 
ATOM     18  C   UNL     1       5.400  -0.643  -1.530  0.00  0.00    +0.038 C 
BRANCH  17  19
ATOM     19  C   UNL     1       6.217  -0.363   0.794  0.00  0.00    +0.234 C 
ATOM     20  O   UNL     1       5.648  -0.472   1.859  0.00  0.00    -0.274 OA
ATOM     21  N   UNL     1       7.460  -0.862   0.640  0.00  0.00    -0.311 N 
ATOM     22  H   UNL     1       7.915  -0.775  -0.212  0.00  0.00    +0.149 HD
BRANCH  21  23
ATOM     23  C   UNL     1       8.123  -1.535   1.760  0.00  0.00    +0.073 C 
ATOM     24  C   UNL     1       8.809  -0.494   2.647  0.00  0.00    +0.022 C 
ATOM     25  C   UNL     1       9.501  -1.198   3.816  0.00  0.00    +0.002 C 
ATOM     26  C   UNL     1      10.546  -2.176   3.276  0.00  0.00    +0.000 C 
ATOM     27  C   UNL     1       9.860  -3.217   2.389  0.00  0.00    +0.002 C 
ATOM     28  C   UNL     1       9.168  -2.514   1.220  0.00  0.00    +0.022 C 
ENDBRANCH  21  23
ENDBRANCH  17  19
ENDBRANCH   1  17
BRANCH   1  29
ATOM     29  C   UNL     1       3.864   2.202   0.017  0.00  0.00    +0.107 C 
BRANCH  29  30
ATOM     30  C   UNL     1       4.050   2.814   1.407  0.00  0.00    +0.000 C 
BRANCH  30  31
ATOM     31  C   UNL     1       3.694   4.301   1.361  0.00  0.00    -0.077 C 
BRANCH  31  32
ATOM     32  N   UNL     1       3.858   4.872   2.715  0.00  0.00    +0.379 N 
ATOM     33  H   UNL     1       3.340   4.294   3.386  0.00  0.00    -0.082 HD
BRANCH  32  35
ATOM     34  C   UNL     1       6.113   5.634   2.046  0.00  0.00    -0.017 C 
ATOM     35  C   UNL     1       5.288   4.880   3.090  0.00  0.00    -0.082 C 
ENDBRANCH  32  35
BRANCH  32  36
ATOM     36  C   UNL     1       3.320   6.248   2.751  0.00  0.00    -0.082 C 
ATOM     37  C   UNL     1       3.369   6.762   4.191  0.00  0.00    -0.017 C 
ENDBRANCH  32  36
ENDBRANCH  31  32
ENDBRANCH  30  31
ENDBRANCH  29  30
ENDBRANCH   1  29
TORSDOF 12
