REMARK  Name = ZINC17045435
REMARK  9 active torsions:
REMARK  status: ('A' for Active; 'I' for Inactive)
REMARK    1  A    between atoms: C_1  and  C_2
REMARK    2  A    between atoms: C_2  and  C_3
REMARK    3  A    between atoms: C_3  and  C_5
REMARK    4  A    between atoms: C_3  and  C_6
REMARK    5  A    between atoms: C_6  and  C_8
REMARK    6  A    between atoms: C_6  and  N_17
REMARK    7  A    between atoms: N_10  and  C_11
REMARK    8  A    between atoms: C_11  and  C_12
REMARK    9  A    between atoms: C_22  and  O_30
REMARK                            x       y       z     vdW  Elec       q    Type
REMARK                         _______ _______ _______ _____ _____    ______ ____
ROOT
ATOM      1  N   UNL     1      -0.484  -2.624  -1.134  0.00  0.00    -0.287 N 
ATOM      2  C   UNL     1      -1.182  -2.851  -2.264  0.00  0.00    +0.308 C 
ATOM      3  O   UNL     1      -0.705  -2.557  -3.343  0.00  0.00    -0.252 OA
ATOM      4  N   UNL     1      -2.409  -3.406  -2.199  0.00  0.00    -0.245 N 
ATOM      5  C   UNL     1      -3.019  -3.769  -0.909  0.00  0.00    +0.210 C 
ATOM      6  C   UNL     1      -3.730  -5.089  -1.059  0.00  0.00    +0.206 C 
ATOM      7  N   UNL     1      -4.204  -5.481  -2.199  0.00  0.00    -0.214 NA
ATOM      8  C   UNL     1      -4.075  -4.724  -3.333  0.00  0.00    +0.089 A 
ATOM      9  C   UNL     1      -3.162  -3.656  -3.356  0.00  0.00    +0.064 A 
ATOM     10  C   UNL     1      -3.016  -2.884  -4.491  0.00  0.00    +0.026 A 
ATOM     11  C   UNL     1      -3.782  -3.160  -5.611  0.00  0.00    +0.002 A 
ATOM     12  C   UNL     1      -4.691  -4.203  -5.596  0.00  0.00    +0.002 A 
ATOM     13  C   UNL     1      -4.839  -4.994  -4.465  0.00  0.00    +0.030 A 
ATOM     14  H   UNL     1      -0.865  -2.859  -0.273  0.00  0.00    +0.151 HD
ENDROOT
BRANCH   6  15
ATOM     15  O   UNL     1      -3.877  -5.884   0.022  0.00  0.00    -0.494 OA
ATOM     16  H   UNL     1      -4.343  -6.711  -0.159  0.00  0.00    +0.293 HD
ENDBRANCH   6  15
BRANCH   1  17
ATOM     17  C   UNL     1       0.849  -2.021  -1.205  0.00  0.00    +0.163 C 
BRANCH  17  18
ATOM     18  C   UNL     1       1.645  -2.416   0.013  0.00  0.00    +0.234 C 
ATOM     19  O   UNL     1       1.147  -3.130   0.857  0.00  0.00    -0.274 OA
ATOM     20  N   UNL     1       2.909  -1.975   0.164  0.00  0.00    -0.307 N 
ATOM     21  H   UNL     1       3.308  -1.403  -0.511  0.00  0.00    +0.149 HD
BRANCH  20  22
ATOM     22  C   UNL     1       3.682  -2.358   1.347  0.00  0.00    +0.178 C 
BRANCH  22  23
ATOM     23  C   UNL     1       5.054  -1.738   1.274  0.00  0.00    +0.122 A 
ATOM     24  C   UNL     1       5.401  -0.536   1.768  0.00  0.00    +0.046 A 
ATOM     25  C   UNL     1       6.774  -0.356   1.479  0.00  0.00    +0.041 A 
ATOM     26  C   UNL     1       7.183  -1.458   0.826  0.00  0.00    +0.195 A 
ATOM     27  O   UNL     1       6.138  -2.295   0.710  0.00  0.00    -0.466 OA
ENDBRANCH  22  23
ENDBRANCH  20  22
ENDBRANCH  17  18
BRANCH  17  28
ATOM     28  C   UNL     1       0.718  -0.497  -1.257  0.00  0.00    +0.015 C 
ATOM     29  C   UNL     1      -0.089  -0.097  -2.493  0.00  0.00    +0.010 C 
BRANCH  28  31
ATOM     30  C   UNL     1      -0.019   1.526   0.010  0.00  0.00    +0.004 C 
ATOM     31  C   UNL     1       0.002  -0.004   0.002  0.00  0.00    +0.002 C 
ENDBRANCH  28  31
ENDBRANCH  17  28
ENDBRANCH   1  17
TORSDOF 7
