REMARK  Name = ZINC29240653
REMARK  3 active torsions:
REMARK  status: ('A' for Active; 'I' for Inactive)
REMARK    1  A    between atoms: C_1  and  C_2
REMARK    2  A    between atoms: C_4  and  C_7
REMARK    3  A    between atoms: C_13  and  C_15
REMARK                            x       y       z     vdW  Elec       q    Type
REMARK                         _______ _______ _______ _____ _____    ______ ____
ROOT
ATOM      1  C   UNL     1      -1.316  -3.302  -0.075  0.00  0.00    +0.128 C 
ATOM      2  C   UNL     1      -1.521  -3.606  -1.574  0.00  0.00    +0.030 C 
ATOM      3  C   UNL     1      -1.430  -5.153  -1.631  0.00  0.00    +0.021 C 
ATOM      4  C   UNL     1      -0.358  -5.442  -0.551  0.00  0.00    +0.109 C 
ATOM      5  N   UNL     1      -0.619  -4.454   0.516  0.00  0.00    -0.289 N 
ATOM      6  C   UNL     1      -0.276  -4.584   1.812  0.00  0.00    +0.247 C 
ATOM      7  O   UNL     1      -0.483  -3.673   2.591  0.00  0.00    -0.270 OA
ENDROOT
BRANCH   6   8
ATOM      8  C   UNL     1       0.350  -5.832   2.288  0.00  0.00    +0.039 A 
ATOM      9  C   UNL     1       1.100  -6.617   1.407  0.00  0.00    +0.014 A 
ATOM     10  C   UNL     1       1.686  -7.784   1.848  0.00  0.00    +0.017 A 
ATOM     11  C   UNL     1       1.531  -8.178   3.171  0.00  0.00    +0.029 A 
ATOM     12  C   UNL     1       0.785  -7.398   4.057  0.00  0.00    +0.048 A 
ATOM     13  C   UNL     1       0.199  -6.226   3.622  0.00  0.00    +0.037 A 
ATOM     14  N   UNL     1       0.645  -7.813   5.391  0.00  0.00    -0.285 N 
ATOM     15  C   UNL     1       1.722  -8.150   6.111  0.00  0.00    +0.218 C 
ATOM     16  O   UNL     1       1.573  -8.687   7.188  0.00  0.00    -0.275 OA
ATOM     17  C   UNL     1       3.109  -7.876   5.611  0.00  0.00    +0.107 C 
ATOM     18  C   UNL     1       3.638  -9.075   4.806  0.00  0.00    +0.083 C 
ATOM     19  S   UNL     1       2.270  -9.670   3.753  0.00  0.00    -0.123 S 
ATOM     20  H   UNL     1      -0.237  -7.855   5.793  0.00  0.00    +0.155 HD
ENDBRANCH   6   8
BRANCH   1  24
ATOM     21  C   UNL     1       0.033   1.592   0.353  0.00  0.00    +0.089 C 
ATOM     22  C   UNL     1       0.091   0.088   0.273  0.00  0.00    +0.135 A 
ATOM     23  C   UNL     1      -0.961  -0.738   0.112  0.00  0.00    +0.072 A 
ATOM     24  C   UNL     1      -0.480  -2.059   0.087  0.00  0.00    +0.104 A 
ATOM     25  N   UNL     1       0.815  -2.021   0.230  0.00  0.00    -0.081 NA
ATOM     26  O   UNL     1       1.200  -0.663   0.345  0.00  0.00    -0.360 OA
ENDBRANCH   1  24
TORSDOF 2
