REMARK  Name = ZINC09456789
REMARK  6 active torsions:
REMARK  status: ('A' for Active; 'I' for Inactive)
REMARK    1  A    between atoms: C_1  and  C_2
REMARK    2  A    between atoms: C_2  and  C_4
REMARK    3  A    between atoms: C_2  and  S_10
REMARK    4  A    between atoms: S_10  and  C_11
REMARK    5  A    between atoms: C_14  and  C_15
REMARK    6  A    between atoms: N_24  and  C_25
REMARK                            x       y       z     vdW  Elec       q    Type
REMARK                         _______ _______ _______ _____ _____    ______ ____
ROOT
ATOM      1  C   UNL     1       0.970   3.721   1.456  0.00  0.00    +0.169 C 
ATOM      2  N   UNL     1       1.897   2.800   1.503  0.00  0.00    -0.220 NA
ATOM      3  C   UNL     1       3.122   3.397   1.596  0.00  0.00    +0.129 C 
ATOM      4  C   UNL     1       4.336   2.777   1.669  0.00  0.00    +0.041 C 
ATOM      5  C   UNL     1       2.864   4.850   1.603  0.00  0.00    +0.275 C 
ATOM      6  O   UNL     1       3.687   5.745   1.675  0.00  0.00    -0.268 OA
ATOM      7  N   UNL     1       1.522   4.979   1.508  0.00  0.00    -0.212 N 
ENDROOT
BRANCH   7   8
ATOM      8  C   UNL     1       0.814   6.188   1.474  0.00  0.00    +0.063 A 
ATOM      9  C   UNL     1       0.380   6.774   2.655  0.00  0.00    +0.025 A 
ATOM     10  C   UNL     1      -0.318   7.966   2.619  0.00  0.00    +0.003 A 
ATOM     11  C   UNL     1      -0.584   8.576   1.407  0.00  0.00    +0.021 A 
ATOM     12  C   UNL     1      -0.154   7.996   0.227  0.00  0.00    +0.061 A 
ATOM     13  C   UNL     1       0.550   6.805   0.258  0.00  0.00    +0.081 A 
ATOM     14 CL   UNL     1       1.097   6.080  -1.222  0.00  0.00    -0.080 Cl
ATOM     15 CL   UNL     1      -0.491   8.766  -1.292  0.00  0.00    -0.082 Cl
ENDBRANCH   7   8
BRANCH   4  16
ATOM     16  C   UNL     1       4.408   1.315   1.776  0.00  0.00    -0.023 A 
ATOM     17  C   UNL     1       3.241   0.544   1.686  0.00  0.00    +0.009 A 
ATOM     18  C   UNL     1       3.318  -0.828   1.782  0.00  0.00    +0.020 A 
ATOM     19  C   UNL     1       4.543  -1.445   1.979  0.00  0.00    +0.041 A 
ATOM     20  C   UNL     1       5.701  -0.690   2.074  0.00  0.00    +0.020 A 
ATOM     21  C   UNL     1       5.642   0.683   1.974  0.00  0.00    +0.009 A 
ATOM     22 CL   UNL     1       4.628  -3.174   2.106  0.00  0.00    -0.084 Cl
ENDBRANCH   4  16
BRANCH   1  23
ATOM     23  S   UNL     1      -0.757   3.395   1.333  0.00  0.00    -0.077 S 
BRANCH  23  25
ATOM     24  C   UNL     1      -0.029   1.104   0.034  0.00  0.00    +0.029 C 
ATOM     25  C   UNL     1      -0.733   1.585   1.305  0.00  0.00    +0.137 C 
BRANCH  25  26
ATOM     26  C   UNL     1      -2.147   1.064   1.324  0.00  0.00    +0.233 C 
ATOM     27  O   UNL     1      -3.053   1.754   0.908  0.00  0.00    -0.274 OA
ATOM     28  N   UNL     1      -2.404  -0.169   1.804  0.00  0.00    -0.239 N 
ATOM     29  C   UNL     1      -3.669  -0.635   1.821  0.00  0.00    +0.303 C 
ATOM     30  O   UNL     1      -4.577   0.056   1.404  0.00  0.00    -0.253 OA
ATOM     31  N   UNL     1      -3.926  -1.868   2.301  0.00  0.00    -0.313 N 
ATOM     32  H   UNL     1      -1.679  -0.721   2.136  0.00  0.00    +0.159 HD
ATOM     33  H   UNL     1      -3.201  -2.420   2.633  0.00  0.00    +0.146 HD
ATOM     34  H   UNL     1      -4.836  -2.204   2.313  0.00  0.00    +0.146 HD
ENDBRANCH  25  26
ENDBRANCH  23  25
ENDBRANCH   1  23
TORSDOF 5
