REMARK  Name = ZINC63626079
REMARK  11 active torsions:
REMARK  status: ('A' for Active; 'I' for Inactive)
REMARK    1  A    between atoms: C_1  and  C_2
REMARK    2  A    between atoms: C_5  and  C_8
REMARK    3  A    between atoms: N_10  and  C_11
REMARK    4  A    between atoms: C_11  and  C_13
REMARK    5  A    between atoms: C_11  and  C_23
REMARK    6  A    between atoms: C_13  and  C_14
REMARK    7  A    between atoms: N_25  and  C_26
REMARK    8  A    between atoms: C_26  and  C_27
REMARK    9  A    between atoms: C_27  and  C_28
REMARK   10  A    between atoms: C_31  and  S_34
REMARK   11  A    between atoms: S_34  and  N_37
REMARK                            x       y       z     vdW  Elec       q    Type
REMARK                         _______ _______ _______ _____ _____    ______ ____
ROOT
ATOM      1  C   UNL     1      -1.489  -1.536   4.873  0.00  0.00    +0.163 C 
ENDROOT
BRANCH   1   4
ATOM      2  C   UNL     1      -1.911  -3.081   3.037  0.00  0.00    +0.217 C 
ATOM      3  O   UNL     1      -2.925  -3.433   3.602  0.00  0.00    -0.275 OA
ATOM      4  N   UNL     1      -1.152  -2.100   3.564  0.00  0.00    -0.303 N 
ATOM      5  H   UNL     1      -0.382  -1.767   3.076  0.00  0.00    +0.149 HD
BRANCH   2  10
ATOM      6  C   UNL     1      -4.981  -2.074  -0.212  0.00  0.00    +0.007 C 
ATOM      7  C   UNL     1      -3.682  -2.852   0.004  0.00  0.00    -0.014 C 
ATOM      8  C   UNL     1      -3.900  -3.922   1.075  0.00  0.00    +0.004 C 
ATOM      9  C   UNL     1      -2.601  -4.701   1.291  0.00  0.00    +0.013 C 
ATOM     10  C   UNL     1      -1.500  -3.740   1.746  0.00  0.00    +0.075 C 
ATOM     11  C   UNL     1      -1.282  -2.670   0.674  0.00  0.00    +0.013 C 
ATOM     12  C   UNL     1      -2.581  -1.892   0.458  0.00  0.00    +0.004 C 
ENDBRANCH   2  10
ENDBRANCH   1   4
BRANCH   1  13
ATOM     13  C   UNL     1      -0.943  -2.426   5.959  0.00  0.00    +0.234 C 
ATOM     14  O   UNL     1      -0.332  -3.433   5.668  0.00  0.00    -0.274 OA
ATOM     15  N   UNL     1      -1.133  -2.104   7.254  0.00  0.00    -0.313 N 
ATOM     16  H   UNL     1      -1.621  -1.299   7.487  0.00  0.00    +0.149 HD
BRANCH  15  17
ATOM     17  C   UNL     1      -0.602  -2.970   8.310  0.00  0.00    +0.109 C 
BRANCH  17  18
ATOM     18  C   UNL     1      -0.954  -2.381   9.678  0.00  0.00    +0.054 C 
BRANCH  18  19
ATOM     19  C   UNL     1      -0.408  -3.272  10.764  0.00  0.00    -0.046 A 
ATOM     20  C   UNL     1      -1.178  -4.305  11.262  0.00  0.00    +0.005 A 
ATOM     21  C   UNL     1      -0.677  -5.122  12.259  0.00  0.00    +0.029 A 
ATOM     22  C   UNL     1       0.594  -4.906  12.756  0.00  0.00    +0.105 A 
ATOM     23  C   UNL     1       1.365  -3.873  12.257  0.00  0.00    +0.029 A 
ATOM     24  C   UNL     1       0.866  -3.058  11.257  0.00  0.00    +0.005 A 
BRANCH  22  25
ATOM     25  S   UNL     1       1.232  -5.946  14.027  0.00  0.00    +0.056 S 
ATOM     26  O   UNL     1       2.235  -5.197  14.700  0.00  0.00    -0.153 OA
ATOM     27  O   UNL     1       0.110  -6.497  14.703  0.00  0.00    -0.153 OA
BRANCH  25  28
ATOM     28  N   UNL     1       2.004  -7.209  13.284  0.00  0.00    -0.204 NA
ATOM     29  H   UNL     1       2.759  -7.638  13.716  0.00  0.00    +0.144 HD
ATOM     30  H   UNL     1       1.701  -7.520  12.417  0.00  0.00    +0.144 HD
ENDBRANCH  25  28
ENDBRANCH  22  25
ENDBRANCH  18  19
ENDBRANCH  17  18
ENDBRANCH  15  17
ENDBRANCH   1  13
BRANCH   1  31
ATOM     31  C   UNL     1      -0.874  -0.140   5.001  0.00  0.00    +0.065 C 
BRANCH  31  32
ATOM     32  C   UNL     1      -1.510   0.782   3.993  0.00  0.00    -0.039 C 
ATOM     33  C   UNL     1      -2.571   1.597   4.192  0.00  0.00    -0.001 A 
ATOM     34  C   UNL     1      -3.420   1.856   5.362  0.00  0.00    +0.010 A 
ATOM     35  C   UNL     1      -4.432   2.747   5.253  0.00  0.00    +0.001 A 
ATOM     36  C   UNL     1      -4.690   3.426   4.055  0.00  0.00    +0.002 A 
ATOM     37  C   UNL     1      -3.954   3.241   2.938  0.00  0.00    +0.026 A 
ATOM     38  C   UNL     1      -2.865   2.328   2.939  0.00  0.00    +0.043 A 
ATOM     39  N   UNL     1      -2.017   1.979   2.002  0.00  0.00    -0.380 N 
ATOM     40  C   UNL     1      -1.086   0.991   2.557  0.00  0.00    +0.144 C 
ATOM     41  H   UNL     1      -2.006   2.320   1.094  0.00  0.00    +0.160 HD
ENDBRANCH  31  32
ENDBRANCH   1  31
TORSDOF 10
