REMARK  Name = ZINC63807708
REMARK  3 active torsions:
REMARK  status: ('A' for Active; 'I' for Inactive)
REMARK    1  A    between atoms: C_1  and  C_2
REMARK    2  A    between atoms: C_7  and  C_9
REMARK    3  A    between atoms: C_9  and  N_15
REMARK                            x       y       z     vdW  Elec       q    Type
REMARK                         _______ _______ _______ _____ _____    ______ ____
ROOT
ATOM      1  C   UNL     1       0.203  -6.320   0.411  0.00  0.00    +0.112 C 
ATOM      2  C   UNL     1      -1.128  -7.045   0.620  0.00  0.00    +0.033 C 
ATOM      3  C   UNL     1      -1.946  -6.995  -0.672  0.00  0.00    +0.002 C 
ATOM      4  C   UNL     1      -1.164  -7.677  -1.797  0.00  0.00    +0.000 C 
ATOM      5  C   UNL     1       0.166  -6.952  -2.006  0.00  0.00    +0.002 C 
ATOM      6  C   UNL     1       0.984  -7.002  -0.714  0.00  0.00    +0.033 C 
ENDROOT
BRANCH   1  13
ATOM      7  C   UNL     1      -1.093   1.408   0.513  0.00  0.00    +0.075 C 
ATOM      8  C   UNL     1      -0.850  -0.076   0.405  0.00  0.00    +0.101 A 
ATOM      9  N   UNL     1      -0.545  -0.808  -0.647  0.00  0.00    -0.145 NA
ATOM     10  N   UNL     1      -0.385  -2.054  -0.504  0.00  0.00    -0.126 NA
ATOM     11  C   UNL     1      -0.514  -2.642   0.669  0.00  0.00    +0.188 A 
ATOM     12  N   UNL     1      -0.373  -3.987   0.996  0.00  0.00    -0.262 N 
ATOM     13  C   UNL     1      -0.061  -4.884   0.039  0.00  0.00    +0.240 C 
ATOM     14  O   UNL     1       0.006  -4.535  -1.120  0.00  0.00    -0.273 OA
ATOM     15  S   UNL     1      -0.887  -1.338   1.670  0.00  0.00    -0.036 S 
ATOM     16  H   UNL     1      -0.498  -4.279   1.912  0.00  0.00    +0.157 HD
ENDBRANCH   1  13
BRANCH   1  17
ATOM     17  N   UNL     1       0.988  -6.369   1.651  0.00  0.00    -0.228 NA
ATOM     18  C   UNL     1       1.339  -7.770   2.005  0.00  0.00    +0.169 C 
ATOM     19  N   UNL     1       2.544  -7.595   2.858  0.00  0.00    -0.335 NA
ATOM     20  N   UNL     1       3.263  -6.479   2.240  0.00  0.00    +0.408 N 
ATOM     21  N   UNL     1       2.283  -5.706   1.480  0.00  0.00    -0.280 NA
ATOM     22  H   UNL     1       2.285  -7.376   3.809  0.00  0.00    +0.105 HD
ATOM     23  H   UNL     1       3.678  -5.899   2.954  0.00  0.00    -0.032 HD
ATOM     24  H   UNL     1       2.538  -5.658   0.504  0.00  0.00    +0.121 HD
ATOM     25  H   UNL     1       3.978  -6.831   1.621  0.00  0.00    -0.032 HD
ENDBRANCH   1  17
TORSDOF 2
