REMARK  Name = ZINC44714511
REMARK  8 active torsions:
REMARK  status: ('A' for Active; 'I' for Inactive)
REMARK    1  A    between atoms: C_1  and  C_2
REMARK    2  A    between atoms: C_5  and  C_9
REMARK    3  A    between atoms: C_13  and  C_22
REMARK    4  A    between atoms: N_24  and  C_25
REMARK    5  A    between atoms: C_25  and  C_26
REMARK    6  A    between atoms: C_26  and  C_27
REMARK    7  A    between atoms: C_28  and  C_39
REMARK    8  A    between atoms: C_34  and  C_37
REMARK                            x       y       z     vdW  Elec       q    Type
REMARK                         _______ _______ _______ _____ _____    ______ ____
ROOT
ATOM      1  C   UNL     1       0.058  -4.251  -0.024  0.00  0.00    +0.247 C 
ATOM      2  O   UNL     1      -0.048  -4.852  -1.075  0.00  0.00    -0.270 OA
ATOM      3  N   UNL     1       0.174  -4.931   1.134  0.00  0.00    -0.296 N 
ATOM      4  C   UNL     1       0.185  -4.386   2.511  0.00  0.00    +0.121 C 
ATOM      5  C   UNL     1      -0.633  -5.402   3.340  0.00  0.00    +0.100 C 
ATOM      6  C   UNL     1      -0.538  -6.718   2.551  0.00  0.00    -0.004 C 
ATOM      7  C   UNL     1       0.315  -6.396   1.316  0.00  0.00    +0.115 C 
ATOM      8  C   UNL     1      -1.928  -7.177   2.119  0.00  0.00    -0.010 C 
ATOM      9  C   UNL     1      -1.813  -8.517   1.387  0.00  0.00    -0.082 C 
ATOM     10  N   UNL     1      -1.201  -9.512   2.276  0.00  0.00    +0.379 N 
ATOM     11  C   UNL     1       0.169  -9.108   2.612  0.00  0.00    -0.082 C 
ATOM     12  C   UNL     1       0.138  -7.793   3.396  0.00  0.00    -0.010 C 
ATOM     13  H   UNL     1      -1.746  -9.585   3.122  0.00  0.00    -0.086 HD
ATOM     14  H   UNL     1      -1.182 -10.408   1.813  0.00  0.00    -0.086 HD
ENDROOT
BRANCH   1  19
ATOM     15  C   UNL     1       0.064   1.506   0.014  0.00  0.00    +0.047 C 
ATOM     16  C   UNL     1       0.061  -0.001   0.004  0.00  0.00    -0.015 A 
ATOM     17  C   UNL     1       0.666  -0.698   1.035  0.00  0.00    +0.007 A 
ATOM     18  C   UNL     1       0.668  -2.078   1.032  0.00  0.00    +0.013 A 
ATOM     19  C   UNL     1       0.058  -2.772  -0.015  0.00  0.00    +0.040 A 
ATOM     20  C   UNL     1      -0.551  -2.065  -1.052  0.00  0.00    +0.051 A 
ATOM     21  C   UNL     1      -0.551  -0.683  -1.035  0.00  0.00    +0.127 A 
ATOM     22  F   UNL     1      -1.145   0.004  -2.036  0.00  0.00    -0.205 F 
ENDBRANCH   1  19
BRANCH   5  23
ATOM     23  C   UNL     1      -0.033  -5.565   4.712  0.00  0.00    +0.218 C 
ATOM     24  O   UNL     1       1.144  -5.332   4.891  0.00  0.00    -0.275 OA
ATOM     25  N   UNL     1      -0.803  -5.969   5.741  0.00  0.00    -0.315 N 
ATOM     26  H   UNL     1      -1.744  -6.156   5.599  0.00  0.00    +0.149 HD
BRANCH  25  27
ATOM     27  C   UNL     1      -0.219  -6.128   7.075  0.00  0.00    +0.109 C 
BRANCH  27  28
ATOM     28  C   UNL     1      -1.300  -6.593   8.053  0.00  0.00    +0.056 C 
BRANCH  28  29
ATOM     29  C   UNL     1      -0.699  -6.756   9.426  0.00  0.00    -0.018 A 
ATOM     30  C   UNL     1      -0.138  -7.868   9.925  0.00  0.00    +0.017 A 
ATOM     31  N   UNL     1       0.298  -7.639  11.202  0.00  0.00    -0.358 N 
ATOM     32  H   UNL     1       0.737  -8.294  11.766  0.00  0.00    +0.166 HD
ATOM     33  C   UNL     1       0.022  -6.342  11.566  0.00  0.00    +0.047 A 
ATOM     34  C   UNL     1      -0.611  -5.729  10.467  0.00  0.00    +0.004 A 
ATOM     35  C   UNL     1      -1.006  -4.396  10.546  0.00  0.00    +0.029 A 
ATOM     36  C   UNL     1      -0.767  -3.680  11.716  0.00  0.00    +0.052 A 
ATOM     37  C   UNL     1      -0.134  -4.302  12.802  0.00  0.00    +0.021 A 
ATOM     38  C   UNL     1       0.248  -5.609  12.729  0.00  0.00    +0.027 A 
ATOM     39  C   UNL     1      -0.007  -9.177   9.189  0.00  0.00    +0.063 C 
BRANCH  36  40
ATOM     40  C   UNL     1      -1.168  -2.309  11.811  0.00  0.00    +0.099 C 
ATOM     41  N   UNL     1      -1.486  -1.221  11.886  0.00  0.00    -0.191 NA
ENDBRANCH  36  40
ENDBRANCH  28  29
ENDBRANCH  27  28
ENDBRANCH  25  27
ENDBRANCH   5  23
TORSDOF 6
