REMARK  Name = ZINC12602492
REMARK  9 active torsions:
REMARK  status: ('A' for Active; 'I' for Inactive)
REMARK    1  A    between atoms: N_4  and  C_7
REMARK    2  A    between atoms: C_7  and  C_8
REMARK    3  A    between atoms: C_17  and  C_19
REMARK    4  A    between atoms: C_19  and  N_20
REMARK    5  A    between atoms: N_20  and  C_21
REMARK    6  A    between atoms: C_21  and  N_23
REMARK    7  A    between atoms: N_23  and  C_24
REMARK    8  A    between atoms: C_24  and  C_25
REMARK    9  A    between atoms: C_25  and  N_26
REMARK                            x       y       z     vdW  Elec       q    Type
REMARK                         _______ _______ _______ _____ _____    ______ ____
ROOT
ATOM      1  C   UNL     1      -1.112   1.220  -3.574  0.00  0.00    -0.041 C 
ATOM      2  C   UNL     1      -1.148   2.705  -3.944  0.00  0.00    -0.076 C 
ATOM      3  N   UNL     1      -0.715   2.871  -5.338  0.00  0.00    +0.383 N 
ATOM      4  C   UNL     1      -1.624   2.175  -6.259  0.00  0.00    -0.078 C 
ATOM      5  C   UNL     1      -1.602   0.674  -5.955  0.00  0.00    -0.015 C 
ATOM      6  C   UNL     1      -0.635   0.418  -4.792  0.00  0.00    -0.015 C 
ATOM      7  C   UNL     1       0.765   0.906  -5.181  0.00  0.00    -0.010 C 
ATOM      8  C   UNL     1       0.669   2.414  -5.519  0.00  0.00    -0.051 C 
ATOM      9  H   UNL     1      -0.751   3.945  -5.575  0.00  0.00    -0.081 HD
ENDROOT
BRANCH   1  10
ATOM     10  C   UNL     1      -0.145   1.005  -2.408  0.00  0.00    -0.077 C 
BRANCH  10  14
ATOM     11  C   UNL     1      -1.312   1.962   1.593  0.00  0.00    -0.004 C 
ATOM     12  C   UNL     1      -2.388   1.688   0.538  0.00  0.00    -0.019 C 
ATOM     13  C   UNL     1      -1.773   0.898  -0.619  0.00  0.00    -0.079 C 
ATOM     14  N   UNL     1      -0.670   1.669  -1.208  0.00  0.00    +0.380 N 
ATOM     15  C   UNL     1       0.397   1.903  -0.227  0.00  0.00    -0.079 C 
ATOM     16  C   UNL     1      -0.154   2.723   0.943  0.00  0.00    -0.019 C 
ATOM     17  H   UNL     1      -1.070   2.649  -1.509  0.00  0.00    -0.082 HD
ENDBRANCH  10  14
ENDBRANCH   1  10
BRANCH   8  18
ATOM     18  C   UNL     1       1.592   3.196  -4.582  0.00  0.00    +0.088 C 
BRANCH  18  19
ATOM     19  N   UNL     1       1.417   4.632  -4.810  0.00  0.00    -0.328 N 
ATOM     20  H   UNL     1       0.701   4.985  -5.567  0.00  0.00    +0.148 HD
BRANCH  19  21
ATOM     21  C   UNL     1       2.132   5.521  -4.092  0.00  0.00    +0.130 C 
ATOM     22  S   UNL     1       3.245   4.971  -2.914  0.00  0.00    -0.019 S 
BRANCH  21  23
ATOM     23  N   UNL     1       1.971   6.842  -4.303  0.00  0.00    -0.325 N 
ATOM     24  H   UNL     1       1.256   7.196  -5.060  0.00  0.00    +0.148 HD
BRANCH  23  25
ATOM     25  C   UNL     1       2.748   7.809  -3.523  0.00  0.00    +0.118 C 
BRANCH  25  26
ATOM     26  C   UNL     1       2.378   9.229  -3.954  0.00  0.00    +0.103 C 
BRANCH  26  27
ATOM     27  N   UNL     1       3.157  10.197  -3.172  0.00  0.00    -0.297 NA
ATOM     28  C   UNL     1       2.774  10.159  -1.754  0.00  0.00    +0.112 C 
ATOM     29  C   UNL     1       3.650  11.138  -0.967  0.00  0.00    +0.175 C 
ATOM     30  O   UNL     1       3.516  12.447  -1.529  0.00  0.00    -0.377 OA
ATOM     31  C   UNL     1       3.881  12.521  -2.910  0.00  0.00    +0.175 C 
ATOM     32  C   UNL     1       3.008  11.555  -3.716  0.00  0.00    +0.112 C 
ENDBRANCH  26  27
ENDBRANCH  25  26
ENDBRANCH  23  25
ENDBRANCH  21  23
ENDBRANCH  19  21
ENDBRANCH  18  19
ENDBRANCH   8  18
TORSDOF 9
