REMARK  Name = ZINC63483815
REMARK  11 active torsions:
REMARK  status: ('A' for Active; 'I' for Inactive)
REMARK    1  A    between atoms: C_1  and  C_2
REMARK    2  A    between atoms: C_5  and  C_9
REMARK    3  A    between atoms: C_7  and  C_8
REMARK    4  A    between atoms: C_9  and  C_10
REMARK    5  A    between atoms: C_9  and  O_30
REMARK    6  A    between atoms: C_10  and  N_11
REMARK    7  A    between atoms: N_11  and  C_12
REMARK    8  A    between atoms: N_11  and  C_13
REMARK    9  A    between atoms: C_14  and  N_29
REMARK   10  A    between atoms: N_15  and  C_22
REMARK   11  A    between atoms: C_22  and  C_23
REMARK                            x       y       z     vdW  Elec       q    Type
REMARK                         _______ _______ _______ _____ _____    ______ ____
ROOT
ATOM      1  C   UNL     1      -1.379  -6.712  -1.414  0.00  0.00    +0.133 A 
ATOM      2  C   UNL     1      -1.993  -6.389  -2.593  0.00  0.00    +0.127 A 
ATOM      3  N   UNL     1      -1.845  -7.219  -3.681  0.00  0.00    -0.276 N 
ATOM      4  C   UNL     1      -1.103  -8.338  -3.586  0.00  0.00    +0.331 A 
ATOM      5  O   UNL     1      -0.983  -9.060  -4.558  0.00  0.00    -0.246 OA
ATOM      6  N   UNL     1      -0.493  -8.671  -2.435  0.00  0.00    -0.273 N 
ATOM      7  H   UNL     1       0.037  -9.482  -2.389  0.00  0.00    +0.173 HD
ATOM      8  C   UNL     1      -0.605  -7.884  -1.346  0.00  0.00    +0.277 A 
ATOM      9  O   UNL     1      -0.044  -8.190  -0.307  0.00  0.00    -0.266 OA
ENDROOT
BRANCH   2  10
ATOM     10  N   UNL     1      -2.752  -5.245  -2.691  0.00  0.00    -0.343 N 
ATOM     11  H   UNL     1      -2.840  -4.654  -1.927  0.00  0.00    +0.144 HD
ATOM     12  H   UNL     1      -3.200  -5.030  -3.524  0.00  0.00    +0.144 HD
ENDBRANCH   2  10
BRANCH   1  13
ATOM     13  N   UNL     1      -1.515  -5.875  -0.281  0.00  0.00    -0.323 N 
ATOM     14  C   UNL     1      -2.186  -6.375   0.922  0.00  0.00    +0.129 C 
BRANCH  13  15
ATOM     15  C   UNL     1      -0.986  -4.510  -0.311  0.00  0.00    +0.141 C 
BRANCH  15  16
ATOM     16  C   UNL     1       0.413  -4.492   0.308  0.00  0.00    +0.162 C 
BRANCH  16  21
ATOM     17  C   UNL     1       2.315   0.957   0.605  0.00  0.00    +0.044 C 
ATOM     18  C   UNL     1       1.819  -0.464   0.527  0.00  0.00    -0.048 A 
ATOM     19  C   UNL     1       1.891  -1.157  -0.666  0.00  0.00    +0.004 A 
ATOM     20  C   UNL     1       1.437  -2.461  -0.738  0.00  0.00    +0.006 A 
ATOM     21  C   UNL     1       0.910  -3.071   0.386  0.00  0.00    -0.017 A 
ATOM     22  C   UNL     1       0.839  -2.378   1.579  0.00  0.00    +0.009 A 
ATOM     23  C   UNL     1       1.297  -1.076   1.651  0.00  0.00    -0.047 A 
ATOM     24  C   UNL     1       1.224  -0.322   2.954  0.00  0.00    +0.044 C 
ENDBRANCH  16  21
BRANCH  16  25
ATOM     25  O   UNL     1       1.303  -5.264  -0.502  0.00  0.00    -0.386 OA
ATOM     26  H   UNL     1       1.385  -4.944  -1.411  0.00  0.00    +0.210 HD
ENDBRANCH  16  25
ENDBRANCH  15  16
ENDBRANCH  13  15
ENDBRANCH   1  13
BRANCH   3  27
ATOM     27  C   UNL     1      -2.499  -6.883  -4.948  0.00  0.00    +0.163 C 
BRANCH  27  28
ATOM     28  C   UNL     1      -1.571  -6.038  -5.783  0.00  0.00    -0.028 A 
ATOM     29  C   UNL     1      -1.597  -4.661  -5.665  0.00  0.00    +0.005 A 
ATOM     30  C   UNL     1      -0.746  -3.886  -6.431  0.00  0.00    +0.000 A 
ATOM     31  C   UNL     1       0.130  -4.488  -7.315  0.00  0.00    +0.000 A 
ATOM     32  C   UNL     1       0.156  -5.865  -7.432  0.00  0.00    +0.000 A 
ATOM     33  C   UNL     1      -0.692  -6.641  -6.663  0.00  0.00    +0.005 A 
ENDBRANCH  27  28
ENDBRANCH   3  27
TORSDOF 8
