REMARK  Name = ZINC56710847
REMARK  7 active torsions:
REMARK  status: ('A' for Active; 'I' for Inactive)
REMARK    1  A    between atoms: C_1  and  C_2
REMARK    2  A    between atoms: C_4  and  O_21
REMARK    3  A    between atoms: C_7  and  N_8
REMARK    4  A    between atoms: C_13  and  C_20
REMARK    5  A    between atoms: C_16  and  C_19
REMARK    6  A    between atoms: O_21  and  C_22
REMARK    7  A    between atoms: C_22  and  C_23
REMARK                            x       y       z     vdW  Elec       q    Type
REMARK                         _______ _______ _______ _____ _____    ______ ____
ROOT
ATOM      1  C   UNL     1      -0.981   1.290   0.098  0.00  0.00    +0.046 C 
ATOM      2  C   UNL     1      -0.420  -0.108   0.046  0.00  0.00    -0.026 A 
ATOM      3  C   UNL     1      -0.380  -0.792  -1.154  0.00  0.00    +0.050 A 
ATOM      4  C   UNL     1       0.136  -2.078  -1.202  0.00  0.00    +0.122 A 
ATOM      5  C   UNL     1       0.613  -2.679  -0.046  0.00  0.00    +0.047 A 
ATOM      6  C   UNL     1       0.573  -1.997   1.154  0.00  0.00    +0.027 A 
ATOM      7  C   UNL     1       0.062  -0.706   1.202  0.00  0.00    +0.038 A 
ENDROOT
BRANCH   7   8
ATOM      8  N   UNL     1       0.027  -0.011   2.418  0.00  0.00    -0.269 N 
ATOM      9  C   UNL     1      -0.056  -0.689   3.580  0.00  0.00    +0.307 C 
ATOM     10  O   UNL     1      -0.042  -1.905   3.577  0.00  0.00    -0.252 OA
ATOM     11  N   UNL     1      -0.156  -0.019   4.745  0.00  0.00    -0.280 N 
ATOM     12  C   UNL     1      -0.294   1.446   4.768  0.00  0.00    +0.140 C 
ATOM     13  C   UNL     1       0.751   2.014   5.735  0.00  0.00    +0.133 C 
ATOM     14  O   UNL     1       0.639   1.347   6.995  0.00  0.00    -0.371 OA
ATOM     15  C   UNL     1       0.905  -0.057   6.939  0.00  0.00    +0.133 C 
ATOM     16  C   UNL     1      -0.137  -0.732   6.033  0.00  0.00    +0.140 C 
ATOM     17  C   UNL     1       0.819  -0.650   8.346  0.00  0.00    +0.039 C 
ATOM     18  C   UNL     1       0.507   3.513   5.927  0.00  0.00    +0.039 C 
ATOM     19  H   UNL     1       0.062   0.958   2.424  0.00  0.00    +0.156 HD
ENDBRANCH   7   8
BRANCH   4  20
ATOM     20  O   UNL     1       0.175  -2.751  -2.383  0.00  0.00    -0.483 OA
BRANCH  20  21
ATOM     21  C   UNL     1       0.720  -4.072  -2.360  0.00  0.00    +0.324 C 
BRANCH  21  22
ATOM     22  C   UNL     1       0.682  -4.656  -3.748  0.00  0.00    +0.248 C 
ATOM     23  O   UNL     1       0.232  -4.005  -4.668  0.00  0.00    -0.272 OA
ATOM     24  N   UNL     1       1.147  -5.901  -3.969  0.00  0.00    -0.327 N 
ATOM     25  H   UNL     1       1.507  -6.422  -3.234  0.00  0.00    +0.145 HD
ATOM     26  H   UNL     1       1.122  -6.277  -4.863  0.00  0.00    +0.145 HD
ENDBRANCH  21  22
ENDBRANCH  20  21
ENDBRANCH   4  20
TORSDOF 4
