REMARK  Name = ZINC39596040
REMARK  10 active torsions:
REMARK  status: ('A' for Active; 'I' for Inactive)
REMARK    1  A    between atoms: C_1  and  C_2
REMARK    2  A    between atoms: C_2  and  O_3
REMARK    3  A    between atoms: O_3  and  C_4
REMARK    4  A    between atoms: C_9  and  C_10
REMARK    5  A    between atoms: C_14  and  C_23
REMARK    6  A    between atoms: N_25  and  C_26
REMARK    7  A    between atoms: C_26  and  C_27
REMARK    8  A    between atoms: C_27  and  C_29
REMARK    9  A    between atoms: C_27  and  O_30
REMARK   10  A    between atoms: O_30  and  C_31
REMARK                            x       y       z     vdW  Elec       q    Type
REMARK                         _______ _______ _______ _____ _____    ______ ____
ROOT
ATOM      1  C   UNL     1      -3.795  -1.647   0.017  0.00  0.00    +0.250 C 
ATOM      2  O   UNL     1      -3.693  -0.436   0.073  0.00  0.00    -0.270 OA
ATOM      3  N   UNL     1      -5.009  -2.216  -0.120  0.00  0.00    -0.296 N 
ATOM      4  C   UNL     1      -5.343  -3.659  -0.102  0.00  0.00    +0.121 C 
ATOM      5  C   UNL     1      -6.672  -3.743   0.681  0.00  0.00    +0.100 C 
ATOM      6  C   UNL     1      -7.304  -2.349   0.531  0.00  0.00    -0.004 C 
ATOM      7  C   UNL     1      -6.313  -1.538  -0.316  0.00  0.00    +0.115 C 
ATOM      8  C   UNL     1      -7.476  -1.696   1.899  0.00  0.00    -0.010 C 
ATOM      9  C   UNL     1      -8.158  -0.336   1.729  0.00  0.00    -0.082 C 
ATOM     10  N   UNL     1      -9.464  -0.519   1.085  0.00  0.00    +0.379 N 
ATOM     11  C   UNL     1      -9.284  -1.061  -0.268  0.00  0.00    -0.082 C 
ATOM     12  C   UNL     1      -8.649  -2.452  -0.182  0.00  0.00    -0.010 C 
ATOM     13  H   UNL     1     -10.020  -1.160   1.631  0.00  0.00    -0.086 HD
ATOM     14  H   UNL     1      -9.938   0.370   1.029  0.00  0.00    -0.086 HD
ENDROOT
BRANCH   1  20
ATOM     15  C   UNL     1      -1.512  -2.110   0.909  0.00  0.00    +0.133 A 
ATOM     16  C   UNL     1      -0.386  -2.915   0.982  0.00  0.00    +0.046 A 
ATOM     17  C   UNL     1      -0.324  -4.086   0.253  0.00  0.00    +0.004 A 
ATOM     18  C   UNL     1      -1.383  -4.465  -0.555  0.00  0.00    +0.001 A 
ATOM     19  C   UNL     1      -2.510  -3.677  -0.639  0.00  0.00    +0.017 A 
ATOM     20  C   UNL     1      -2.589  -2.493   0.097  0.00  0.00    +0.078 A 
BRANCH  15  21
ATOM     21  O   UNL     1      -1.574  -0.959   1.624  0.00  0.00    -0.491 OA
BRANCH  21  23
ATOM     22  C   UNL     1      -0.691   0.689   3.156  0.00  0.00    +0.048 C 
ATOM     23  C   UNL     1      -0.439  -0.633   2.429  0.00  0.00    +0.226 C 
ENDBRANCH  21  23
ENDBRANCH  15  21
ENDBRANCH   1  20
BRANCH   5  24
ATOM     24  C   UNL     1      -6.407  -4.048   2.133  0.00  0.00    +0.218 C 
ATOM     25  O   UNL     1      -5.403  -3.628   2.668  0.00  0.00    -0.275 OA
ATOM     26  N   UNL     1      -7.287  -4.788   2.837  0.00  0.00    -0.312 N 
ATOM     27  H   UNL     1      -8.090  -5.124   2.410  0.00  0.00    +0.149 HD
BRANCH  26  28
ATOM     28  C   UNL     1      -7.029  -5.085   4.249  0.00  0.00    +0.148 C 
BRANCH  28  29
ATOM     29  C   UNL     1      -8.173  -5.934   4.808  0.00  0.00    +0.187 C 
ATOM     30  C   UNL     1      -7.968  -6.139   6.310  0.00  0.00    +0.053 C 
BRANCH  29  31
ATOM     31  O   UNL     1      -8.189  -7.203   4.152  0.00  0.00    -0.488 OA
BRANCH  31  32
ATOM     32  C   UNL     1      -9.370  -7.876   4.138  0.00  0.00    +0.121 A 
ATOM     33  C   UNL     1     -10.502  -7.303   4.700  0.00  0.00    +0.048 A 
ATOM     34  C   UNL     1     -11.701  -7.988   4.686  0.00  0.00    +0.042 A 
ATOM     35  C   UNL     1     -11.774  -9.246   4.112  0.00  0.00    +0.124 A 
ATOM     36  C   UNL     1     -10.645  -9.819   3.551  0.00  0.00    +0.042 A 
ATOM     37  C   UNL     1      -9.446  -9.133   3.558  0.00  0.00    +0.048 A 
ATOM     38  F   UNL     1     -12.948  -9.915   4.099  0.00  0.00    -0.205 F 
ENDBRANCH  31  32
ENDBRANCH  29  31
ENDBRANCH  28  29
ENDBRANCH  26  28
ENDBRANCH   5  24
TORSDOF 8
