REMARK  Name = ZINC21660433
REMARK  7 active torsions:
REMARK  status: ('A' for Active; 'I' for Inactive)
REMARK    1  A    between atoms: C_1  and  C_2
REMARK    2  A    between atoms: C_10  and  C_12
REMARK    3  A    between atoms: C_15  and  O_18
REMARK    4  A    between atoms: O_18  and  C_19
REMARK    5  A    between atoms: C_23  and  C_26
REMARK    6  A    between atoms: C_29  and  O_32
REMARK    7  A    between atoms: O_32  and  C_33
REMARK                            x       y       z     vdW  Elec       q    Type
REMARK                         _______ _______ _______ _____ _____    ______ ____
ROOT
ATOM      1  C   UNL     1      -1.799   1.290   3.189  0.00  0.00    +0.069 C 
ATOM      2  C   UNL     1      -1.612   2.659   2.590  0.00  0.00    +0.087 A 
ATOM      3  C   UNL     1      -1.419   2.965   1.245  0.00  0.00    +0.049 A 
ATOM      4  C   UNL     1      -1.305   4.331   1.217  0.00  0.00    +0.226 A 
ATOM      5  O   UNL     1      -1.427   4.742   2.474  0.00  0.00    -0.339 OA
ATOM      6  N   UNL     1      -1.598   3.803   3.228  0.00  0.00    -0.081 NA
ATOM      7  N   UNL     1      -1.108   5.006   0.030  0.00  0.00    -0.286 N 
ATOM      8  C   UNL     1      -1.321   4.334  -1.151  0.00  0.00    +0.019 C 
ATOM      9  C   UNL     1      -1.431   2.990  -1.212  0.00  0.00    +0.024 C 
ATOM     10  C   UNL     1      -1.333   2.113   0.020  0.00  0.00    +0.091 C 
ATOM     11  C   UNL     1      -1.645   2.336  -2.439  0.00  0.00    +0.162 C 
ATOM     12  O   UNL     1      -1.760   1.127  -2.455  0.00  0.00    -0.292 OA
ATOM     13  C   UNL     1      -1.734   3.100  -3.731  0.00  0.00    +0.088 C 
ATOM     14  C   UNL     1      -0.912   4.387  -3.603  0.00  0.00    +0.032 C 
ATOM     15  C   UNL     1      -1.436   5.175  -2.402  0.00  0.00    +0.059 C 
ATOM     16  H   UNL     1      -0.787   6.058   0.042  0.00  0.00    +0.155 HD
ENDROOT
BRANCH  10  17
ATOM     17  C   UNL     1      -0.017   1.378   0.010  0.00  0.00    -0.035 A 
ATOM     18  C   UNL     1       1.170   2.088   0.002  0.00  0.00    +0.008 A 
ATOM     19  C   UNL     1       2.377   1.417  -0.013  0.00  0.00    +0.046 A 
ATOM     20  C   UNL     1       2.399   0.030  -0.021  0.00  0.00    +0.120 A 
ATOM     21  C   UNL     1       1.207  -0.680  -0.014  0.00  0.00    +0.046 A 
ATOM     22  C   UNL     1       0.002  -0.004   0.002  0.00  0.00    +0.008 A 
BRANCH  20  23
ATOM     23  O   UNL     1       3.586  -0.632  -0.037  0.00  0.00    -0.495 OA
ATOM     24  C   UNL     1       4.772   0.164  -0.044  0.00  0.00    +0.277 C 
ENDBRANCH  20  23
ENDBRANCH  10  17
BRANCH  14  25
ATOM     25  C   UNL     1      -1.060   5.211  -4.856  0.00  0.00    -0.043 A 
ATOM     26  C   UNL     1      -2.314   5.630  -5.262  0.00  0.00    +0.007 A 
ATOM     27  C   UNL     1      -2.452   6.391  -6.407  0.00  0.00    +0.046 A 
ATOM     28  C   UNL     1      -1.333   6.724  -7.156  0.00  0.00    +0.120 A 
ATOM     29  C   UNL     1      -0.077   6.298  -6.750  0.00  0.00    +0.046 A 
ATOM     30  C   UNL     1       0.057   5.542  -5.601  0.00  0.00    +0.007 A 
BRANCH  28  31
ATOM     31  O   UNL     1      -1.467   7.467  -8.286  0.00  0.00    -0.495 OA
ATOM     32  C   UNL     1      -2.790   7.872  -8.643  0.00  0.00    +0.277 C 
ENDBRANCH  28  31
ENDBRANCH  14  25
TORSDOF 4
