REMARK  Name = ZINC37657066
REMARK  5 active torsions:
REMARK  status: ('A' for Active; 'I' for Inactive)
REMARK    1  A    between atoms: C_1  and  C_2
REMARK    2  A    between atoms: C_7  and  N_8
REMARK    3  A    between atoms: N_8  and  S_9
REMARK    4  A    between atoms: S_9  and  N_12
REMARK    5  A    between atoms: C_16  and  C_19
REMARK                            x       y       z     vdW  Elec       q    Type
REMARK                         _______ _______ _______ _____ _____    ______ ____
ROOT
ATOM      1  S   UNL     1       0.764  -0.677   3.742  0.00  0.00    +0.112 S 
ATOM      2  O   UNL     1       0.519   0.207   4.826  0.00  0.00    -0.138 OA
ATOM      3  O   UNL     1       0.387  -2.047   3.776  0.00  0.00    -0.138 OA
ENDROOT
BRANCH   1   4
ATOM      4  N   UNL     1       2.396  -0.642   3.462  0.00  0.00    -0.163 NA
ATOM      5  C   UNL     1       3.065  -1.768   2.796  0.00  0.00    +0.111 C 
ATOM      6  C   UNL     1       3.854  -1.233   1.597  0.00  0.00    +0.018 C 
ATOM      7  C   UNL     1       4.802  -0.127   2.067  0.00  0.00    +0.017 C 
ATOM      8  C   UNL     1       3.989   1.024   2.663  0.00  0.00    +0.118 C 
ATOM      9  C   UNL     1       3.200   0.518   3.868  0.00  0.00    +0.125 C 
BRANCH   8  10
ATOM     10  C   UNL     1       4.921   2.127   3.095  0.00  0.00    +0.360 C 
ATOM     11  O   UNL     1       5.644   2.670   2.277  0.00  0.00    -0.246 OA
ATOM     12  O   UNL     1       4.951   2.477   4.262  0.00  0.00    -0.246 OA
ENDBRANCH   8  10
ENDBRANCH   1   4
BRANCH   1  13
ATOM     13  N   UNL     1       0.025  -0.016   2.415  0.00  0.00    -0.206 N 
ATOM     14  H   UNL     1      -0.524   0.778   2.511  0.00  0.00    +0.175 HD
BRANCH  13  21
ATOM     15  C   UNL     1       0.153   1.694   0.145  0.00  0.00    +0.046 C 
ATOM     16  C   UNL     1       0.260   0.195   0.023  0.00  0.00    -0.027 A 
ATOM     17  C   UNL     1       0.431  -0.386  -1.218  0.00  0.00    +0.019 A 
ATOM     18  C   UNL     1       0.529  -1.761  -1.332  0.00  0.00    +0.014 A 
ATOM     19  C   UNL     1       0.456  -2.558  -0.203  0.00  0.00    +0.016 A 
ATOM     20  C   UNL     1       0.285  -1.983   1.040  0.00  0.00    +0.026 A 
ATOM     21  C   UNL     1       0.192  -0.602   1.158  0.00  0.00    +0.052 A 
ATOM     22  I   UNL     1       0.788  -2.639  -3.216  0.00  0.00    -0.044 I 
ENDBRANCH  13  21
ENDBRANCH   1  13
TORSDOF 4
