REMARK  Name = ZINC40717765
REMARK  3 active torsions:
REMARK  status: ('A' for Active; 'I' for Inactive)
REMARK    1  A    between atoms: C_1  and  C_2
REMARK    2  A    between atoms: N_6  and  C_8
REMARK    3  A    between atoms: C_13  and  N_14
REMARK                            x       y       z     vdW  Elec       q    Type
REMARK                         _______ _______ _______ _____ _____    ______ ____
ROOT
ATOM      1  C   UNL     1       2.452  -2.472   1.511  0.00  0.00    +0.053 A 
ATOM      2  C   UNL     1       3.790  -2.120   1.603  0.00  0.00    +0.052 A 
ATOM      3  C   UNL     1       4.653  -2.883   2.372  0.00  0.00    +0.078 A 
ATOM      4  C   UNL     1       4.179  -4.003   3.053  0.00  0.00    +0.144 A 
ATOM      5  C   UNL     1       2.844  -4.355   2.962  0.00  0.00    +0.072 A 
ATOM      6  C   UNL     1       1.976  -3.589   2.197  0.00  0.00    +0.049 A 
ATOM      7  O   UNL     1       5.040  -4.744   3.803  0.00  0.00    -0.481 OA
ATOM      8  C   UNL     1       6.390  -4.828   3.338  0.00  0.00    +0.325 C 
ATOM      9  C   UNL     1       6.881  -3.454   2.959  0.00  0.00    +0.255 C 
ATOM     10  O   UNL     1       8.054  -3.171   3.087  0.00  0.00    -0.272 OA
ATOM     11  N   UNL     1       6.011  -2.541   2.477  0.00  0.00    -0.280 N 
ATOM     12  H   UNL     1       6.319  -1.661   2.208  0.00  0.00    +0.155 HD
ENDROOT
BRANCH   1  17
ATOM     13  C   UNL     1      -0.019   1.526   0.010  0.00  0.00    +0.009 C 
ATOM     14  C   UNL     1       0.002  -0.004   0.002  0.00  0.00    +0.005 C 
ATOM     15  C   UNL     1       0.806  -0.535  -1.214  0.00  0.00    +0.023 C 
ATOM     16  C   UNL     1       1.279  -1.916  -0.695  0.00  0.00    +0.105 C 
ATOM     17  N   UNL     1       1.575  -1.701   0.733  0.00  0.00    -0.328 N 
ATOM     18  C   UNL     1       0.795  -0.546   1.210  0.00  0.00    +0.108 C 
ENDBRANCH   1  17
BRANCH   6  19
ATOM     19  N   UNL     1       0.622  -3.941   2.108  0.00  0.00    -0.356 N 
ATOM     20  H   UNL     1       0.016  -3.408   1.570  0.00  0.00    +0.142 HD
ATOM     21  H   UNL     1       0.291  -4.718   2.586  0.00  0.00    +0.142 HD
ENDBRANCH   6  19
TORSDOF 2
