REMARK  Name = ZINC20986206
REMARK  3 active torsions:
REMARK  status: ('A' for Active; 'I' for Inactive)
REMARK    1  A    between atoms: C_9  and  N_11
REMARK    2  A    between atoms: N_11  and  N_12
REMARK    3  A    between atoms: C_21  and  O_22
REMARK                            x       y       z     vdW  Elec       q    Type
REMARK                         _______ _______ _______ _____ _____    ______ ____
ROOT
ATOM      1  N   UNL     1       2.348  -2.717  -0.035  0.00  0.00    -0.175 NA
ATOM      2  C   UNL     1       2.354  -4.029   0.058  0.00  0.00    +0.152 C 
ATOM      3  C   UNL     1       1.191  -4.944   0.089  0.00  0.00    +0.035 A 
ATOM      4  C   UNL     1      -0.183  -4.757   0.035  0.00  0.00    +0.050 A 
ATOM      5  C   UNL     1      -1.026  -5.852   0.088  0.00  0.00    +0.124 A 
ATOM      6  C   UNL     1      -0.501  -7.133   0.194  0.00  0.00    +0.040 A 
ATOM      7  C   UNL     1       0.861  -7.334   0.241  0.00  0.00    +0.031 A 
ATOM      8  C   UNL     1       1.733  -6.241   0.193  0.00  0.00    +0.077 A 
ATOM      9  N   UNL     1       3.088  -6.157   0.234  0.00  0.00    -0.211 NA
ATOM     10  C   UNL     1       3.521  -4.924   0.161  0.00  0.00    +0.241 C 
ATOM     11  F   UNL     1      -2.365  -5.675   0.036  0.00  0.00    -0.205 F 
ENDROOT
BRANCH   1  12
ATOM     12  N   UNL     1       1.240  -2.091  -0.242  0.00  0.00    -0.220 N 
ATOM     13  H   UNL     1       0.316  -2.656  -0.432  0.00  0.00    +0.176 HD
BRANCH  12  22
ATOM     14  C   UNL     1       2.365   4.073   0.071  0.00  0.00    +0.001 A 
ATOM     15  C   UNL     1       3.539   3.358   0.291  0.00  0.00    +0.002 A 
ATOM     16  C   UNL     1       3.546   1.997   0.272  0.00  0.00    +0.028 A 
ATOM     17  C   UNL     1       2.352   1.296   0.027  0.00  0.00    +0.073 A 
ATOM     18  C   UNL     1       1.158   2.027  -0.196  0.00  0.00    +0.001 A 
ATOM     19  C   UNL     1       1.189   3.430  -0.169  0.00  0.00    +0.010 A 
ATOM     20  C   UNL     1      -0.039   1.325  -0.442  0.00  0.00    +0.013 A 
ATOM     21  C   UNL     1       0.001  -0.037  -0.455  0.00  0.00    +0.046 A 
ATOM     22  C   UNL     1       1.214  -0.702  -0.227  0.00  0.00    +0.139 A 
ATOM     23  N   UNL     1       2.330  -0.040   0.002  0.00  0.00    -0.231 NA
ENDBRANCH  12  22
ENDBRANCH   1  12
BRANCH  10  24
ATOM     24  O   UNL     1       4.819  -4.536   0.179  0.00  0.00    -0.491 OA
ATOM     25  H   UNL     1       5.617  -5.289   0.260  0.00  0.00    +0.294 HD
ENDBRANCH  10  24
TORSDOF 3
