REMARK  Name = ZINC16072601
REMARK  13 active torsions:
REMARK  status: ('A' for Active; 'I' for Inactive)
REMARK    1  A    between atoms: C_1  and  C_2
REMARK    2  A    between atoms: C_2  and  C_4
REMARK    3  A    between atoms: C_2  and  O_25
REMARK    4  A    between atoms: N_6  and  N_7
REMARK    5  A    between atoms: C_8  and  C_10
REMARK    6  A    between atoms: C_10  and  C_11
REMARK    7  A    between atoms: C_11  and  N_12
REMARK    8  A    between atoms: C_13  and  C_15
REMARK    9  A    between atoms: C_18  and  C_21
REMARK   10  A    between atoms: C_21  and  C_22
REMARK   11  A    between atoms: C_21  and  C_23
REMARK   12  A    between atoms: C_21  and  C_24
REMARK   13  A    between atoms: O_25  and  C_26
REMARK                            x       y       z     vdW  Elec       q    Type
REMARK                         _______ _______ _______ _____ _____    ______ ____
ROOT
ATOM      1  N   UNL     1       4.940   0.816   0.475  0.00  0.00    -0.234 N 
ATOM      2  C   UNL     1       3.755   1.455   0.528  0.00  0.00    +0.231 C 
ATOM      3  O   UNL     1       3.706   2.656   0.367  0.00  0.00    -0.274 OA
ATOM      4  H   UNL     1       4.979  -0.145   0.604  0.00  0.00    +0.173 HD
ENDROOT
BRANCH   1   7
ATOM      5  C   UNL     1       7.301   0.899   0.181  0.00  0.00    +0.270 C 
ATOM      6  O   UNL     1       7.350  -0.302   0.342  0.00  0.00    -0.270 OA
ATOM      7  N   UNL     1       6.115   1.539   0.234  0.00  0.00    -0.231 N 
ATOM      8  H   UNL     1       6.076   2.499   0.105  0.00  0.00    +0.173 HD
BRANCH   5  10
ATOM      9  C   UNL     1       8.823   2.635   1.087  0.00  0.00    +0.062 C 
ATOM     10  C   UNL     1       8.565   1.677  -0.079  0.00  0.00    +0.257 C 
BRANCH  10  11
ATOM     11  O   UNL     1       9.664   0.772  -0.203  0.00  0.00    -0.477 OA
BRANCH  11  12
ATOM     12  C   UNL     1      10.735   1.197  -0.925  0.00  0.00    +0.157 A 
ATOM     13  C   UNL     1      10.777   2.497  -1.406  0.00  0.00    +0.048 A 
ATOM     14  C   UNL     1      11.866   2.927  -2.140  0.00  0.00    +0.004 A 
ATOM     15  C   UNL     1      12.915   2.063  -2.394  0.00  0.00    +0.003 A 
ATOM     16  C   UNL     1      12.878   0.766  -1.916  0.00  0.00    +0.042 A 
ATOM     17  C   UNL     1      11.791   0.332  -1.178  0.00  0.00    +0.165 A 
ATOM     18  F   UNL     1      11.757  -0.934  -0.707  0.00  0.00    -0.202 F 
ENDBRANCH  11  12
ENDBRANCH  10  11
ENDBRANCH   5  10
ENDBRANCH   1   7
BRANCH   2  19
ATOM     19  C   UNL     1       2.490   0.677   0.787  0.00  0.00    +0.116 C 
BRANCH  19  20
ATOM     20  C   UNL     1       1.296   1.634   0.797  0.00  0.00    +0.114 C 
BRANCH  20  21
ATOM     21  N   UNL     1       0.067   0.878   1.050  0.00  0.00    -0.311 N 
ATOM     22  C   UNL     1      -1.119   1.516   1.097  0.00  0.00    +0.244 C 
ATOM     23  O   UNL     1      -1.168   2.720   0.935  0.00  0.00    -0.270 OA
ATOM     24  H   UNL     1       0.106  -0.083   1.178  0.00  0.00    +0.149 HD
BRANCH  22  25
ATOM     25  C   UNL     1      -2.361   0.753   1.345  0.00  0.00    +0.037 A 
ATOM     26  C   UNL     1      -2.308  -0.630   1.526  0.00  0.00    +0.013 A 
ATOM     27  C   UNL     1      -3.470  -1.337   1.761  0.00  0.00    +0.005 A 
ATOM     28  C   UNL     1      -4.686  -0.678   1.809  0.00  0.00    -0.042 A 
ATOM     29  C   UNL     1      -4.745   0.692   1.627  0.00  0.00    +0.005 A 
ATOM     30  C   UNL     1      -3.590   1.411   1.395  0.00  0.00    +0.013 A 
BRANCH  28  31
ATOM     31  C   UNL     1      -5.951  -1.457   2.062  0.00  0.00    -0.013 C 
ATOM     32  C   UNL     1      -6.904  -1.280   0.878  0.00  0.00    +0.015 C 
ATOM     33  C   UNL     1      -5.613  -2.940   2.228  0.00  0.00    +0.015 C 
ATOM     34  C   UNL     1      -6.621  -0.941   3.337  0.00  0.00    +0.015 C 
ENDBRANCH  28  31
ENDBRANCH  22  25
ENDBRANCH  20  21
ENDBRANCH  19  20
ENDBRANCH   2  19
TORSDOF 9
