REMARK  Name = ZINC22933886
REMARK  11 active torsions:
REMARK  status: ('A' for Active; 'I' for Inactive)
REMARK    1  A    between atoms: C_1  and  C_2
REMARK    2  A    between atoms: C_7  and  C_8
REMARK    3  A    between atoms: C_8  and  C_10
REMARK    4  A    between atoms: C_8  and  O_16
REMARK    5  A    between atoms: O_16  and  C_17
REMARK    6  A    between atoms: C_17  and  C_18
REMARK    7  A    between atoms: C_18  and  C_20
REMARK    8  A    between atoms: C_18  and  O_40
REMARK    9  A    between atoms: C_20  and  N_21
REMARK   10  A    between atoms: N_24  and  C_27
REMARK   11  A    between atoms: C_27  and  C_28
REMARK                            x       y       z     vdW  Elec       q    Type
REMARK                         _______ _______ _______ _____ _____    ______ ____
ROOT
ATOM      1  C   UNL     1      -2.332  -0.280   6.779  0.00  0.00    +0.117 C 
ENDROOT
BRANCH   1   2
ATOM      2  N   UNL     1      -2.747  -1.224   7.826  0.00  0.00    -0.303 NA
ATOM      3  C   UNL     1      -1.583  -1.899   8.417  0.00  0.00    +0.066 C 
ATOM      4  C   UNL     1      -2.060  -2.914   9.459  0.00  0.00    -0.063 C 
ATOM      5  N   UNL     1      -2.828  -2.221  10.502  0.00  0.00    +0.386 N 
ATOM      6  C   UNL     1      -4.000  -1.572   9.900  0.00  0.00    -0.063 C 
ATOM      7  C   UNL     1      -3.539  -0.546   8.862  0.00  0.00    +0.066 C 
ATOM      8  H   UNL     1      -2.246  -1.523  10.940  0.00  0.00    -0.081 HD
BRANCH   5   9
ATOM      9  C   UNL     1      -3.271  -3.193  11.511  0.00  0.00    -0.003 C 
BRANCH   9  10
ATOM     10  C   UNL     1      -3.952  -2.467  12.642  0.00  0.00    +0.094 A 
ATOM     11  N   UNL     1      -4.429  -3.199  13.682  0.00  0.00    -0.312 N 
ATOM     12  H   UNL     1      -4.325  -4.164  13.679  0.00  0.00    +0.170 HD
ATOM     13  C   UNL     1      -5.048  -2.595  14.723  0.00  0.00    +0.259 A 
ATOM     14  O   UNL     1      -5.480  -3.239  15.662  0.00  0.00    -0.267 OA
ATOM     15  C   UNL     1      -5.178  -1.131  14.676  0.00  0.00    +0.065 A 
ATOM     16  C   UNL     1      -5.799  -0.413  15.696  0.00  0.00    +0.015 A 
ATOM     17  C   UNL     1      -5.894   0.958  15.601  0.00  0.00    +0.001 A 
ATOM     18  C   UNL     1      -5.378   1.627  14.498  0.00  0.00    +0.002 A 
ATOM     19  C   UNL     1      -4.761   0.936  13.480  0.00  0.00    +0.028 A 
ATOM     20  C   UNL     1      -4.652  -0.454  13.554  0.00  0.00    +0.078 A 
ATOM     21  N   UNL     1      -4.047  -1.174  12.576  0.00  0.00    -0.236 NA
ENDBRANCH   9  10
ENDBRANCH   5   9
ENDBRANCH   1   2
BRANCH   1  22
ATOM     22  C   UNL     1      -1.732  -1.054   5.604  0.00  0.00    +0.154 C 
BRANCH  22  23
ATOM     23  O   UNL     1      -2.742  -1.866   5.003  0.00  0.00    -0.388 OA
ATOM     24  H   UNL     1      -3.496  -1.367   4.660  0.00  0.00    +0.210 HD
ENDBRANCH  22  23
BRANCH  22  25
ATOM     25  C   UNL     1      -1.187  -0.068   4.569  0.00  0.00    +0.193 C 
BRANCH  25  26
ATOM     26  O   UNL     1      -0.523  -0.787   3.528  0.00  0.00    -0.365 OA
BRANCH  26  27
ATOM     27  C   UNL     1       0.025   0.045   2.504  0.00  0.00    +0.179 C 
BRANCH  27  34
ATOM     28  C   UNL     1      -0.018   1.503   0.010  0.00  0.00    +0.044 C 
ATOM     29  C   UNL     1       0.002  -0.004   0.002  0.00  0.00    -0.044 A 
ATOM     30  C   UNL     1       0.006  -0.689  -1.199  0.00  0.00    +0.004 A 
ATOM     31  C   UNL     1       0.025  -2.071  -1.207  0.00  0.00    +0.000 A 
ATOM     32  C   UNL     1       0.040  -2.768  -0.013  0.00  0.00    +0.000 A 
ATOM     33  C   UNL     1       0.037  -2.084   1.188  0.00  0.00    +0.007 A 
ATOM     34  C   UNL     1       0.023  -0.702   1.195  0.00  0.00    -0.012 A 
ENDBRANCH  27  34
BRANCH  27  35
ATOM     35  C   UNL     1       1.439   0.420   2.866  0.00  0.00    -0.014 A 
ATOM     36  C   UNL     1       2.280  -0.519   3.433  0.00  0.00    +0.006 A 
ATOM     37  C   UNL     1       3.577  -0.174   3.765  0.00  0.00    +0.000 A 
ATOM     38  C   UNL     1       4.033   1.109   3.529  0.00  0.00    +0.000 A 
ATOM     39  C   UNL     1       3.193   2.048   2.961  0.00  0.00    +0.000 A 
ATOM     40  C   UNL     1       1.897   1.702   2.625  0.00  0.00    +0.006 A 
ENDBRANCH  27  35
ENDBRANCH  26  27
ENDBRANCH  25  26
ENDBRANCH  22  25
ENDBRANCH   1  22
TORSDOF 10
