REMARK  Name = ZINC17795686
REMARK  8 active torsions:
REMARK  status: ('A' for Active; 'I' for Inactive)
REMARK    1  A    between atoms: C_1  and  C_2
REMARK    2  A    between atoms: C_4  and  C_34
REMARK    3  A    between atoms: C_5  and  S_9
REMARK    4  A    between atoms: C_6  and  C_8
REMARK    5  A    between atoms: S_9  and  N_12
REMARK    6  A    between atoms: C_15  and  C_18
REMARK    7  A    between atoms: N_20  and  N_21
REMARK    8  A    between atoms: C_27  and  C_30
REMARK                            x       y       z     vdW  Elec       q    Type
REMARK                         _______ _______ _______ _____ _____    ______ ____
ROOT
ATOM      1  N   UNL     1      -2.825   4.128  -2.247  0.00  0.00    -0.177 NA
ATOM      2  C   UNL     1      -2.262   5.289  -2.949  0.00  0.00    +0.110 C 
ATOM      3  C   UNL     1      -3.349   5.922  -3.816  0.00  0.00    +0.030 C 
ATOM      4  C   UNL     1      -3.946   4.857  -4.739  0.00  0.00    +0.079 C 
ATOM      5  C   UNL     1      -4.581   3.748  -3.898  0.00  0.00    +0.030 C 
ATOM      6  C   UNL     1      -3.502   3.088  -3.033  0.00  0.00    +0.110 C 
ENDROOT
BRANCH   4   7
ATOM      7  C   UNL     1      -4.997   5.487  -5.617  0.00  0.00    +0.233 C 
ATOM      8  O   UNL     1      -6.141   5.087  -5.574  0.00  0.00    -0.274 OA
ATOM      9  N   UNL     1      -4.665   6.493  -6.449  0.00  0.00    -0.223 N 
ATOM     10  H   UNL     1      -3.750   6.813  -6.484  0.00  0.00    +0.174 HD
BRANCH   9  11
ATOM     11  N   UNL     1      -5.643   7.078  -7.265  0.00  0.00    -0.137 N 
ATOM     12  C   UNL     1      -5.750   6.864  -8.593  0.00  0.00    +0.263 C 
ATOM     13  O   UNL     1      -5.046   6.156  -9.281  0.00  0.00    -0.271 OA
ATOM     14  C   UNL     1      -6.934   7.689  -9.041  0.00  0.00    +0.114 C 
ATOM     15  C   UNL     1      -6.494   8.731 -10.064  0.00  0.00    +0.035 C 
ATOM     16  C   UNL     1      -5.981   8.029 -11.324  0.00  0.00    +0.006 C 
ATOM     17  C   UNL     1      -7.094   7.155 -11.907  0.00  0.00    -0.014 C 
ATOM     18  C   UNL     1      -7.508   6.100 -10.879  0.00  0.00    +0.006 C 
ATOM     19  C   UNL     1      -8.026   6.795  -9.617  0.00  0.00    +0.035 C 
ATOM     20  C   UNL     1      -6.587   6.462 -13.173  0.00  0.00    +0.007 C 
ATOM     21  N   UNL     1      -7.399   8.342  -7.811  0.00  0.00    -0.284 N 
ATOM     22  C   UNL     1      -6.583   7.923  -6.825  0.00  0.00    +0.326 C 
ATOM     23  O   UNL     1      -6.688   8.273  -5.666  0.00  0.00    -0.251 OA
ATOM     24  H   UNL     1      -8.148   8.954  -7.725  0.00  0.00    +0.151 HD
ENDBRANCH   9  11
ENDBRANCH   4   7
BRANCH   1  25
ATOM     25  S   UNL     1      -2.704   3.996  -0.601  0.00  0.00    +0.061 S 
ATOM     26  O   UNL     1      -3.765   3.150  -0.182  0.00  0.00    -0.153 OA
ATOM     27  O   UNL     1      -2.538   5.316  -0.100  0.00  0.00    -0.153 OA
BRANCH  25  32
ATOM     28  C   UNL     1       2.425   1.044   0.579  0.00  0.00    +0.044 C 
ATOM     29  C   UNL     1       1.144   1.782   0.285  0.00  0.00    -0.050 A 
ATOM     30  C   UNL     1      -0.055   1.094   0.239  0.00  0.00    +0.008 A 
ATOM     31  C   UNL     1      -1.229   1.770  -0.036  0.00  0.00    -0.024 A 
ATOM     32  C   UNL     1      -1.206   3.134  -0.256  0.00  0.00    +0.111 A 
ATOM     33  C   UNL     1      -0.008   3.822  -0.209  0.00  0.00    -0.024 A 
ATOM     34  C   UNL     1       1.167   3.146   0.061  0.00  0.00    +0.008 A 
ATOM     35  C   UNL     1       0.018   5.309  -0.453  0.00  0.00    +0.046 C 
ATOM     36  C   UNL     1      -2.535   1.019  -0.092  0.00  0.00    +0.046 C 
ENDBRANCH  25  32
ENDBRANCH   1  25
TORSDOF 4
