REMARK  Name = ZINC24720092
REMARK  6 active torsions:
REMARK  status: ('A' for Active; 'I' for Inactive)
REMARK    1  A    between atoms: C_3  and  C_6
REMARK    2  A    between atoms: C_6  and  C_7
REMARK    3  A    between atoms: C_7  and  N_8
REMARK    4  A    between atoms: C_12  and  S_14
REMARK    5  A    between atoms: S_14  and  C_15
REMARK    6  A    between atoms: C_15  and  C_16
REMARK                            x       y       z     vdW  Elec       q    Type
REMARK                         _______ _______ _______ _____ _____    ______ ____
ROOT
ATOM      1  C   UNL     1      -0.083   1.444   0.155  0.00  0.00    +0.152 C 
ENDROOT
BRANCH   1   2
ATOM      2  C   UNL     1      -0.756   2.124   1.319  0.00  0.00    +0.143 A 
ATOM      3  N   UNL     1      -2.060   2.332   1.279  0.00  0.00    -0.216 NA
ATOM      4  C   UNL     1      -2.711   2.919   2.271  0.00  0.00    +0.128 A 
ATOM      5  C   UNL     1      -1.984   3.351   3.415  0.00  0.00    +0.051 A 
ATOM      6  C   UNL     1      -2.482   4.020   4.618  0.00  0.00    -0.025 A 
ATOM      7  C   UNL     1      -1.576   4.327   5.567  0.00  0.00    -0.004 A 
ATOM      8  S   UNL     1      -0.025   3.754   4.928  0.00  0.00    -0.073 S 
ATOM      9  C   UNL     1      -0.598   3.100   3.382  0.00  0.00    +0.114 A 
ATOM     10  N   UNL     1      -0.030   2.503   2.353  0.00  0.00    -0.224 NA
ATOM     11  C   UNL     1      -1.829   5.006   6.879  0.00  0.00    +0.043 C 
ATOM     12  C   UNL     1      -3.226   5.642   6.834  0.00  0.00    +0.005 C 
ATOM     13  C   UNL     1      -4.219   4.608   6.295  0.00  0.00    +0.005 C 
ATOM     14  C   UNL     1      -3.958   4.363   4.809  0.00  0.00    +0.037 C 
ATOM     15  N   UNL     1      -4.078   3.114   2.194  0.00  0.00    -0.343 N 
ATOM     16  H   UNL     1      -4.611   3.603   3.022  0.00  0.00    +0.144 HD
ATOM     17  H   UNL     1      -4.632   2.781   1.303  0.00  0.00    +0.144 HD
ENDBRANCH   1   2
BRANCH   1  18
ATOM     18  S   UNL     1      -0.071  -0.350   0.427  0.00  0.00    -0.089 S 
BRANCH  18  23
ATOM     19  N   UNL     1       2.464  -3.269  -3.893  0.00  0.00    -0.322 N 
ATOM     20  C   UNL     1       1.909  -2.370  -2.990  0.00  0.00    +0.182 A 
ATOM     21  N   UNL     1       1.831  -1.056  -3.059  0.00  0.00    -0.125 NA
ATOM     22  N   UNL     1       1.232  -0.350  -2.041  0.00  0.00    -0.133 NA
ATOM     23  C   UNL     1       0.738  -0.992  -1.000  0.00  0.00    +0.160 A 
ATOM     24  S   UNL     1       1.115  -2.687  -1.421  0.00  0.00    -0.025 S 
ATOM     25  H   UNL     1       2.445  -4.347  -3.678  0.00  0.00    +0.148 HD
BRANCH  19  26
ATOM     26  C   UNL     1       3.075  -2.779  -5.131  0.00  0.00    +0.108 C 
BRANCH  26  27
ATOM     27  C   UNL     1       3.606  -3.964  -5.941  0.00  0.00    +0.061 C 
BRANCH  27  30
ATOM     28  C   UNL     1       5.875  -2.657  -8.708  0.00  0.00    +0.008 A 
ATOM     29  C   UNL     1       5.518  -3.088  -7.444  0.00  0.00    +0.011 A 
ATOM     30  C   UNL     1       4.235  -3.460  -7.215  0.00  0.00    -0.009 A 
ATOM     31  S   UNL     1       3.481  -3.190  -8.810  0.00  0.00    -0.102 S 
ATOM     32  C   UNL     1       4.929  -2.608  -9.677  0.00  0.00    +0.045 A 
ENDBRANCH  27  30
ENDBRANCH  26  27
ENDBRANCH  19  26
ENDBRANCH  18  23
ENDBRANCH   1  18
TORSDOF 6
