REMARK  Name = ZINC04619195
REMARK  4 active torsions:
REMARK  status: ('A' for Active; 'I' for Inactive)
REMARK    1  A    between atoms: C_1  and  C_2
REMARK    2  A    between atoms: C_3  and  C_24
REMARK    3  A    between atoms: N_17  and  C_18
REMARK    4  A    between atoms: N_26  and  C_27
REMARK                            x       y       z     vdW  Elec       q    Type
REMARK                         _______ _______ _______ _____ _____    ______ ____
ROOT
ATOM      1  C   UNL     1       2.791   5.934   0.070  0.00  0.00    +0.079 C 
ATOM      2  C   UNL     1       2.633   4.435  -0.192  0.00  0.00    +0.194 C 
ATOM      3  C   UNL     1       3.808   3.679   0.445  0.00  0.00    +0.163 C 
ATOM      4  C   UNL     1       3.664   2.204   0.035  0.00  0.00    +0.123 C 
ATOM      5  C   UNL     1       2.279   1.738   0.423  0.00  0.00    +0.015 A 
ATOM      6  C   UNL     1       2.058   0.388   0.625  0.00  0.00    +0.009 A 
ATOM      7  C   UNL     1       0.800  -0.066   0.971  0.00  0.00    +0.001 A 
ATOM      8  C   UNL     1      -0.243   0.831   1.113  0.00  0.00    +0.004 A 
ATOM      9  C   UNL     1      -0.026   2.179   0.914  0.00  0.00    +0.046 A 
ATOM     10  C   UNL     1       1.241   2.641   0.571  0.00  0.00    +0.128 A 
ATOM     11  O   UNL     1       1.420   3.976   0.400  0.00  0.00    -0.467 OA
ATOM     12  N   UNL     1       3.754   2.140  -1.433  0.00  0.00    -0.318 N 
ATOM     13  C   UNL     1       3.199   3.107  -2.174  0.00  0.00    +0.141 C 
ATOM     14  S   UNL     1       3.235   2.957  -3.878  0.00  0.00    -0.018 S 
ATOM     15  N   UNL     1       2.626   4.192  -1.632  0.00  0.00    -0.243 N 
ATOM     16  H   UNL     1       4.206   1.397  -1.861  0.00  0.00    +0.148 HD
ENDROOT
BRANCH  15  17
ATOM     17  C   UNL     1       2.003   5.121  -2.473  0.00  0.00    +0.039 A 
ATOM     18  C   UNL     1       0.617   5.204  -2.512  0.00  0.00    +0.023 A 
ATOM     19  C   UNL     1       0.006   6.125  -3.340  0.00  0.00    +0.002 A 
ATOM     20  C   UNL     1       0.771   6.957  -4.137  0.00  0.00    +0.000 A 
ATOM     21  C   UNL     1       2.151   6.873  -4.104  0.00  0.00    +0.002 A 
ATOM     22  C   UNL     1       2.769   5.957  -3.274  0.00  0.00    +0.023 A 
ENDBRANCH  15  17
BRANCH   3  23
ATOM     23  C   UNL     1       3.749   3.805   1.945  0.00  0.00    +0.228 C 
ATOM     24  O   UNL     1       2.882   4.477   2.464  0.00  0.00    -0.275 OA
ATOM     25  N   UNL     1       4.659   3.172   2.711  0.00  0.00    -0.285 N 
ATOM     26  H   UNL     1       5.395   2.696   2.296  0.00  0.00    +0.155 HD
BRANCH  25  27
ATOM     27  C   UNL     1       4.543   3.202   4.105  0.00  0.00    +0.033 A 
ATOM     28  C   UNL     1       4.060   4.339   4.739  0.00  0.00    +0.023 A 
ATOM     29  C   UNL     1       3.941   4.363   6.115  0.00  0.00    +0.002 A 
ATOM     30  C   UNL     1       4.312   3.260   6.862  0.00  0.00    +0.000 A 
ATOM     31  C   UNL     1       4.799   2.128   6.234  0.00  0.00    +0.002 A 
ATOM     32  C   UNL     1       4.915   2.096   4.858  0.00  0.00    +0.023 A 
ENDBRANCH  25  27
ENDBRANCH   3  23
TORSDOF 3
