REMARK  Name = ZINC13361387
REMARK  7 active torsions:
REMARK  status: ('A' for Active; 'I' for Inactive)
REMARK    1  A    between atoms: C_1  and  O_2
REMARK    2  A    between atoms: O_2  and  C_3
REMARK    3  A    between atoms: C_6  and  C_9
REMARK    4  A    between atoms: C_13  and  C_25
REMARK    5  A    between atoms: C_28  and  O_31
REMARK    6  A    between atoms: O_31  and  C_32
REMARK    7  A    between atoms: C_32  and  C_33
REMARK                            x       y       z     vdW  Elec       q    Type
REMARK                         _______ _______ _______ _____ _____    ______ ____
ROOT
ATOM      1  C   UNL     1       2.505  -2.503  -4.381  0.00  0.00    +0.065 C 
ATOM      2  C   UNL     1       1.496  -3.401  -5.112  0.00  0.00    +0.094 C 
ATOM      3  N   UNL     1       2.208  -4.252  -6.076  0.00  0.00    -0.304 NA
ATOM      4  C   UNL     1       2.997  -5.291  -5.396  0.00  0.00    +0.131 C 
ATOM      5  C   UNL     1       3.859  -4.629  -4.348  0.00  0.00    +0.043 A 
ATOM      6  H   UNL     1       5.309  -6.048  -3.874  0.00  0.00    +0.166 HD
ATOM      7  C   UNL     1       3.636  -3.373  -3.895  0.00  0.00    -0.009 A 
ATOM      8  C   UNL     1       4.655  -3.085  -2.910  0.00  0.00    +0.004 A 
ATOM      9  C   UNL     1       4.923  -1.963  -2.120  0.00  0.00    +0.010 A 
ATOM     10  C   UNL     1       6.001  -2.044  -1.272  0.00  0.00    +0.001 A 
ATOM     11  C   UNL     1       6.793  -3.177  -1.194  0.00  0.00    +0.002 A 
ATOM     12  C   UNL     1       6.551  -4.302  -1.965  0.00  0.00    +0.026 A 
ATOM     13  C   UNL     1       5.464  -4.249  -2.835  0.00  0.00    +0.047 A 
ATOM     14  N   UNL     1       4.951  -5.160  -3.717  0.00  0.00    -0.356 N 
ATOM     15  H   UNL     1       1.567  -4.660  -6.740  0.00  0.00    +0.123 HD
ENDROOT
BRANCH   1  19
ATOM     16  C   UNL     1       0.606  -0.607  -1.056  0.00  0.00    +0.120 A 
ATOM     17  C   UNL     1       1.173   0.161  -2.062  0.00  0.00    +0.046 A 
ATOM     18  C   UNL     1       1.786  -0.455  -3.136  0.00  0.00    +0.008 A 
ATOM     19  C   UNL     1       1.835  -1.835  -3.209  0.00  0.00    -0.038 A 
ATOM     20  C   UNL     1       1.270  -2.602  -2.207  0.00  0.00    +0.008 A 
ATOM     21  C   UNL     1       0.661  -1.992  -1.128  0.00  0.00    +0.046 A 
BRANCH  16  23
ATOM     22  C   UNL     1      -0.017   1.425   0.010  0.00  0.00    +0.277 C 
ATOM     23  O   UNL     1       0.002  -0.004   0.002  0.00  0.00    -0.495 OA
ENDBRANCH  16  23
ENDBRANCH   1  19
BRANCH   4  24
ATOM     24  C   UNL     1       3.868  -6.003  -6.399  0.00  0.00    -0.024 A 
ATOM     25  C   UNL     1       4.501  -5.284  -7.396  0.00  0.00    +0.009 A 
ATOM     26  C   UNL     1       5.300  -5.934  -8.316  0.00  0.00    +0.046 A 
ATOM     27  C   UNL     1       5.467  -7.309  -8.239  0.00  0.00    +0.121 A 
ATOM     28  C   UNL     1       4.831  -8.028  -7.237  0.00  0.00    +0.046 A 
ATOM     29  C   UNL     1       4.038  -7.373  -6.316  0.00  0.00    +0.009 A 
BRANCH  27  30
ATOM     30  O   UNL     1       6.253  -7.951  -9.144  0.00  0.00    -0.481 OA
BRANCH  30  31
ATOM     31  C   UNL     1       6.379  -9.368  -9.004  0.00  0.00    +0.353 C 
BRANCH  31  32
ATOM     32  C   UNL     1       7.280  -9.901 -10.087  0.00  0.00    +0.393 C 
ATOM     33  O   UNL     1       7.769  -9.139 -10.904  0.00  0.00    -0.243 OA
ATOM     34  O   UNL     1       7.521 -11.095 -10.147  0.00  0.00    -0.243 OA
ENDBRANCH  31  32
ENDBRANCH  30  31
ENDBRANCH  27  30
ENDBRANCH   4  24
TORSDOF 6
