REMARK  Name = ZINC24507118
REMARK  5 active torsions:
REMARK  status: ('A' for Active; 'I' for Inactive)
REMARK    1  A    between atoms: C_3  and  C_6
REMARK    2  A    between atoms: C_6  and  N_7
REMARK    3  A    between atoms: C_8  and  S_12
REMARK    4  A    between atoms: S_12  and  C_13
REMARK    5  A    between atoms: C_13  and  C_14
REMARK                            x       y       z     vdW  Elec       q    Type
REMARK                         _______ _______ _______ _____ _____    ______ ____
ROOT
ATOM      1  C   UNL     1      -1.776  -0.343   0.017  0.00  0.00    +0.153 C 
ENDROOT
BRANCH   1   2
ATOM      2  C   UNL     1      -2.004  -1.832   0.011  0.00  0.00    +0.146 A 
ATOM      3  N   UNL     1      -2.120  -2.477  -1.137  0.00  0.00    -0.199 NA
ATOM      4  C   UNL     1      -2.316  -3.793  -1.146  0.00  0.00    +0.217 A 
ATOM      5  N   UNL     1      -2.406  -4.458   0.001  0.00  0.00    -0.181 NA
ATOM      6  C   UNL     1      -2.294  -3.806   1.153  0.00  0.00    +0.217 A 
ATOM      7  N   UNL     1      -2.092  -2.490   1.154  0.00  0.00    -0.199 NA
ATOM      8  N   UNL     1      -2.387  -4.491   2.347  0.00  0.00    -0.327 N 
ATOM      9  N   UNL     1      -2.432  -4.466  -2.345  0.00  0.00    -0.327 N 
ATOM     10  H   UNL     1      -2.294  -3.951   3.300  0.00  0.00    +0.145 HD
ATOM     11  H   UNL     1      -2.554  -5.579   2.345  0.00  0.00    +0.145 HD
ATOM     12  H   UNL     1      -2.595  -5.554  -2.352  0.00  0.00    +0.145 HD
ATOM     13  H   UNL     1      -2.362  -3.914  -3.294  0.00  0.00    +0.145 HD
ENDBRANCH   1   2
BRANCH   1  14
ATOM     14  S   UNL     1       0.002  -0.004   0.002  0.00  0.00    -0.077 S 
BRANCH  14  16
ATOM     15  N   UNL     1       1.056   2.577   0.006  0.00  0.00    -0.215 N 
ATOM     16  C   UNL     1      -0.022   1.758   0.012  0.00  0.00    +0.210 A 
ATOM     17  N   UNL     1      -1.090   2.525   0.020  0.00  0.00    -0.101 NA
ATOM     18  N   UNL     1      -0.754   3.764   0.028  0.00  0.00    -0.022 NA
ATOM     19  N   UNL     1       0.530   3.880   0.017  0.00  0.00    -0.043 NA
BRANCH  15  20
ATOM     20  C   UNL     1       2.469   2.188  -0.009  0.00  0.00    +0.190 C 
BRANCH  20  23
ATOM     21  C   UNL     1       3.849   2.658  -3.528  0.00  0.00    +0.008 A 
ATOM     22  C   UNL     1       3.487   3.005  -2.240  0.00  0.00    +0.013 A 
ATOM     23  C   UNL     1       2.940   2.062  -1.434  0.00  0.00    +0.011 A 
ATOM     24  S   UNL     1       2.931   0.628  -2.498  0.00  0.00    -0.100 S 
ATOM     25  C   UNL     1       3.648   1.385  -3.947  0.00  0.00    +0.045 A 
ENDBRANCH  20  23
ENDBRANCH  15  20
ENDBRANCH  14  16
ENDBRANCH   1  14
TORSDOF 5
