REMARK  Name = ZINC44136254
REMARK  7 active torsions:
REMARK  status: ('A' for Active; 'I' for Inactive)
REMARK    1  A    between atoms: C_1  and  C_2
REMARK    2  A    between atoms: C_2  and  C_3
REMARK    3  A    between atoms: C_2  and  C_4
REMARK    4  A    between atoms: C_2  and  O_5
REMARK    5  A    between atoms: O_5  and  C_6
REMARK    6  A    between atoms: C_11  and  C_17
REMARK    7  A    between atoms: C_13  and  N_16
REMARK                            x       y       z     vdW  Elec       q    Type
REMARK                         _______ _______ _______ _____ _____    ______ ____
ROOT
ATOM      1  C   UNL     1       1.564  -0.122  -1.273  0.00  0.00    +0.403 C 
ATOM      2  O   UNL     1       1.788   0.869  -0.606  0.00  0.00    -0.226 OA
ATOM      3  N   UNL     1       2.412  -0.477  -2.259  0.00  0.00    -0.269 N 
ATOM      4  C   UNL     1       2.152  -1.668  -3.078  0.00  0.00    +0.111 C 
ATOM      5  C   UNL     1       2.179  -1.266  -4.556  0.00  0.00    +0.025 C 
ATOM      6  C   UNL     1       3.505  -0.568  -4.866  0.00  0.00    +0.008 C 
ATOM      7  C   UNL     1       3.625   0.701  -4.018  0.00  0.00    -0.050 C 
ATOM      8  C   UNL     1       3.612   0.325  -2.538  0.00  0.00    +0.095 C 
ENDROOT
BRANCH   6   9
ATOM      9  C   UNL     1       3.549  -0.201  -6.327  0.00  0.00    -0.040 A 
ATOM     10  C   UNL     1       2.472   0.440  -6.911  0.00  0.00    +0.042 A 
ATOM     11  C   UNL     1       2.511   0.777  -8.253  0.00  0.00    +0.126 A 
ATOM     12  C   UNL     1       3.630   0.473  -9.011  0.00  0.00    +0.076 A 
ATOM     13  C   UNL     1       4.707  -0.169  -8.425  0.00  0.00    +0.126 A 
ATOM     14  C   UNL     1       4.668  -0.500  -7.081  0.00  0.00    +0.042 A 
ATOM     15  F   UNL     1       5.799  -0.466  -9.162  0.00  0.00    -0.205 F 
ATOM     16  F   UNL     1       1.459   1.403  -8.824  0.00  0.00    -0.205 F 
ENDBRANCH   6   9
BRANCH   7  17
ATOM     17  N   UNL     1       2.493   1.592  -4.305  0.00  0.00    +0.381 N 
ATOM     18  H   UNL     1       1.629   1.084  -4.194  0.00  0.00    -0.090 HD
ATOM     19  H   UNL     1       2.509   2.372  -3.666  0.00  0.00    -0.090 HD
ATOM     20  H   UNL     1       2.564   1.931  -5.253  0.00  0.00    -0.090 HD
ENDBRANCH   7  17
BRANCH   1  21
ATOM     21  O   UNL     1       0.469  -0.866  -1.028  0.00  0.00    -0.445 OA
BRANCH  21  23
ATOM     22  C   UNL     1      -0.905   0.976  -0.276  0.00  0.00    +0.055 C 
ATOM     23  C   UNL     1      -0.387  -0.431   0.031  0.00  0.00    +0.107 C 
ATOM     24  C   UNL     1       0.398  -0.410   1.344  0.00  0.00    +0.055 C 
ATOM     25  C   UNL     1      -1.569  -1.393   0.159  0.00  0.00    +0.055 C 
ENDBRANCH  21  23
ENDBRANCH   1  21
TORSDOF 4
