REMARK  Name = ZINC17092468
REMARK  6 active torsions:
REMARK  status: ('A' for Active; 'I' for Inactive)
REMARK    1  A    between atoms: C_3  and  N_8
REMARK    2  A    between atoms: N_8  and  C_9
REMARK    3  A    between atoms: C_9  and  N_11
REMARK    4  A    between atoms: C_12  and  C_14
REMARK    5  A    between atoms: C_16  and  N_26
REMARK    6  A    between atoms: C_19  and  N_20
REMARK                            x       y       z     vdW  Elec       q    Type
REMARK                         _______ _______ _______ _____ _____    ______ ____
ROOT
ATOM      1  N   UNL     1       5.910   2.162   0.160  0.00  0.00    -0.264 N 
ATOM      2  C   UNL     1       7.085   1.507   0.246  0.00  0.00    +0.251 C 
ATOM      3  O   UNL     1       7.105   0.291   0.240  0.00  0.00    -0.270 OA
ATOM      4  H   UNL     1       5.895   3.132   0.165  0.00  0.00    +0.157 HD
ENDROOT
BRANCH   2   5
ATOM      5  C   UNL     1       8.345   2.264   0.349  0.00  0.00    +0.060 A 
ATOM      6  C   UNL     1       8.327   3.662   0.362  0.00  0.00    +0.047 A 
ATOM      7  C   UNL     1       9.508   4.363   0.458  0.00  0.00    +0.127 A 
ATOM      8  C   UNL     1      10.718   3.691   0.542  0.00  0.00    +0.034 A 
ATOM      9  C   UNL     1      10.753   2.312   0.529  0.00  0.00    +0.026 A 
ATOM     10  C   UNL     1       9.571   1.586   0.440  0.00  0.00    +0.042 A 
BRANCH  10  11
ATOM     11  N   UNL     1       9.603   0.198   0.434  0.00  0.00    -0.325 N 
ATOM     12  C   UNL     1       9.724  -0.552  -0.826  0.00  0.00    +0.133 C 
ATOM     13  C   UNL     1      10.863  -1.567  -0.677  0.00  0.00    +0.178 C 
ATOM     14  O   UNL     1      10.650  -2.343   0.505  0.00  0.00    -0.377 OA
ATOM     15  C   UNL     1      10.666  -1.582   1.715  0.00  0.00    +0.178 C 
ATOM     16  C   UNL     1       9.524  -0.567   1.689  0.00  0.00    +0.133 C 
ENDBRANCH  10  11
BRANCH   7  17
ATOM     17  N   UNL     1       9.486   5.843   0.472  0.00  0.00    +0.056 N 
ATOM     18  O   UNL     1       8.433   6.433   0.399  0.00  0.00    -0.126 OA
ATOM     19  O   UNL     1      10.521   6.462   0.556  0.00  0.00    -0.126 OA
ENDBRANCH   7  17
ENDBRANCH   2   5
BRANCH   1  20
ATOM     20  C   UNL     1       4.758   1.470   0.066  0.00  0.00    +0.141 C 
ATOM     21  S   UNL     1       4.786  -0.242   0.057  0.00  0.00    -0.018 S 
BRANCH  20  22
ATOM     22  N   UNL     1       3.583   2.125  -0.021  0.00  0.00    -0.297 N 
ATOM     23  H   UNL     1       3.572   3.092  -0.097  0.00  0.00    +0.154 HD
BRANCH  22  26
ATOM     24  C   UNL     1       1.026  -0.352   0.899  0.00  0.00    +0.003 A 
ATOM     25  C   UNL     1       2.215   0.352   0.881  0.00  0.00    +0.023 A 
ATOM     26  C   UNL     1       2.381   1.411  -0.002  0.00  0.00    +0.034 A 
ATOM     27  C   UNL     1       1.351   1.759  -0.866  0.00  0.00    +0.043 A 
ATOM     28  C   UNL     1       0.164   1.051  -0.843  0.00  0.00    +0.043 A 
ATOM     29  C   UNL     1       0.002  -0.003   0.038  0.00  0.00    +0.020 A 
ATOM     30 CL   UNL     1      -1.125   1.485  -1.922  0.00  0.00    -0.083 Cl
ENDBRANCH  22  26
ENDBRANCH  20  22
ENDBRANCH   1  20
TORSDOF 6
