REMARK  Name = ZINC38576864
REMARK  7 active torsions:
REMARK  status: ('A' for Active; 'I' for Inactive)
REMARK    1  A    between atoms: C_1  and  C_2
REMARK    2  A    between atoms: C_5  and  C_9
REMARK    3  A    between atoms: C_6  and  O_8
REMARK    4  A    between atoms: C_11  and  C_15
REMARK    5  A    between atoms: N_17  and  C_18
REMARK    6  A    between atoms: C_20  and  C_31
REMARK    7  A    between atoms: N_33  and  C_34
REMARK                            x       y       z     vdW  Elec       q    Type
REMARK                         _______ _______ _______ _____ _____    ______ ____
ROOT
ATOM      1  C   UNL     1       1.529  -7.520   0.776  0.00  0.00    +0.244 C 
ATOM      2  O   UNL     1       2.511  -7.698   0.087  0.00  0.00    -0.273 OA
ATOM      3  N   UNL     1       1.526  -7.920   2.062  0.00  0.00    -0.301 N 
ATOM      4  H   UNL     1       0.740  -7.778   2.613  0.00  0.00    +0.150 HD
ENDROOT
BRANCH   3   5
ATOM      5  C   UNL     1       2.709  -8.571   2.630  0.00  0.00    +0.143 C 
ATOM      6  C   UNL     1       3.000  -8.033   4.046  0.00  0.00    +0.109 C 
ATOM      7  C   UNL     1       3.096  -9.148   5.106  0.00  0.00    +0.016 C 
ATOM      8  C   UNL     1       4.539  -9.659   5.065  0.00  0.00    +0.005 C 
ATOM      9  C   UNL     1       4.704 -10.927   5.896  0.00  0.00    +0.000 C 
ATOM     10  C   UNL     1       3.830 -12.023   5.273  0.00  0.00    +0.001 C 
ATOM     11  C   UNL     1       2.371 -11.590   5.407  0.00  0.00    +0.014 C 
ATOM     12  C   UNL     1       2.089 -10.261   4.747  0.00  0.00    +0.052 C 
ATOM     13  S   UNL     1       2.393 -10.365   2.914  0.00  0.00    -0.134 S 
BRANCH   6  14
ATOM     14  C   UNL     1       4.305  -7.279   4.021  0.00  0.00    +0.219 C 
ATOM     15  O   UNL     1       5.160  -7.574   3.213  0.00  0.00    -0.275 OA
ATOM     16  N   UNL     1       4.521  -6.276   4.895  0.00  0.00    -0.318 N 
ATOM     17  C   UNL     1       5.789  -5.543   4.870  0.00  0.00    +0.128 C 
ATOM     18  H   UNL     1       3.837  -6.040   5.541  0.00  0.00    +0.148 HD
ENDBRANCH   6  14
ENDBRANCH   3   5
BRANCH   1  21
ATOM     19  C   UNL     1       0.320  -4.730  -0.584  0.00  0.00    +0.095 C 
ATOM     20  C   UNL     1       0.261  -5.386   0.591  0.00  0.00    +0.041 C 
ATOM     21  C   UNL     1       0.311  -6.851   0.192  0.00  0.00    +0.238 C 
ATOM     22  N   UNL     1       0.398  -6.796  -1.277  0.00  0.00    -0.170 NA
ATOM     23  N   UNL     1       0.392  -5.611  -1.617  0.00  0.00    -0.153 NA
BRANCH  19  28
ATOM     24  C   UNL     1       0.247   1.003  -1.159  0.00  0.00    +0.044 C 
ATOM     25  C   UNL     1       0.266  -0.496  -1.006  0.00  0.00    -0.047 A 
ATOM     26  C   UNL     1       0.343  -1.302  -2.128  0.00  0.00    +0.004 A 
ATOM     27  C   UNL     1       0.361  -2.676  -1.997  0.00  0.00    +0.014 A 
ATOM     28  C   UNL     1       0.302  -3.254  -0.731  0.00  0.00    +0.043 A 
ATOM     29  C   UNL     1       0.224  -2.437   0.401  0.00  0.00    +0.126 A 
ATOM     30  C   UNL     1       0.213  -1.059   0.255  0.00  0.00    +0.049 A 
BRANCH  29  31
ATOM     31  O   UNL     1       0.166  -2.992   1.640  0.00  0.00    -0.506 OA
ATOM     32  H   UNL     1       1.031  -3.136   2.047  0.00  0.00    +0.292 HD
ENDBRANCH  29  31
ENDBRANCH  19  28
ENDBRANCH   1  21
TORSDOF 5
