REMARK  Name = ZINC62349534
REMARK  9 active torsions:
REMARK  status: ('A' for Active; 'I' for Inactive)
REMARK    1  A    between atoms: C_1  and  C_2
REMARK    2  A    between atoms: C_4  and  N_19
REMARK    3  A    between atoms: C_6  and  C_9
REMARK    4  A    between atoms: C_7  and  C_8
REMARK    5  A    between atoms: C_11  and  C_15
REMARK    6  A    between atoms: N_13  and  C_14
REMARK    7  A    between atoms: C_15  and  C_16
REMARK    8  A    between atoms: C_16  and  C_17
REMARK    9  A    between atoms: C_16  and  C_18
REMARK                            x       y       z     vdW  Elec       q    Type
REMARK                         _______ _______ _______ _____ _____    ______ ____
ROOT
ATOM      1  C   UNL     1       3.021   0.243  -0.277  0.00  0.00    +0.044 C 
ATOM      2  C   UNL     1       1.820  -0.655  -0.131  0.00  0.00    -0.045 A 
ATOM      3  C   UNL     1       0.943  -0.810  -1.188  0.00  0.00    +0.026 A 
ATOM      4  C   UNL     1      -0.167  -1.637  -1.061  0.00  0.00    +0.025 A 
ATOM      5  C   UNL     1      -0.397  -2.309   0.130  0.00  0.00    +0.034 A 
ATOM      6  C   UNL     1       0.487  -2.152   1.196  0.00  0.00    +0.024 A 
ATOM      7  C   UNL     1       1.601  -1.324   1.056  0.00  0.00    -0.037 A 
ATOM      8  C   UNL     1       2.564  -1.156   2.204  0.00  0.00    +0.045 C 
ENDROOT
BRANCH   6   9
ATOM      9  C   UNL     1       0.247  -2.865   2.470  0.00  0.00    +0.159 A 
ATOM     10  N   UNL     1       0.255  -2.329   3.674  0.00  0.00    -0.211 NA
ATOM     11  C   UNL     1       0.001  -3.264   4.585  0.00  0.00    +0.152 A 
ATOM     12  N   UNL     1      -0.173  -4.413   3.985  0.00  0.00    -0.155 NA
ATOM     13  N   UNL     1      -0.025  -4.183   2.607  0.00  0.00    -0.248 N 
ATOM     14  C   UNL     1      -0.139  -5.173   1.533  0.00  0.00    +0.174 C 
BRANCH  11  15
ATOM     15  C   UNL     1      -0.072  -3.036   6.072  0.00  0.00    +0.081 C 
BRANCH  15  16
ATOM     16  C   UNL     1      -1.509  -2.685   6.464  0.00  0.00    -0.010 C 
ATOM     17  C   UNL     1      -2.419  -3.885   6.193  0.00  0.00    +0.007 C 
ATOM     18  C   UNL     1      -1.560  -2.332   7.952  0.00  0.00    +0.007 C 
ENDBRANCH  15  16
ENDBRANCH  11  15
ENDBRANCH   6   9
BRANCH   4  19
ATOM     19  N   UNL     1      -1.050  -1.790  -2.132  0.00  0.00    -0.358 N 
ATOM     20  H   UNL     1      -0.889  -1.320  -2.965  0.00  0.00    +0.142 HD
ATOM     21  H   UNL     1      -1.825  -2.367  -2.043  0.00  0.00    +0.142 HD
ENDBRANCH   4  19
TORSDOF 4
