REMARK  Name = ZINC22439206
REMARK  7 active torsions:
REMARK  status: ('A' for Active; 'I' for Inactive)
REMARK    1  A    between atoms: C_1  and  C_2
REMARK    2  A    between atoms: C_3  and  N_9
REMARK    3  A    between atoms: C_10  and  C_14
REMARK    4  A    between atoms: C_14  and  N_21
REMARK    5  A    between atoms: C_17  and  C_20
REMARK    6  A    between atoms: N_21  and  C_22
REMARK    7  A    between atoms: C_22  and  C_23
REMARK                            x       y       z     vdW  Elec       q    Type
REMARK                         _______ _______ _______ _____ _____    ______ ____
ROOT
ATOM      1  C   UNL     1       0.708   4.075  -0.924  0.00  0.00    -0.005 C 
ATOM      2  C   UNL     1       1.762   4.032   0.184  0.00  0.00    -0.004 C 
ATOM      3  C   UNL     1       1.994   2.582   0.612  0.00  0.00    +0.002 C 
ATOM      4  C   UNL     1       0.683   1.987   1.131  0.00  0.00    -0.014 C 
ATOM      5  C   UNL     1      -0.370   2.030   0.023  0.00  0.00    +0.002 C 
ATOM      6  C   UNL     1      -0.603   3.480  -0.405  0.00  0.00    -0.004 C 
ATOM      7  C   UNL     1       0.915   0.537   1.559  0.00  0.00    +0.007 C 
ENDROOT
BRANCH   1   9
ATOM      8  N   UNL     1       1.418   6.369  -1.785  0.00  0.00    -0.198 N 
ATOM      9  C   UNL     1       0.479   5.504  -1.345  0.00  0.00    +0.146 A 
ATOM     10  N   UNL     1      -0.664   6.138  -1.347  0.00  0.00    -0.114 NA
ATOM     11  N   UNL     1      -0.513   7.343  -1.763  0.00  0.00    -0.023 NA
ATOM     12  N   UNL     1       0.724   7.562  -2.053  0.00  0.00    -0.039 NA
BRANCH   8  15
ATOM     13  C   UNL     1       3.247   7.992  -0.329  0.00  0.00    +0.047 C 
ATOM     14  C   UNL     1       3.716   6.897  -1.252  0.00  0.00    -0.007 A 
ATOM     15  C   UNL     1       2.791   6.128  -1.944  0.00  0.00    +0.073 A 
ATOM     16  C   UNL     1       3.226   5.116  -2.788  0.00  0.00    +0.028 A 
ATOM     17  C   UNL     1       4.579   4.885  -2.948  0.00  0.00    +0.004 A 
ATOM     18  C   UNL     1       5.499   5.652  -2.257  0.00  0.00    +0.020 A 
ATOM     19  C   UNL     1       5.068   6.658  -1.410  0.00  0.00    +0.046 A 
ATOM     20 CL   UNL     1       6.227   7.619  -0.545  0.00  0.00    -0.083 Cl
ENDBRANCH   8  15
ENDBRANCH   1   9
BRANCH   1  21
ATOM     21  N   UNL     1       1.177   3.294  -2.076  0.00  0.00    +0.390 N 
ATOM     22  H   UNL     1       2.129   3.711  -2.438  0.00  0.00    -0.084 HD
ATOM     23  H   UNL     1       1.328   2.247  -1.773  0.00  0.00    -0.084 HD
BRANCH  21  24
ATOM     24  C   UNL     1       0.199   3.331  -3.171  0.00  0.00    -0.045 C 
BRANCH  24  25
ATOM     25  C   UNL     1       0.676   2.455  -4.301  0.00  0.00    -0.064 A 
ATOM     26  C   UNL     1       1.369   3.010  -5.361  0.00  0.00    +0.002 A 
ATOM     27  C   UNL     1       1.810   2.206  -6.395  0.00  0.00    +0.000 A 
ATOM     28  C   UNL     1       1.551   0.848  -6.374  0.00  0.00    +0.000 A 
ATOM     29  C   UNL     1       0.854   0.294  -5.317  0.00  0.00    +0.000 A 
ATOM     30  C   UNL     1       0.416   1.098  -4.280  0.00  0.00    +0.002 A 
ENDBRANCH  24  25
ENDBRANCH  21  24
ENDBRANCH   1  21
TORSDOF 5
