REMARK  Name = ZINC35465376
REMARK  11 active torsions:
REMARK  status: ('A' for Active; 'I' for Inactive)
REMARK    1  A    between atoms: C_1  and  C_2
REMARK    2  A    between atoms: C_5  and  O_33
REMARK    3  A    between atoms: C_9  and  C_32
REMARK    4  A    between atoms: C_11  and  O_31
REMARK    5  A    between atoms: C_14  and  C_30
REMARK    6  A    between atoms: C_19  and  O_29
REMARK    7  A    between atoms: C_21  and  O_27
REMARK    8  A    between atoms: C_24  and  C_25
REMARK    9  A    between atoms: C_24  and  C_26
REMARK   10  A    between atoms: O_27  and  C_28
REMARK   11  A    between atoms: O_33  and  C_34
REMARK                            x       y       z     vdW  Elec       q    Type
REMARK                         _______ _______ _______ _____ _____    ______ ____
ROOT
ATOM      1  C   UNL     1       0.552   2.287   0.413  0.00  0.00    +0.048 C 
ATOM      2  C   UNL     1       0.444   0.804   0.163  0.00  0.00    -0.001 A 
ATOM      3  C   UNL     1       0.473   0.294  -1.108  0.00  0.00    +0.014 A 
ATOM      4  C   UNL     1       0.350  -1.091  -1.350  0.00  0.00    +0.108 A 
ATOM      5  C   UNL     1       0.208  -1.994  -0.287  0.00  0.00    +0.141 A 
ATOM      6  C   UNL     1       0.207  -1.466   1.005  0.00  0.00    +0.037 A 
ATOM      7  C   UNL     1       0.328  -0.105   1.228  0.00  0.00    +0.131 A 
ATOM      8  O   UNL     1       0.373   0.423   2.486  0.00  0.00    -0.485 OA
ATOM      9  C   UNL     1       0.849  -0.498   3.509  0.00  0.00    +0.114 C 
ATOM     10  C   UNL     1       0.882   0.233   4.832  0.00  0.00    +0.082 C 
ATOM     11  C   UNL     1       0.228  -0.480   5.998  0.00  0.00    +0.154 C 
ATOM     12  C   UNL     1       0.339  -1.985   5.937  0.00  0.00    +0.135 C 
ATOM     13  C   UNL     1      -0.300  -2.522   4.660  0.00  0.00    +0.012 C 
ATOM     14  C   UNL     1      -0.122  -1.655   3.448  0.00  0.00    +0.046 C 
ATOM     15  C   UNL     1       0.076  -2.442   2.155  0.00  0.00    +0.050 C 
ATOM     16  C   UNL     1       0.006  -4.003   4.473  0.00  0.00    +0.049 C 
ATOM     17  C   UNL     1      -0.298  -4.747   5.777  0.00  0.00    +0.205 C 
ATOM     18  C   UNL     1       0.004  -3.930   7.027  0.00  0.00    +0.314 C 
ATOM     19  O   UNL     1      -0.535  -2.591   6.952  0.00  0.00    -0.312 OA
ATOM     20  O   UNL     1       1.426  -3.728   7.131  0.00  0.00    -0.315 OA
ATOM     21  C   UNL     1       1.695  -2.541   6.329  0.00  0.00    +0.101 C 
ATOM     22  C   UNL     1       2.654  -2.937   5.212  0.00  0.00    +0.044 C 
ATOM     23  C   UNL     1       2.467  -1.576   7.261  0.00  0.00    +0.044 C 
ATOM     24  C   UNL     1      -1.853  -2.506   4.921  0.00  0.00    +0.015 C 
ATOM     25  C   UNL     1       2.266  -0.870   3.065  0.00  0.00    +0.056 C 
ATOM     26  C   UNL     1       0.404  -1.298  -2.791  0.00  0.00    +0.343 C 
ATOM     27  O   UNL     1       0.336  -2.377  -3.345  0.00  0.00    -0.245 OA
ATOM     28  O   UNL     1       0.538  -0.113  -3.421  0.00  0.00    -0.456 OA
ATOM     29  C   UNL     1       0.627   0.939  -2.450  0.00  0.00    +0.269 C 
ENDROOT
BRANCH  18  30
ATOM     30  O   UNL     1      -0.491  -4.606   8.194  0.00  0.00    -0.328 OA
ATOM     31  C   UNL     1      -0.250  -3.906   9.416  0.00  0.00    +0.200 C 
ENDBRANCH  18  30
BRANCH  17  32
ATOM     32  O   UNL     1       0.498  -5.941   5.809  0.00  0.00    -0.384 OA
ATOM     33  H   UNL     1       0.369  -6.478   6.604  0.00  0.00    +0.210 HD
ENDBRANCH  17  32
BRANCH  11  34
ATOM     34  O   UNL     1      -1.157  -0.093   6.055  0.00  0.00    -0.389 OA
ATOM     35  H   UNL     1      -1.296   0.856   6.178  0.00  0.00    +0.210 HD
ENDBRANCH  11  34
BRANCH   5  36
ATOM     36  O   UNL     1       0.076  -3.327  -0.507  0.00  0.00    -0.494 OA
ATOM     37  C   UNL     1       1.278  -4.098  -0.557  0.00  0.00    +0.277 C 
ENDBRANCH   5  36
TORSDOF 4
