REMARK  Name = ZINC36476332
REMARK  13 active torsions:
REMARK  status: ('A' for Active; 'I' for Inactive)
REMARK    1  A    between atoms: C_1  and  C_2
REMARK    2  A    between atoms: C_2  and  O_3
REMARK    3  A    between atoms: O_3  and  C_4
REMARK    4  A    between atoms: C_6  and  C_12
REMARK    5  A    between atoms: C_9  and  O_10
REMARK    6  A    between atoms: N_13  and  N_14
REMARK    7  A    between atoms: C_15  and  C_17
REMARK    8  A    between atoms: N_19  and  N_20
REMARK    9  A    between atoms: C_21  and  C_22
REMARK   10  A    between atoms: C_24  and  O_30
REMARK   11  A    between atoms: C_25  and  O_29
REMARK   12  A    between atoms: O_30  and  C_31
REMARK   13  A    between atoms: C_31  and  C_32
REMARK                            x       y       z     vdW  Elec       q    Type
REMARK                         _______ _______ _______ _____ _____    ______ ____
ROOT
ATOM      1  N   UNL     1       0.313  -7.161  -1.972  0.00  0.00    -0.199 N 
ATOM      2  C   UNL     1       0.431  -8.501  -1.892  0.00  0.00    +0.320 C 
ATOM      3  O   UNL     1       1.359  -8.993  -1.281  0.00  0.00    -0.263 OA
ATOM      4  H   UNL     1      -0.427  -6.768  -2.460  0.00  0.00    +0.178 HD
ENDROOT
BRANCH   2   5
ATOM      5  C   UNL     1      -0.575  -9.378  -2.551  0.00  0.00    +0.320 C 
ATOM      6  O   UNL     1      -1.503  -8.886  -3.162  0.00  0.00    -0.263 OA
ATOM      7  N   UNL     1      -0.457 -10.718  -2.471  0.00  0.00    -0.199 N 
ATOM      8  H   UNL     1       0.284 -11.111  -1.983  0.00  0.00    +0.178 HD
BRANCH   7   9
ATOM      9  N   UNL     1      -1.404 -11.544  -3.092  0.00  0.00    -0.187 NA
ATOM     10  C   UNL     1      -1.359 -12.830  -2.916  0.00  0.00    +0.138 C 
BRANCH  10  11
ATOM     11  C   UNL     1      -0.664 -13.390  -1.744  0.00  0.00    -0.000 A 
ATOM     12  C   UNL     1      -0.361 -14.754  -1.694  0.00  0.00    +0.059 A 
ATOM     13  C   UNL     1       0.292 -15.274  -0.592  0.00  0.00    +0.164 A 
ATOM     14  C   UNL     1       0.646 -14.440   0.466  0.00  0.00    +0.177 A 
ATOM     15  C   UNL     1       0.346 -13.085   0.418  0.00  0.00    +0.087 A 
ATOM     16  C   UNL     1      -0.300 -12.558  -0.681  0.00  0.00    +0.033 A 
ATOM     17 CL   UNL     1       0.789 -12.052   1.740  0.00  0.00    -0.080 Cl
BRANCH  14  18
ATOM     18  O   UNL     1       1.287 -14.954   1.549  0.00  0.00    -0.502 OA
ATOM     19  H   UNL     1       2.251 -14.944   1.477  0.00  0.00    +0.292 HD
ENDBRANCH  14  18
BRANCH  13  20
ATOM     20  O   UNL     1       0.588 -16.600  -0.541  0.00  0.00    -0.489 OA
BRANCH  20  21
ATOM     21  C   UNL     1       0.195 -17.396  -1.661  0.00  0.00    +0.226 C 
ATOM     22  C   UNL     1       0.609 -18.850  -1.423  0.00  0.00    +0.048 C 
ENDBRANCH  20  21
ENDBRANCH  13  20
ENDBRANCH  10  11
ENDBRANCH   7   9
ENDBRANCH   2   5
BRANCH   1  24
ATOM     23  C   UNL     1       1.146  -5.044  -1.429  0.00  0.00    +0.138 C 
ATOM     24  N   UNL     1       1.260  -6.336  -1.351  0.00  0.00    -0.187 NA
BRANCH  23  27
ATOM     25  C   UNL     1       2.957  -1.976  -0.244  0.00  0.00    +0.164 A 
ATOM     26  C   UNL     1       2.021  -2.786  -0.859  0.00  0.00    +0.059 A 
ATOM     27  C   UNL     1       2.142  -4.176  -0.776  0.00  0.00    -0.000 A 
ATOM     28  C   UNL     1       3.209  -4.740  -0.073  0.00  0.00    +0.033 A 
ATOM     29  C   UNL     1       4.140  -3.925   0.538  0.00  0.00    +0.087 A 
ATOM     30  C   UNL     1       4.022  -2.545   0.451  0.00  0.00    +0.177 A 
ATOM     31 CL   UNL     1       5.466  -4.628   1.411  0.00  0.00    -0.080 Cl
BRANCH  30  32
ATOM     32  O   UNL     1       4.945  -1.746   1.049  0.00  0.00    -0.502 OA
ATOM     33  H   UNL     1       4.730  -1.513   1.963  0.00  0.00    +0.292 HD
ENDBRANCH  30  32
BRANCH  25  34
ATOM     34  O   UNL     1       2.842  -0.623  -0.323  0.00  0.00    -0.489 OA
BRANCH  34  36
ATOM     35  C   UNL     1       1.765   1.421  -1.030  0.00  0.00    +0.048 C 
ATOM     36  C   UNL     1       1.726  -0.108  -1.051  0.00  0.00    +0.226 C 
ENDBRANCH  34  36
ENDBRANCH  25  34
ENDBRANCH  23  27
ENDBRANCH   1  24
TORSDOF 11
