REMARK  Name = ZINC33763457
REMARK  10 active torsions:
REMARK  status: ('A' for Active; 'I' for Inactive)
REMARK    1  A    between atoms: C_1  and  C_2
REMARK    2  A    between atoms: C_2  and  C_3
REMARK    3  A    between atoms: C_3  and  C_5
REMARK    4  A    between atoms: C_3  and  C_6
REMARK    5  A    between atoms: C_6  and  C_35
REMARK    6  A    between atoms: C_11  and  C_14
REMARK    7  A    between atoms: C_19  and  O_20
REMARK    8  A    between atoms: O_20  and  C_21
REMARK    9  A    between atoms: N_25  and  C_28
REMARK   10  A    between atoms: C_33  and  C_34
REMARK                            x       y       z     vdW  Elec       q    Type
REMARK                         _______ _______ _______ _____ _____    ______ ____
ROOT
ATOM      1  C   UNL     1      -0.084   1.312  -2.941  0.00  0.00    +0.051 C 
ATOM      2  C   UNL     1      -0.854   1.566  -4.175  0.00  0.00    +0.086 C 
ATOM      3  C   UNL     1      -0.095   0.639  -5.209  0.00  0.00    +0.077 C 
ATOM      4  C   UNL     1      -0.102  -0.640  -4.375  0.00  0.00    -0.023 C 
ATOM      5  N   UNL     1       0.049  -0.186  -2.959  0.00  0.00    +0.396 N 
ATOM      6  C   UNL     1      -1.089   0.809  -6.326  0.00  0.00    +0.229 C 
ATOM      7  O   UNL     1      -1.432  -0.025  -7.135  0.00  0.00    -0.275 OA
ATOM      8  N   UNL     1      -1.523   2.102  -6.235  0.00  0.00    -0.210 N 
ATOM      9  C   UNL     1      -1.220   2.672  -5.030  0.00  0.00    +0.229 C 
ATOM     10  O   UNL     1      -1.253   3.850  -4.744  0.00  0.00    -0.275 OA
ATOM     11  H   UNL     1       1.037  -0.471  -2.569  0.00  0.00    -0.083 HD
ATOM     12  H   UNL     1      -0.736  -0.631  -2.329  0.00  0.00    -0.083 HD
ENDROOT
BRANCH   4  13
ATOM     13  C   UNL     1      -1.405  -1.375  -4.555  0.00  0.00    -0.018 A 
ATOM     14  C   UNL     1      -2.415  -1.229  -3.624  0.00  0.00    +0.021 A 
ATOM     15  C   UNL     1      -3.614  -1.899  -3.792  0.00  0.00    +0.018 A 
ATOM     16  C   UNL     1      -3.800  -2.724  -4.886  0.00  0.00    +0.019 A 
ATOM     17  C   UNL     1      -2.790  -2.877  -5.817  0.00  0.00    +0.047 A 
ATOM     18  C   UNL     1      -1.589  -2.202  -5.653  0.00  0.00    +0.122 A 
ATOM     19 BR   UNL     1      -4.997  -1.693  -2.519  0.00  0.00    -0.050 Br
BRANCH  18  20
ATOM     20  O   UNL     1      -0.595  -2.350  -6.568  0.00  0.00    -0.495 OA
ATOM     21  C   UNL     1      -0.855  -3.218  -7.673  0.00  0.00    +0.277 C 
ENDBRANCH  18  20
ENDBRANCH   4  13
BRANCH   8  22
ATOM     22  C   UNL     1      -2.194   2.770  -7.269  0.00  0.00    +0.047 A 
ATOM     23  C   UNL     1      -3.579   2.717  -7.348  0.00  0.00    +0.024 A 
ATOM     24  C   UNL     1      -4.237   3.377  -8.367  0.00  0.00    +0.002 A 
ATOM     25  C   UNL     1      -3.518   4.090  -9.309  0.00  0.00    +0.000 A 
ATOM     26  C   UNL     1      -2.138   4.145  -9.232  0.00  0.00    +0.005 A 
ATOM     27  C   UNL     1      -1.475   3.491  -8.212  0.00  0.00    -0.029 A 
ATOM     28  C   UNL     1       0.028   3.557  -8.126  0.00  0.00    +0.045 C 
ENDBRANCH   8  22
BRANCH   1  29
ATOM     29  C   UNL     1       1.269   1.973  -3.005  0.00  0.00    +0.347 C 
ATOM     30  O   UNL     1       1.423   2.970  -3.671  0.00  0.00    -0.248 OA
ATOM     31  O   UNL     1       2.302   1.455  -2.322  0.00  0.00    -0.248 OA
ENDBRANCH   1  29
BRANCH   1  32
ATOM     32  C   UNL     1      -0.859   1.778  -1.707  0.00  0.00    -0.014 C 
ATOM     33  C   UNL     1      -2.168   0.992  -1.600  0.00  0.00    +0.006 C 
BRANCH  32  35
ATOM     34  C   UNL     1      -0.737   2.115   0.765  0.00  0.00    +0.004 C 
ATOM     35  C   UNL     1      -0.016   1.537  -0.454  0.00  0.00    -0.001 C 
ENDBRANCH  32  35
ENDBRANCH   1  32
TORSDOF 6
