REMARK  Name = ZINC02869134
REMARK  7 active torsions:
REMARK  status: ('A' for Active; 'I' for Inactive)
REMARK    1  A    between atoms: C_1  and  C_2
REMARK    2  A    between atoms: C_5  and  S_8
REMARK    3  A    between atoms: S_8  and  N_11
REMARK    4  A    between atoms: N_14  and  C_15
REMARK    5  A    between atoms: N_14  and  C_19
REMARK    6  A    between atoms: C_15  and  C_16
REMARK    7  A    between atoms: C_16  and  C_17
REMARK                            x       y       z     vdW  Elec       q    Type
REMARK                         _______ _______ _______ _____ _____    ______ ____
ROOT
ATOM      1  N   UNL     1       1.233  -2.933  -1.601  0.00  0.00    -0.169 N 
ATOM      2  C   UNL     1       2.284  -2.656  -2.398  0.00  0.00    +0.326 C 
ATOM      3  O   UNL     1       3.251  -2.073  -1.948  0.00  0.00    -0.251 OA
ATOM      4  N   UNL     1       2.262  -3.025  -3.694  0.00  0.00    -0.253 N 
ATOM      5  H   UNL     1       0.461  -3.398  -1.960  0.00  0.00    +0.178 HD
ENDROOT
BRANCH   4   6
ATOM      6  C   UNL     1       3.298  -2.635  -4.550  0.00  0.00    +0.038 A 
ATOM      7  C   UNL     1       3.602  -1.289  -4.705  0.00  0.00    +0.023 A 
ATOM      8  C   UNL     1       4.629  -0.907  -5.548  0.00  0.00    +0.002 A 
ATOM      9  C   UNL     1       5.345  -1.863  -6.244  0.00  0.00    +0.000 A 
ATOM     10  C   UNL     1       5.041  -3.204  -6.095  0.00  0.00    +0.002 A 
ATOM     11  C   UNL     1       4.020  -3.592  -5.250  0.00  0.00    +0.023 A 
ENDBRANCH   4   6
BRANCH   1  12
ATOM     12  S   UNL     1       1.259  -2.479  -0.008  0.00  0.00    +0.076 S 
ATOM     13  O   UNL     1       2.507  -2.912   0.517  0.00  0.00    -0.150 OA
ATOM     14  O   UNL     1       0.016  -2.883   0.550  0.00  0.00    -0.150 OA
BRANCH  12  19
ATOM     15  C   UNL     1       1.333   3.553   0.129  0.00  0.00    +0.044 C 
ATOM     16  C   UNL     1       1.315   2.046   0.095  0.00  0.00    -0.050 A 
ATOM     17  C   UNL     1       0.109   1.369   0.094  0.00  0.00    +0.005 A 
ATOM     18  C   UNL     1       0.092  -0.012   0.062  0.00  0.00    +0.029 A 
ATOM     19  C   UNL     1       1.281  -0.718   0.031  0.00  0.00    +0.109 A 
ATOM     20  C   UNL     1       2.486  -0.041   0.031  0.00  0.00    +0.029 A 
ATOM     21  C   UNL     1       2.503   1.341   0.062  0.00  0.00    +0.005 A 
ENDBRANCH  12  19
ENDBRANCH   1  12
BRANCH   4  22
ATOM     22  C   UNL     1       1.154  -3.835  -4.207  0.00  0.00    +0.130 C 
BRANCH  22  23
ATOM     23  C   UNL     1       0.042  -2.915  -4.715  0.00  0.00    +0.138 C 
BRANCH  23  24
ATOM     24  C   UNL     1      -1.071  -3.729  -5.230  0.00  0.00    +0.064 C 
ATOM     25  N   UNL     1      -1.930  -4.357  -5.628  0.00  0.00    -0.197 NA
ENDBRANCH  23  24
ENDBRANCH  22  23
ENDBRANCH   4  22
TORSDOF 6
