REMARK  Name = ZINC59013118
REMARK  7 active torsions:
REMARK  status: ('A' for Active; 'I' for Inactive)
REMARK    1  A    between atoms: C_1  and  C_2
REMARK    2  A    between atoms: C_2  and  C_4
REMARK    3  A    between atoms: C_2  and  N_11
REMARK    4  A    between atoms: C_12  and  C_14
REMARK    5  A    between atoms: C_14  and  N_15
REMARK    6  A    between atoms: C_18  and  C_22
REMARK    7  A    between atoms: C_18  and  C_23
REMARK                            x       y       z     vdW  Elec       q    Type
REMARK                         _______ _______ _______ _____ _____    ______ ____
ROOT
ATOM      1  N   UNL     1       4.223  -1.127   2.126  0.00  0.00    -0.215 N 
ATOM      2  C   UNL     1       4.875  -2.187   1.609  0.00  0.00    +0.251 C 
ATOM      3  O   UNL     1       4.400  -3.255   1.289  0.00  0.00    -0.272 OA
ATOM      4  C   UNL     1       6.328  -1.764   1.508  0.00  0.00    +0.138 C 
ATOM      5  N   UNL     1       6.324  -0.386   2.029  0.00  0.00    -0.281 N 
ATOM      6  C   UNL     1       5.051  -0.103   2.359  0.00  0.00    +0.310 C 
ATOM      7  O   UNL     1       4.694   0.963   2.821  0.00  0.00    -0.252 OA
ATOM      8  C   UNL     1       7.212  -2.664   2.373  0.00  0.00    +0.047 C 
ATOM      9  H   UNL     1       7.090   0.203   2.115  0.00  0.00    +0.152 HD
ENDROOT
BRANCH   4  10
ATOM     10  C   UNL     1       6.788  -1.786   0.073  0.00  0.00    +0.020 A 
ATOM     11  C   UNL     1       7.253  -0.628  -0.522  0.00  0.00    +0.012 A 
ATOM     12  C   UNL     1       7.676  -0.647  -1.837  0.00  0.00    +0.039 A 
ATOM     13  C   UNL     1       7.634  -1.827  -2.561  0.00  0.00    +0.126 A 
ATOM     14  C   UNL     1       7.169  -2.987  -1.967  0.00  0.00    +0.077 A 
ATOM     15  C   UNL     1       6.751  -2.968  -0.647  0.00  0.00    +0.132 A 
ATOM     16  F   UNL     1       6.301  -4.101  -0.064  0.00  0.00    -0.205 F 
ATOM     17  F   UNL     1       8.047  -1.846  -3.848  0.00  0.00    -0.205 F 
ENDBRANCH   4  10
BRANCH   1  18
ATOM     18  C   UNL     1       2.783  -1.099   2.395  0.00  0.00    +0.213 C 
BRANCH  18  20
ATOM     19  N   UNL     1       0.711  -0.489   1.189  0.00  0.00    -0.307 N 
ATOM     20  C   UNL     1       2.054  -0.600   1.174  0.00  0.00    +0.231 C 
ATOM     21  O   UNL     1       2.676  -0.297   0.177  0.00  0.00    -0.274 OA
ATOM     22  H   UNL     1       0.213  -0.731   1.986  0.00  0.00    +0.149 HD
BRANCH  19  24
ATOM     23  C   UNL     1      -0.019   1.526   0.010  0.00  0.00    +0.033 C 
ATOM     24  C   UNL     1       0.002  -0.004   0.002  0.00  0.00    +0.102 C 
BRANCH  24  25
ATOM     25  C   UNL     1      -1.412  -0.526   0.013  0.00  0.00    -0.009 A 
ATOM     26  C   UNL     1      -2.015  -0.864   1.210  0.00  0.00    +0.007 A 
ATOM     27  C   UNL     1      -3.312  -1.342   1.220  0.00  0.00    +0.000 A 
ATOM     28  C   UNL     1      -4.006  -1.483   0.033  0.00  0.00    +0.001 A 
ATOM     29  C   UNL     1      -3.404  -1.145  -1.165  0.00  0.00    +0.020 A 
ATOM     30  C   UNL     1      -2.108  -0.661  -1.175  0.00  0.00    +0.046 A 
ATOM     31 CL   UNL     1      -1.354  -0.230  -2.678  0.00  0.00    -0.083 Cl
ENDBRANCH  24  25
ENDBRANCH  19  24
ENDBRANCH  18  20
ENDBRANCH   1  18
TORSDOF 5
