REMARK  Name = ZINC37556297
REMARK  7 active torsions:
REMARK  status: ('A' for Active; 'I' for Inactive)
REMARK    1  A    between atoms: C_1  and  C_2
REMARK    2  A    between atoms: C_2  and  C_4
REMARK    3  A    between atoms: C_2  and  N_9
REMARK    4  A    between atoms: N_9  and  S_10
REMARK    5  A    between atoms: S_10  and  C_13
REMARK    6  A    between atoms: C_14  and  N_21
REMARK    7  A    between atoms: N_21  and  N_22
REMARK                            x       y       z     vdW  Elec       q    Type
REMARK                         _______ _______ _______ _____ _____    ______ ____
ROOT
ATOM      1  C   UNL     1      -1.137  -2.294   2.137  0.00  0.00    +0.222 A 
ATOM      2  C   UNL     1      -2.393  -2.257   1.645  0.00  0.00    +0.179 A 
ATOM      3  N   UNL     1      -2.812  -3.520   1.462  0.00  0.00    -0.203 NA
ATOM      4  C   UNL     1      -1.864  -4.339   1.822  0.00  0.00    +0.181 A 
ATOM      5  N   UNL     1      -0.771  -3.638   2.256  0.00  0.00    -0.276 N 
ATOM      6  C   UNL     1       0.320  -4.373   2.666  0.00  0.00    +0.102 A 
ATOM      7  C   UNL     1       0.297  -5.705   2.633  0.00  0.00    +0.067 A 
ATOM      8  S   UNL     1      -1.343  -6.029   2.003  0.00  0.00    -0.058 S 
ENDROOT
BRANCH   1   9
ATOM      9  S   UNL     1      -0.139  -0.902   2.549  0.00  0.00    +0.078 S 
ATOM     10  O   UNL     1       0.814  -1.354   3.502  0.00  0.00    -0.151 OA
ATOM     11  O   UNL     1      -1.030   0.173   2.814  0.00  0.00    -0.151 OA
BRANCH   9  12
ATOM     12  N   UNL     1       0.711  -0.489   1.189  0.00  0.00    -0.181 NA
ATOM     13  H   UNL     1       1.677  -0.569   1.178  0.00  0.00    +0.149 HD
BRANCH  12  15
ATOM     14  C   UNL     1      -0.019   1.526   0.010  0.00  0.00    +0.031 C 
ATOM     15  C   UNL     1       0.002  -0.004   0.002  0.00  0.00    +0.110 C 
BRANCH  15  16
ATOM     16  C   UNL     1       0.707  -0.490  -1.238  0.00  0.00    +0.008 A 
ATOM     17  C   UNL     1       0.176  -0.943  -2.400  0.00  0.00    +0.013 A 
ATOM     18  C   UNL     1       1.026  -1.340  -3.415  0.00  0.00    +0.008 A 
ATOM     19  C   UNL     1       2.365  -1.266  -3.219  0.00  0.00    +0.045 A 
ATOM     20  S   UNL     1       2.459  -0.612  -1.560  0.00  0.00    -0.100 S 
ENDBRANCH  15  16
ENDBRANCH  12  15
ENDBRANCH   9  12
ENDBRANCH   1   9
BRANCH   2  21
ATOM     21  N   UNL     1      -3.134  -1.097   1.371  0.00  0.00    -0.265 N 
ATOM     22  H   UNL     1      -2.746  -0.223   1.536  0.00  0.00    +0.168 HD
BRANCH  21  23
ATOM     23  N   UNL     1      -4.401  -1.198   0.871  0.00  0.00    -0.255 NA
ATOM     24  H   UNL     1      -4.983  -1.760   1.474  0.00  0.00    +0.140 HD
ATOM     25  H   UNL     1      -4.807  -0.286   0.726  0.00  0.00    +0.140 HD
ENDBRANCH  21  23
ENDBRANCH   2  21
TORSDOF 6
