REMARK  Name = ZINC40497377
REMARK  8 active torsions:
REMARK  status: ('A' for Active; 'I' for Inactive)
REMARK    1  A    between atoms: C_1  and  C_2
REMARK    2  A    between atoms: C_2  and  C_4
REMARK    3  A    between atoms: C_2  and  N_11
REMARK    4  A    between atoms: N_9  and  C_10
REMARK    5  A    between atoms: N_11  and  C_12
REMARK    6  A    between atoms: C_15  and  N_19
REMARK    7  A    between atoms: N_19  and  S_20
REMARK    8  A    between atoms: S_20  and  C_23
REMARK                            x       y       z     vdW  Elec       q    Type
REMARK                         _______ _______ _______ _____ _____    ______ ____
ROOT
ATOM      1  N   UNL     1       0.821   0.009   1.844  0.00  0.00    -0.333 N 
ATOM      2  H   UNL     1       0.402  -0.191   2.695  0.00  0.00    +0.147 HD
ENDROOT
BRANCH   1   3
ATOM      3  C   UNL     1       2.189  -0.231   1.663  0.00  0.00    +0.029 A 
ATOM      4  C   UNL     1       2.790   0.060   0.446  0.00  0.00    +0.025 A 
ATOM      5  C   UNL     1       4.139  -0.176   0.268  0.00  0.00    +0.028 A 
ATOM      6  C   UNL     1       4.894  -0.705   1.305  0.00  0.00    +0.066 A 
ATOM      7  C   UNL     1       4.293  -0.996   2.524  0.00  0.00    +0.065 A 
ATOM      8  C   UNL     1       2.945  -0.755   2.704  0.00  0.00    +0.044 A 
ATOM      9 CL   UNL     1       5.238  -1.658   3.821  0.00  0.00    -0.082 Cl
BRANCH   6  10
ATOM     10  N   UNL     1       6.263  -0.945   1.124  0.00  0.00    -0.219 N 
ATOM     11  H   UNL     1       6.680  -1.712   1.546  0.00  0.00    +0.173 HD
BRANCH  10  12
ATOM     12  S   UNL     1       7.167   0.081   0.190  0.00  0.00    +0.040 S 
ATOM     13  O   UNL     1       8.497  -0.406   0.301  0.00  0.00    -0.155 OA
ATOM     14  O   UNL     1       6.506   0.102  -1.068  0.00  0.00    -0.155 OA
ATOM     15  C   UNL     1       7.022   1.698   0.999  0.00  0.00    +0.218 C 
ENDBRANCH  10  12
ENDBRANCH   6  10
ENDBRANCH   1   3
BRANCH   1  17
ATOM     16  C   UNL     1       0.142   2.087   0.748  0.00  0.00    +0.038 C 
ATOM     17  C   UNL     1       0.024   0.562   0.746  0.00  0.00    +0.154 C 
BRANCH  17  18
ATOM     18  C   UNL     1      -1.420   0.170   0.928  0.00  0.00    +0.240 C 
ATOM     19  O   UNL     1      -1.750  -0.504   1.879  0.00  0.00    -0.273 OA
ATOM     20  N   UNL     1      -2.345   0.569   0.032  0.00  0.00    -0.239 N 
ATOM     21  C   UNL     1      -3.636   0.218   0.194  0.00  0.00    +0.306 C 
ATOM     22  O   UNL     1      -3.966  -0.458   1.148  0.00  0.00    -0.252 OA
ATOM     23  N   UNL     1      -4.560   0.618  -0.702  0.00  0.00    -0.302 N 
ATOM     24  C   UNL     1      -5.964   0.236  -0.526  0.00  0.00    +0.129 C 
ATOM     25  H   UNL     1      -2.080   1.109  -0.730  0.00  0.00    +0.159 HD
ATOM     26  H   UNL     1      -4.296   1.157  -1.464  0.00  0.00    +0.150 HD
ENDBRANCH  17  18
ENDBRANCH   1  17
TORSDOF 5
