REMARK  Name = ZINC04027972
REMARK  4 active torsions:
REMARK  status: ('A' for Active; 'I' for Inactive)
REMARK    1  A    between atoms: C_1  and  C_2
REMARK    2  A    between atoms: C_5  and  O_30
REMARK    3  A    between atoms: C_18  and  C_29
REMARK    4  A    between atoms: N_24  and  N_25
REMARK                            x       y       z     vdW  Elec       q    Type
REMARK                         _______ _______ _______ _____ _____    ______ ____
ROOT
ATOM      1  C   UNL     1      -5.125   3.078   0.624  0.00  0.00    +0.012 C 
ATOM      2  C   UNL     1      -5.396   1.583   0.494  0.00  0.00    -0.026 C 
ATOM      3  C   UNL     1      -6.551   1.376  -0.501  0.00  0.00    +0.010 C 
ATOM      4  C   UNL     1      -7.822   2.058  -0.003  0.00  0.00    +0.032 C 
ATOM      5  C   UNL     1      -8.223   1.527   1.372  0.00  0.00    +0.115 C 
ATOM      6  C   UNL     1      -7.074   1.717   2.365  0.00  0.00    +0.035 C 
ATOM      7  C   UNL     1      -5.833   1.004   1.843  0.00  0.00    -0.002 C 
ATOM      8  C   UNL     1      -4.688   1.099   2.848  0.00  0.00    +0.004 C 
ATOM      9  C   UNL     1      -3.532   0.225   2.358  0.00  0.00    +0.004 C 
ATOM     10  C   UNL     1      -3.045   0.699   0.990  0.00  0.00    -0.003 C 
ATOM     11  C   UNL     1      -4.178   0.820  -0.005  0.00  0.00    -0.001 C 
ATOM     12  C   UNL     1      -3.686   1.296  -1.362  0.00  0.00    +0.005 C 
ATOM     13  C   UNL     1      -2.783   2.511  -1.300  0.00  0.00    +0.013 C 
ATOM     14  C   UNL     1      -1.716   2.452  -0.237  0.00  0.00    +0.011 C 
ATOM     15  C   UNL     1      -2.221   1.975   1.133  0.00  0.00    +0.004 C 
ATOM     16  C   UNL     1      -0.892   1.573   1.842  0.00  0.00    +0.010 C 
ATOM     17  C   UNL     1      -0.001   1.023   0.710  0.00  0.00    +0.053 C 
ATOM     18  C   UNL     1      -0.587   1.516  -0.599  0.00  0.00    +0.043 C 
ATOM     19  N   UNL     1      -0.198   1.204  -1.778  0.00  0.00    -0.187 NA
ATOM     20  C   UNL     1      -1.131   3.861  -0.072  0.00  0.00    +0.018 C 
ENDROOT
BRANCH  19  21
ATOM     21  N   UNL     1       0.874   0.319  -1.951  0.00  0.00    -0.191 N 
ATOM     22  C   UNL     1       1.283  -0.010  -3.192  0.00  0.00    +0.317 C 
ATOM     23  O   UNL     1       2.214  -0.778  -3.342  0.00  0.00    -0.251 OA
ATOM     24  N   UNL     1       0.661   0.512  -4.267  0.00  0.00    -0.312 N 
ATOM     25  H   UNL     1       1.322  -0.057  -1.177  0.00  0.00    +0.179 HD
ATOM     26  H   UNL     1      -0.082   1.125  -4.148  0.00  0.00    +0.147 HD
ATOM     27  H   UNL     1       0.956   0.275  -5.161  0.00  0.00    +0.147 HD
ENDBRANCH  19  21
BRANCH   5  28
ATOM     28  O   UNL     1      -9.373   2.237   1.839  0.00  0.00    -0.392 OA
ATOM     29  H   UNL     1     -10.144   2.162   1.259  0.00  0.00    +0.210 HD
ENDBRANCH   5  28
TORSDOF 2
