REMARK  Name = ZINC61806997
REMARK  10 active torsions:
REMARK  status: ('A' for Active; 'I' for Inactive)
REMARK    1  A    between atoms: C_1  and  C_2
REMARK    2  A    between atoms: C_2  and  C_3
REMARK    3  A    between atoms: C_2  and  C_4
REMARK    4  A    between atoms: C_2  and  C_5
REMARK    5  A    between atoms: C_9  and  C_23
REMARK    6  A    between atoms: C_11  and  N_14
REMARK    7  A    between atoms: N_14  and  C_15
REMARK    8  A    between atoms: N_14  and  C_19
REMARK    9  A    between atoms: C_15  and  C_16
REMARK   10  A    between atoms: C_19  and  C_20
REMARK                            x       y       z     vdW  Elec       q    Type
REMARK                         _______ _______ _______ _____ _____    ______ ____
ROOT
ATOM      1  N   UNL     1       4.147  -0.081  -2.514  0.00  0.00    +0.394 N 
ATOM      2  H   UNL     1       4.806  -0.550  -1.911  0.00  0.00    -0.080 HD
ENDROOT
BRANCH   1   7
ATOM      3  C   UNL     1       0.868  -1.177  -0.953  0.00  0.00    -0.007 C 
ATOM      4  C   UNL     1       1.048  -2.683  -1.152  0.00  0.00    +0.005 C 
ATOM      5  C   UNL     1       1.661  -2.947  -2.529  0.00  0.00    +0.017 C 
ATOM      6  C   UNL     1       3.021  -2.253  -2.623  0.00  0.00    +0.078 C 
ATOM      7  C   UNL     1       2.841  -0.747  -2.424  0.00  0.00    -0.050 C 
ATOM      8  C   UNL     1       2.228  -0.484  -1.047  0.00  0.00    -0.010 C 
BRANCH   3  10
ATOM      9  C   UNL     1       0.075   0.592   0.623  0.00  0.00    +0.011 C 
ATOM     10  C   UNL     1       0.255  -0.914   0.424  0.00  0.00    -0.035 C 
ATOM     11  C   UNL     1       1.184  -1.464   1.509  0.00  0.00    +0.011 C 
ATOM     12  C   UNL     1      -1.105  -1.607   0.518  0.00  0.00    +0.011 C 
ENDBRANCH   3  10
BRANCH   6  13
ATOM     13  C   UNL     1       3.610  -2.506  -3.948  0.00  0.00    +0.064 C 
ATOM     14  N   UNL     1       4.065  -2.702  -4.970  0.00  0.00    -0.196 NA
ENDBRANCH   6  13
ENDBRANCH   1   7
BRANCH   1  15
ATOM     15  C   UNL     1       4.629  -0.134  -3.901  0.00  0.00    +0.019 C 
BRANCH  15  16
ATOM     16  C   UNL     1       3.572   0.419  -4.822  0.00  0.00    +0.194 C 
ATOM     17  O   UNL     1       2.591   0.964  -4.361  0.00  0.00    -0.278 OA
ATOM     18  N   UNL     1       3.716   0.308  -6.157  0.00  0.00    -0.331 N 
ATOM     19  H   UNL     1       4.500  -0.128  -6.526  0.00  0.00    +0.145 HD
ATOM     20  H   UNL     1       3.035   0.664  -6.750  0.00  0.00    +0.145 HD
ENDBRANCH  15  16
ENDBRANCH   1  15
BRANCH   1  21
ATOM     21  C   UNL     1       4.013   1.320  -2.096  0.00  0.00    +0.019 C 
BRANCH  21  22
ATOM     22  C   UNL     1       5.378   1.899  -1.831  0.00  0.00    +0.194 C 
ATOM     23  O   UNL     1       6.365   1.205  -1.954  0.00  0.00    -0.278 OA
ATOM     24  N   UNL     1       5.503   3.188  -1.458  0.00  0.00    -0.331 N 
ATOM     25  H   UNL     1       4.714   3.744  -1.360  0.00  0.00    +0.145 HD
ATOM     26  H   UNL     1       6.383   3.561  -1.288  0.00  0.00    +0.145 HD
ENDBRANCH  21  22
ENDBRANCH   1  21
TORSDOF 7
