REMARK  Name = ZINC39362577
REMARK  7 active torsions:
REMARK  status: ('A' for Active; 'I' for Inactive)
REMARK    1  A    between atoms: C_1  and  C_2
REMARK    2  A    between atoms: C_5  and  N_9
REMARK    3  A    between atoms: C_10  and  C_12
REMARK    4  A    between atoms: C_15  and  C_17
REMARK    5  A    between atoms: N_22  and  C_23
REMARK    6  A    between atoms: C_23  and  C_24
REMARK    7  A    between atoms: C_28  and  O_30
REMARK                            x       y       z     vdW  Elec       q    Type
REMARK                         _______ _______ _______ _____ _____    ______ ____
ROOT
ATOM      1  C   UNL     1      -1.239  -5.405  -0.109  0.00  0.00    +0.074 A 
ATOM      2  C   UNL     1      -0.505  -5.464  -1.284  0.00  0.00    +0.021 A 
ATOM      3  C   UNL     1      -0.271  -6.725  -1.779  0.00  0.00    +0.010 A 
ATOM      4  C   UNL     1      -0.758  -7.798  -1.108  0.00  0.00    -0.023 A 
ATOM      5  S   UNL     1      -1.542  -7.131   0.220  0.00  0.00    -0.090 S 
ENDROOT
BRANCH   4   6
ATOM      6  C   UNL     1      -0.622  -9.255  -1.467  0.00  0.00    -0.030 C 
ATOM      7  C   UNL     1      -2.011  -9.927  -1.470  0.00  0.00    -0.012 C 
ATOM      8  C   UNL     1      -1.724 -11.326  -0.864  0.00  0.00    -0.020 C 
ATOM      9  C   UNL     1      -0.630 -10.995   0.182  0.00  0.00    -0.078 C 
ATOM     10  N   UNL     1       0.199  -9.946  -0.456  0.00  0.00    +0.387 N 
ATOM     11  H   UNL     1       1.001 -10.367  -0.901  0.00  0.00    -0.080 HD
BRANCH  10  12
ATOM     12  C   UNL     1       0.648  -8.983   0.558  0.00  0.00    -0.042 C 
BRANCH  12  13
ATOM     13  C   UNL     1       1.617  -9.656   1.496  0.00  0.00    -0.060 A 
ATOM     14  C   UNL     1       1.151 -10.293   2.631  0.00  0.00    +0.002 A 
ATOM     15  C   UNL     1       2.038 -10.912   3.493  0.00  0.00    +0.004 A 
ATOM     16  C   UNL     1       3.392 -10.895   3.222  0.00  0.00    +0.045 A 
ATOM     17  C   UNL     1       3.862 -10.257   2.083  0.00  0.00    +0.117 A 
ATOM     18  C   UNL     1       2.970  -9.642   1.217  0.00  0.00    +0.047 A 
BRANCH  17  19
ATOM     19  O   UNL     1       5.194 -10.238   1.814  0.00  0.00    -0.507 OA
ATOM     20  H   UNL     1       5.498 -10.986   1.280  0.00  0.00    +0.292 HD
ENDBRANCH  17  19
ENDBRANCH  12  13
ENDBRANCH  10  12
ENDBRANCH   4   6
BRANCH   1  22
ATOM     21  N   UNL     1      -1.319  -2.995   0.242  0.00  0.00    -0.276 N 
ATOM     22  C   UNL     1      -1.652  -4.231   0.664  0.00  0.00    +0.253 C 
ATOM     23  O   UNL     1      -2.296  -4.371   1.687  0.00  0.00    -0.270 OA
ATOM     24  H   UNL     1      -0.806  -2.883  -0.574  0.00  0.00    +0.152 HD
BRANCH  21  28
ATOM     25  C   UNL     1      -0.202   1.405   0.704  0.00  0.00    +0.052 C 
ATOM     26  C   UNL     1      -0.236  -0.122   0.623  0.00  0.00    +0.194 C 
ATOM     27  N   UNL     1      -1.582  -0.587   0.202  0.00  0.00    -0.256 NA
ATOM     28  C   UNL     1      -1.732  -1.821   1.015  0.00  0.00    +0.287 C 
ATOM     29  N   UNL     1      -0.841  -1.623   2.164  0.00  0.00    -0.151 NA
ATOM     30  N   UNL     1      -0.033  -0.710   1.953  0.00  0.00    -0.170 NA
ATOM     31  H   UNL     1      -2.289   0.091   0.439  0.00  0.00    +0.128 HD
ENDBRANCH  21  28
ENDBRANCH   1  22
TORSDOF 6
