REMARK  Name = ZINC54075932
REMARK  8 active torsions:
REMARK  status: ('A' for Active; 'I' for Inactive)
REMARK    1  A    between atoms: C_1  and  C_2
REMARK    2  A    between atoms: C_2  and  C_4
REMARK    3  A    between atoms: C_2  and  N_19
REMARK    4  A    between atoms: N_6  and  C_7
REMARK    5  A    between atoms: C_9  and  O_17
REMARK    6  A    between atoms: C_10  and  C_14
REMARK    7  A    between atoms: O_17  and  C_18
REMARK    8  A    between atoms: N_19  and  C_20
REMARK                            x       y       z     vdW  Elec       q    Type
REMARK                         _______ _______ _______ _____ _____    ______ ____
ROOT
ATOM      1  C   UNL     1       2.714  -0.642  -2.545  0.00  0.00    +0.055 A 
ATOM      2  C   UNL     1       2.082  -1.436  -3.493  0.00  0.00    +0.071 A 
ATOM      3  C   UNL     1       2.799  -1.928  -4.570  0.00  0.00    +0.136 A 
ATOM      4  C   UNL     1       4.164  -1.620  -4.696  0.00  0.00    +0.106 A 
ATOM      5  C   UNL     1       4.787  -0.817  -3.732  0.00  0.00    +0.040 A 
ATOM      6  C   UNL     1       4.067  -0.333  -2.677  0.00  0.00    +0.063 A 
ATOM      7 CL   UNL     1       4.844   0.667  -1.489  0.00  0.00    -0.082 Cl
ENDROOT
BRANCH   1  10
ATOM      8  C   UNL     1       1.009  -0.886  -0.911  0.00  0.00    +0.203 C 
ATOM      9  O   UNL     1       0.698  -1.948  -1.409  0.00  0.00    -0.277 OA
ATOM     10  N   UNL     1       1.991  -0.146  -1.462  0.00  0.00    -0.286 N 
ATOM     11  H   UNL     1       2.195   0.732  -1.103  0.00  0.00    +0.155 HD
BRANCH   8  13
ATOM     12  C   UNL     1      -0.376   0.946   0.024  0.00  0.00    -0.004 C 
ATOM     13  C   UNL     1       0.296  -0.396   0.322  0.00  0.00    +0.013 C 
BRANCH  13  14
ATOM     14  N   UNL     1      -0.723  -1.376   0.722  0.00  0.00    +0.385 N 
ATOM     15  C   UNL     1      -1.335  -0.957   1.989  0.00  0.00    -0.099 C 
ATOM     16  H   UNL     1      -1.434  -1.432   0.007  0.00  0.00    -0.085 HD
ATOM     17  H   UNL     1      -0.292  -2.280   0.839  0.00  0.00    -0.085 HD
ENDBRANCH  13  14
ENDBRANCH   8  13
ENDBRANCH   1  10
BRANCH   4  18
ATOM     18  C   UNL     1       4.935  -2.137  -5.834  0.00  0.00    +0.390 C 
ATOM     19  O   UNL     1       6.124  -1.867  -5.941  0.00  0.00    -0.240 OA
ATOM     20  O   UNL     1       4.388  -2.838  -6.675  0.00  0.00    -0.240 OA
ENDBRANCH   4  18
BRANCH   3  21
ATOM     21  O   UNL     1       2.187  -2.705  -5.498  0.00  0.00    -0.494 OA
ATOM     22  C   UNL     1       0.797  -2.976  -5.303  0.00  0.00    +0.277 C 
ENDBRANCH   3  21
TORSDOF 5
