REMARK  Name = ZINC44924786
REMARK  5 active torsions:
REMARK  status: ('A' for Active; 'I' for Inactive)
REMARK    1  A    between atoms: C_1  and  C_2
REMARK    2  A    between atoms: C_2  and  C_4
REMARK    3  A    between atoms: C_2  and  N_9
REMARK    4  A    between atoms: N_9  and  C_10
REMARK    5  A    between atoms: C_10  and  C_11
REMARK                            x       y       z     vdW  Elec       q    Type
REMARK                         _______ _______ _______ _____ _____    ______ ____
ROOT
ATOM      1  C   UNL     1       0.620  -0.579  -3.634  0.00  0.00    -0.059 A 
ATOM      2  C   UNL     1       1.552   0.230  -4.258  0.00  0.00    +0.051 A 
ATOM      3  C   UNL     1       2.199  -0.220  -5.397  0.00  0.00    +0.164 A 
ATOM      4  C   UNL     1       1.912  -1.477  -5.908  0.00  0.00    +0.180 A 
ATOM      5  C   UNL     1       0.978  -2.285  -5.281  0.00  0.00    +0.086 A 
ATOM      6  C   UNL     1       0.337  -1.834  -4.140  0.00  0.00    +0.025 A 
ATOM      7 CL   UNL     1       0.617  -3.859  -5.920  0.00  0.00    -0.080 Cl
ATOM      8  O   UNL     1       2.556  -1.911  -7.031  0.00  0.00    -0.487 OA
ATOM      9  C   UNL     1       2.228  -1.228  -8.243  0.00  0.00    +0.232 C 
ATOM     10  C   UNL     1       3.060   0.037  -8.390  0.00  0.00    +0.082 C 
ATOM     11  C   UNL     1       2.751   1.062  -7.310  0.00  0.00    +0.232 C 
ATOM     12  O   UNL     1       3.122   0.568  -6.022  0.00  0.00    -0.488 OA
ENDROOT
BRANCH   1  13
ATOM     13  C   UNL     1      -0.086  -0.093  -2.394  0.00  0.00    -0.046 C 
BRANCH  13  14
ATOM     14  N   UNL     1       0.690  -0.478  -1.207  0.00  0.00    +0.388 N 
ATOM     15  H   UNL     1       1.608  -0.063  -1.256  0.00  0.00    -0.084 HD
ATOM     16  H   UNL     1       0.776  -1.482  -1.172  0.00  0.00    -0.084 HD
BRANCH  14  18
ATOM     17  C   UNL     1      -0.019   1.526   0.010  0.00  0.00    -0.006 C 
ATOM     18  C   UNL     1       0.002  -0.004   0.002  0.00  0.00    -0.001 C 
BRANCH  18  19
ATOM     19  C   UNL     1       0.731  -0.503   1.223  0.00  0.00    +0.163 A 
ATOM     20  N   UNL     1       0.185  -1.040   2.305  0.00  0.00    -0.113 NA
ATOM     21  N   UNL     1       1.141  -1.335   3.118  0.00  0.00    -0.021 NA
ATOM     22  N   UNL     1       2.264  -1.003   2.583  0.00  0.00    -0.021 NA
ATOM     23  N   UNL     1       2.041  -0.496   1.419  0.00  0.00    -0.113 NA
ENDBRANCH  18  19
ENDBRANCH  14  18
ENDBRANCH  13  14
ENDBRANCH   1  13
TORSDOF 4
