REMARK  Name = ZINC62468516
REMARK  8 active torsions:
REMARK  status: ('A' for Active; 'I' for Inactive)
REMARK    1  A    between atoms: C_1  and  S_2
REMARK    2  A    between atoms: S_2  and  C_3
REMARK    3  A    between atoms: C_3  and  C_4
REMARK    4  A    between atoms: C_4  and  C_5
REMARK    5  A    between atoms: C_5  and  C_7
REMARK    6  A    between atoms: C_5  and  N_10
REMARK    7  A    between atoms: C_11  and  C_15
REMARK    8  A    between atoms: C_19  and  N_21
REMARK                            x       y       z     vdW  Elec       q    Type
REMARK                         _______ _______ _______ _____ _____    ______ ____
ROOT
ATOM      1  N   UNL     1       2.019  -3.800  -3.414  0.00  0.00    -0.211 N 
ATOM      2  C   UNL     1       1.076  -4.444  -4.146  0.00  0.00    +0.183 A 
ATOM      3  N   UNL     1       0.994  -5.670  -3.676  0.00  0.00    -0.108 NA
ATOM      4  N   UNL     1       1.817  -5.836  -2.704  0.00  0.00    -0.023 NA
ATOM      5  N   UNL     1       2.480  -4.751  -2.488  0.00  0.00    -0.043 NA
ENDROOT
BRANCH   2   6
ATOM      6  C   UNL     1       0.289  -3.874  -5.263  0.00  0.00    +0.022 A 
ATOM      7  C   UNL     1      -0.057  -2.523  -5.257  0.00  0.00    +0.012 A 
ATOM      8  C   UNL     1      -0.792  -1.994  -6.299  0.00  0.00    +0.002 A 
ATOM      9  C   UNL     1      -1.187  -2.799  -7.351  0.00  0.00    +0.023 A 
ATOM     10  C   UNL     1      -0.847  -4.147  -7.365  0.00  0.00    +0.025 A 
ATOM     11  C   UNL     1      -0.105  -4.686  -6.325  0.00  0.00    +0.034 A 
BRANCH  10  12
ATOM     12  N   UNL     1      -1.249  -4.957  -8.430  0.00  0.00    -0.358 N 
ATOM     13  H   UNL     1      -1.766  -4.579  -9.159  0.00  0.00    +0.142 HD
ATOM     14  H   UNL     1      -1.012  -5.897  -8.440  0.00  0.00    +0.142 HD
ENDBRANCH  10  12
ENDBRANCH   2   6
BRANCH   1  15
ATOM     15  C   UNL     1       2.466  -2.413  -3.562  0.00  0.00    +0.224 C 
BRANCH  15  16
ATOM     16  C   UNL     1       3.967  -2.381  -3.702  0.00  0.00    +0.380 C 
ATOM     17  O   UNL     1       4.672  -2.824  -2.812  0.00  0.00    -0.244 OA
ATOM     18  O   UNL     1       4.475  -1.911  -4.706  0.00  0.00    -0.244 OA
ENDBRANCH  15  16
BRANCH  15  19
ATOM     19  C   UNL     1       2.052  -1.609  -2.328  0.00  0.00    +0.049 C 
BRANCH  19  20
ATOM     20  C   UNL     1       2.408  -0.136  -2.536  0.00  0.00    +0.071 C 
BRANCH  20  22
ATOM     21  C   UNL     1       2.401   2.519  -1.474  0.00  0.00    +0.084 C 
ATOM     22  S   UNL     1       1.917   0.817  -1.072  0.00  0.00    -0.164 S 
ENDBRANCH  20  22
ENDBRANCH  19  20
ENDBRANCH  15  19
ENDBRANCH   1  15
TORSDOF 7
