REMARK  Name = ZINC35991570
REMARK  9 active torsions:
REMARK  status: ('A' for Active; 'I' for Inactive)
REMARK    1  A    between atoms: C_1  and  C_2
REMARK    2  A    between atoms: C_2  and  O_3
REMARK    3  A    between atoms: O_3  and  C_4
REMARK    4  A    between atoms: C_4  and  C_6
REMARK    5  A    between atoms: C_7  and  C_22
REMARK    6  A    between atoms: N_8  and  C_21
REMARK    7  A    between atoms: C_12  and  C_14
REMARK    8  A    between atoms: C_22  and  N_23
REMARK    9  A    between atoms: C_26  and  C_29
REMARK                            x       y       z     vdW  Elec       q    Type
REMARK                         _______ _______ _______ _____ _____    ______ ____
ROOT
ATOM      1  C   UNL     1      -2.648  -2.404   0.266  0.00  0.00    +0.076 C 
ATOM      2  C   UNL     1      -3.000  -3.680  -0.003  0.00  0.00    +0.010 C 
ATOM      3  N   UNL     1      -4.286  -4.002  -0.331  0.00  0.00    -0.264 N 
ATOM      4  C   UNL     1      -5.278  -3.107  -0.412  0.00  0.00    +0.307 C 
ATOM      5  O   UNL     1      -6.392  -3.489  -0.712  0.00  0.00    -0.252 OA
ATOM      6  N   UNL     1      -5.082  -1.795  -0.172  0.00  0.00    -0.288 N 
ATOM      7  C   UNL     1      -3.729  -1.345   0.197  0.00  0.00    +0.143 C 
ATOM      8  C   UNL     1      -4.597  -5.406  -0.610  0.00  0.00    +0.139 C 
ATOM      9  H   UNL     1      -5.815  -1.163  -0.236  0.00  0.00    +0.151 HD
ENDROOT
BRANCH   7  10
ATOM     10  C   UNL     1      -3.300  -0.308  -0.809  0.00  0.00    -0.022 A 
ATOM     11  C   UNL     1      -3.473  -0.543  -2.160  0.00  0.00    +0.008 A 
ATOM     12  C   UNL     1      -3.080   0.407  -3.083  0.00  0.00    +0.038 A 
ATOM     13  C   UNL     1      -2.513   1.595  -2.655  0.00  0.00    +0.123 A 
ATOM     14  C   UNL     1      -2.340   1.830  -1.301  0.00  0.00    +0.038 A 
ATOM     15  C   UNL     1      -2.739   0.880  -0.380  0.00  0.00    +0.008 A 
ATOM     16  F   UNL     1      -2.128   2.525  -3.557  0.00  0.00    -0.205 F 
ENDBRANCH   7  10
BRANCH   1  17
ATOM     17  C   UNL     1      -1.317  -2.069   0.607  0.00  0.00    +0.339 C 
ATOM     18  O   UNL     1      -0.491  -2.948   0.772  0.00  0.00    -0.245 OA
BRANCH  17  19
ATOM     19  O   UNL     1      -0.962  -0.775   0.748  0.00  0.00    -0.462 OA
BRANCH  19  21
ATOM     20  C   UNL     1       0.611   1.002   1.208  0.00  0.00    +0.048 C 
ATOM     21  C   UNL     1       0.399  -0.509   1.093  0.00  0.00    +0.229 C 
ENDBRANCH  19  21
ENDBRANCH  17  19
ENDBRANCH   1  17
BRANCH   2  22
ATOM     22  C   UNL     1      -1.957  -4.765   0.060  0.00  0.00    -0.026 C 
BRANCH  22  23
ATOM     23  N   UNL     1      -1.778  -5.193   1.454  0.00  0.00    +0.383 N 
ATOM     24  C   UNL     1      -3.020  -5.807   1.938  0.00  0.00    -0.078 C 
ATOM     25  C   UNL     1      -2.867  -6.181   3.414  0.00  0.00    -0.016 C 
ATOM     26  C   UNL     1      -1.712  -7.175   3.566  0.00  0.00    -0.018 C 
ATOM     27  C   UNL     1      -0.437  -6.552   2.989  0.00  0.00    -0.016 C 
ATOM     28  C   UNL     1      -0.680  -6.164   1.529  0.00  0.00    -0.078 C 
ATOM     29  C   UNL     1      -1.501  -7.492   5.048  0.00  0.00    +0.007 C 
ATOM     30  H   UNL     1      -1.557  -4.391   2.025  0.00  0.00    -0.081 HD
ENDBRANCH  22  23
ENDBRANCH   2  22
TORSDOF 6
