REMARK  Name = ZINC02173023
REMARK  22 active torsions:
REMARK  status: ('A' for Active; 'I' for Inactive)
REMARK    1  A    between atoms: C_1  and  C_2
REMARK    2  A    between atoms: C_2  and  C_3
REMARK    3  A    between atoms: C_2  and  C_4
REMARK    4  A    between atoms: C_2  and  O_5
REMARK    5  A    between atoms: O_5  and  C_6
REMARK    6  A    between atoms: C_7  and  C_17
REMARK    7  A    between atoms: C_10  and  O_12
REMARK    8  A    between atoms: O_12  and  C_13
REMARK    9  A    between atoms: C_13  and  C_14
REMARK   10  A    between atoms: C_13  and  C_15
REMARK   11  A    between atoms: C_13  and  C_16
REMARK   12  A    between atoms: C_19  and  C_24
REMARK   13  A    between atoms: C_27  and  O_35
REMARK   14  A    between atoms: C_29  and  O_30
REMARK   15  A    between atoms: O_30  and  C_31
REMARK   16  A    between atoms: C_31  and  C_32
REMARK   17  A    between atoms: C_31  and  C_33
REMARK   18  A    between atoms: C_31  and  C_34
REMARK   19  A    between atoms: O_35  and  C_36
REMARK   20  A    between atoms: C_36  and  C_37
REMARK   21  A    between atoms: C_36  and  C_38
REMARK   22  A    between atoms: C_36  and  C_39
REMARK                            x       y       z     vdW  Elec       q    Type
REMARK                         _______ _______ _______ _____ _____    ______ ____
ROOT
ATOM      1  C   UNL     1      -0.049   3.854   0.022  0.00  0.00    -0.008 A 
ATOM      2  C   UNL     1      -1.247   3.147   0.030  0.00  0.00    +0.017 A 
ATOM      3  C   UNL     1      -1.230   1.755   0.017  0.00  0.00    -0.008 A 
ATOM      4  C   UNL     1      -0.013   1.076   0.008  0.00  0.00    +0.047 A 
ATOM      5  C   UNL     1       1.176   1.783   0.000  0.00  0.00    +0.125 A 
ATOM      6  C   UNL     1       1.164   3.166   0.007  0.00  0.00    +0.047 A 
ATOM      7  F   UNL     1       2.354   1.120  -0.014  0.00  0.00    -0.205 F 
ENDROOT
BRANCH   1   9
ATOM      8  C   UNL     1       0.717   6.060   0.949  0.00  0.00    +0.229 A 
ATOM      9  C   UNL     1      -0.061   5.337   0.029  0.00  0.00    +0.062 A 
ATOM     10  C   UNL     1      -0.840   6.050  -0.880  0.00  0.00    +0.130 A 
ATOM     11  N   UNL     1      -0.828   7.373  -0.838  0.00  0.00    -0.203 NA
ATOM     12  C   UNL     1      -0.083   8.021   0.042  0.00  0.00    +0.322 A 
ATOM     13  N   UNL     1       0.676   7.386   0.920  0.00  0.00    -0.159 NA
BRANCH   8  14
ATOM     14  O   UNL     1       1.495   5.415   1.850  0.00  0.00    -0.470 OA
BRANCH  14  16
ATOM     15  C   UNL     1       1.307   7.096   3.575  0.00  0.00    +0.055 C 
ATOM     16  C   UNL     1       2.255   6.225   2.750  0.00  0.00    +0.104 C 
ATOM     17  C   UNL     1       3.066   5.325   3.685  0.00  0.00    +0.055 C 
ATOM     18  C   UNL     1       3.205   7.119   1.952  0.00  0.00    +0.055 C 
ENDBRANCH  14  16
ENDBRANCH   8  14
BRANCH  12  19
ATOM     19  O   UNL     1      -0.097   9.376   0.045  0.00  0.00    -0.457 OA
BRANCH  19  20
ATOM     20  C   UNL     1      -0.932  10.017  -0.921  0.00  0.00    +0.105 C 
ATOM     21  C   UNL     1      -2.385   9.591  -0.704  0.00  0.00    +0.055 C 
ATOM     22  C   UNL     1      -0.817  11.535  -0.767  0.00  0.00    +0.055 C 
ATOM     23  C   UNL     1      -0.487   9.613  -2.329  0.00  0.00    +0.055 C 
ENDBRANCH  19  20
ENDBRANCH  12  19
ENDBRANCH   1   9
BRANCH   3  24
ATOM     24  C   UNL     1      -2.504   0.996   0.019  0.00  0.00    +0.062 A 
ATOM     25  C   UNL     1      -3.506   1.282   0.946  0.00  0.00    +0.130 A 
ATOM     26  N   UNL     1      -4.631   0.586   0.912  0.00  0.00    -0.203 NA
ATOM     27  C   UNL     1      -4.810  -0.377   0.022  0.00  0.00    +0.322 A 
ATOM     28  N   UNL     1      -3.885  -0.687  -0.872  0.00  0.00    -0.159 NA
ATOM     29  C   UNL     1      -2.732  -0.033  -0.909  0.00  0.00    +0.229 A 
BRANCH  29  30
ATOM     30  O   UNL     1      -1.788  -0.354  -1.827  0.00  0.00    -0.470 OA
BRANCH  30  31
ATOM     31  C   UNL     1      -2.099  -1.413  -2.734  0.00  0.00    +0.104 C 
ATOM     32  C   UNL     1      -3.348  -1.046  -3.538  0.00  0.00    +0.055 C 
ATOM     33  C   UNL     1      -0.923  -1.629  -3.688  0.00  0.00    +0.055 C 
ATOM     34  C   UNL     1      -2.360  -2.699  -1.946  0.00  0.00    +0.055 C 
ENDBRANCH  30  31
ENDBRANCH  29  30
BRANCH  27  35
ATOM     35  O   UNL     1      -5.976  -1.068   0.028  0.00  0.00    -0.457 OA
BRANCH  35  36
ATOM     36  C   UNL     1      -6.944  -0.698   1.012  0.00  0.00    +0.105 C 
ATOM     37  C   UNL     1      -7.336   0.768   0.816  0.00  0.00    +0.055 C 
ATOM     38  C   UNL     1      -8.184  -1.582   0.864  0.00  0.00    +0.055 C 
ATOM     39  C   UNL     1      -6.348  -0.885   2.409  0.00  0.00    +0.055 C 
ENDBRANCH  35  36
ENDBRANCH  27  35
ENDBRANCH   3  24
TORSDOF 10
