REMARK  Name = ZINC41642006
REMARK  10 active torsions:
REMARK  status: ('A' for Active; 'I' for Inactive)
REMARK    1  A    between atoms: C_1  and  C_2
REMARK    2  A    between atoms: C_5  and  C_26
REMARK    3  A    between atoms: C_6  and  N_8
REMARK    4  A    between atoms: C_9  and  C_11
REMARK    5  A    between atoms: N_13  and  C_14
REMARK    6  A    between atoms: C_14  and  C_15
REMARK    7  A    between atoms: C_15  and  C_17
REMARK    8  A    between atoms: C_15  and  N_23
REMARK    9  A    between atoms: N_23  and  C_24
REMARK   10  A    between atoms: N_23  and  C_25
REMARK                            x       y       z     vdW  Elec       q    Type
REMARK                         _______ _______ _______ _____ _____    ______ ____
ROOT
ATOM      1  C   UNL     1       0.957  -2.947   4.955  0.00  0.00    +0.299 C 
ATOM      2  O   UNL     1       0.667  -4.125   4.948  0.00  0.00    -0.265 OA
ATOM      3  N   UNL     1       0.973  -2.264   6.117  0.00  0.00    -0.309 N 
ATOM      4  H   UNL     1       1.205  -1.322   6.122  0.00  0.00    +0.149 HD
ENDROOT
BRANCH   1   6
ATOM      5  N   UNL     1       1.280  -2.937   2.514  0.00  0.00    -0.278 N 
ATOM      6  C   UNL     1       1.296  -2.254   3.676  0.00  0.00    +0.303 C 
ATOM      7  O   UNL     1       1.586  -1.075   3.683  0.00  0.00    -0.265 OA
ATOM      8  H   UNL     1       0.982  -3.859   2.498  0.00  0.00    +0.155 HD
BRANCH   5  14
ATOM      9  C   UNL     1       3.916   0.551   0.268  0.00  0.00    +0.044 C 
ATOM     10  C   UNL     1       2.971  -0.622   0.214  0.00  0.00    -0.049 A 
ATOM     11  C   UNL     1       2.513  -1.085  -1.006  0.00  0.00    +0.004 A 
ATOM     12  C   UNL     1       1.647  -2.161  -1.059  0.00  0.00    +0.005 A 
ATOM     13  C   UNL     1       1.236  -2.778   0.106  0.00  0.00    -0.029 A 
ATOM     14  C   UNL     1       1.694  -2.316   1.333  0.00  0.00    +0.037 A 
ATOM     15  C   UNL     1       2.569  -1.237   1.383  0.00  0.00    +0.027 A 
ATOM     16  C   UNL     1       0.291  -3.950   0.047  0.00  0.00    +0.045 C 
ENDBRANCH   5  14
ENDBRANCH   1   6
BRANCH   3  17
ATOM     17  C   UNL     1       0.641  -2.944   7.371  0.00  0.00    +0.089 C 
BRANCH  17  18
ATOM     18  C   UNL     1       0.525  -1.913   8.495  0.00  0.00    -0.049 C 
BRANCH  18  19
ATOM     19  C   UNL     1       0.437  -2.634   9.842  0.00  0.00    -0.023 C 
ATOM     20  C   UNL     1       0.203  -1.611  10.954  0.00  0.00    +0.002 C 
ATOM     21  C   UNL     1       0.115  -2.332  12.301  0.00  0.00    +0.000 C 
ATOM     22  C   UNL     1       1.423  -3.080  12.564  0.00  0.00    +0.000 C 
ATOM     23  C   UNL     1       1.658  -4.104  11.452  0.00  0.00    +0.000 C 
ATOM     24  C   UNL     1       1.746  -3.383  10.105  0.00  0.00    +0.002 C 
ENDBRANCH  18  19
BRANCH  18  25
ATOM     25  N   UNL     1      -0.684  -1.103   8.294  0.00  0.00    +0.379 N 
ATOM     26  C   UNL     1      -0.617  -0.440   6.985  0.00  0.00    -0.096 C 
ATOM     27  C   UNL     1      -1.869  -1.971   8.343  0.00  0.00    -0.096 C 
ATOM     28  H   UNL     1      -0.748  -0.407   9.021  0.00  0.00    -0.082 HD
ENDBRANCH  18  25
ENDBRANCH  17  18
ENDBRANCH   3  17
TORSDOF 6
