REMARK  Name = ZINC59813546
REMARK  11 active torsions:
REMARK  status: ('A' for Active; 'I' for Inactive)
REMARK    1  A    between atoms: C_1  and  C_2
REMARK    2  A    between atoms: C_2  and  C_4
REMARK    3  A    between atoms: C_2  and  S_9
REMARK    4  A    between atoms: N_6  and  C_7
REMARK    5  A    between atoms: N_6  and  C_8
REMARK    6  A    between atoms: S_9  and  C_10
REMARK    7  A    between atoms: N_15  and  N_16
REMARK    8  A    between atoms: C_17  and  C_18
REMARK    9  A    between atoms: C_22  and  C_25
REMARK   10  A    between atoms: C_23  and  O_24
REMARK   11  A    between atoms: C_25  and  C_26
REMARK                            x       y       z     vdW  Elec       q    Type
REMARK                         _______ _______ _______ _____ _____    ______ ____
ROOT
ATOM      1  C   UNL     1       2.509  -0.029  -1.285  0.00  0.00    +0.211 A 
ATOM      2  N   UNL     1       3.508  -0.225  -2.152  0.00  0.00    -0.186 NA
ATOM      3  C   UNL     1       4.611   0.325  -1.688  0.00  0.00    +0.232 A 
ATOM      4  N   UNL     1       4.325   0.890  -0.495  0.00  0.00    -0.245 N 
ATOM      5  N   UNL     1       2.961   0.654  -0.260  0.00  0.00    -0.144 NA
ATOM      6  N   UNL     1       5.845   0.323  -2.311  0.00  0.00    -0.205 N 
ATOM      7  H   UNL     1       6.603   0.756  -1.888  0.00  0.00    +0.177 HD
ATOM      8  H   UNL     1       4.940   1.369   0.083  0.00  0.00    +0.192 HD
ENDROOT
BRANCH   6   9
ATOM      9  N   UNL     1       6.001  -0.306  -3.554  0.00  0.00    -0.187 NA
ATOM     10  C   UNL     1       7.160  -0.308  -4.139  0.00  0.00    +0.142 C 
BRANCH  10  11
ATOM     11  C   UNL     1       7.324  -0.969  -5.447  0.00  0.00    +0.036 A 
ATOM     12  C   UNL     1       8.570  -0.978  -6.077  0.00  0.00    +0.013 A 
ATOM     13  C   UNL     1       8.716  -1.598  -7.301  0.00  0.00    +0.001 A 
ATOM     14  C   UNL     1       7.633  -2.211  -7.906  0.00  0.00    +0.007 A 
ATOM     15  C   UNL     1       6.395  -2.209  -7.292  0.00  0.00    -0.002 A 
ATOM     16  C   UNL     1       6.231  -1.596  -6.061  0.00  0.00    +0.129 A 
BRANCH  16  17
ATOM     17  O   UNL     1       5.016  -1.598  -5.454  0.00  0.00    -0.506 OA
ATOM     18  H   UNL     1       4.459  -0.842  -5.686  0.00  0.00    +0.292 HD
ENDBRANCH  16  17
BRANCH  15  19
ATOM     19  C   UNL     1       5.222  -2.879  -7.960  0.00  0.00    +0.065 C 
BRANCH  19  20
ATOM     20  C   UNL     1       4.437  -1.857  -8.741  0.00  0.00    -0.030 C 
ATOM     21  C   UNL     1       4.203  -2.045 -10.016  0.00  0.00    +0.004 C 
ENDBRANCH  19  20
ENDBRANCH  15  19
ENDBRANCH  10  11
ENDBRANCH   6   9
BRANCH   1  22
ATOM     22  S   UNL     1       0.851  -0.589  -1.490  0.00  0.00    -0.072 S 
BRANCH  22  24
ATOM     23  C   UNL     1      -0.019   1.526   0.010  0.00  0.00    +0.029 C 
ATOM     24  C   UNL     1       0.002  -0.004   0.002  0.00  0.00    +0.137 C 
BRANCH  24  25
ATOM     25  C   UNL     1      -1.412  -0.526   0.013  0.00  0.00    +0.228 C 
ATOM     26  O   UNL     1      -1.927  -0.901  -1.019  0.00  0.00    -0.274 OA
ATOM     27  N   UNL     1      -2.103  -0.575   1.169  0.00  0.00    -0.307 N 
ATOM     28  C   UNL     1      -3.478  -1.082   1.179  0.00  0.00    +0.131 C 
ATOM     29  C   UNL     1      -1.480  -0.121   2.415  0.00  0.00    +0.131 C 
ENDBRANCH  24  25
ENDBRANCH  22  24
ENDBRANCH   1  22
TORSDOF 8
