REMARK  Name = ZINC59309418
REMARK  7 active torsions:
REMARK  status: ('A' for Active; 'I' for Inactive)
REMARK    1  A    between atoms: C_1  and  C_2
REMARK    2  A    between atoms: C_2  and  C_21
REMARK    3  A    between atoms: N_3  and  N_4
REMARK    4  A    between atoms: C_7  and  S_10
REMARK    5  A    between atoms: S_10  and  C_11
REMARK    6  A    between atoms: C_11  and  C_12
REMARK    7  A    between atoms: C_24  and  N_27
REMARK                            x       y       z     vdW  Elec       q    Type
REMARK                         _______ _______ _______ _____ _____    ______ ____
ROOT
ATOM      1  N   UNL     1      -1.117  -1.229   2.199  0.00  0.00    -0.205 N 
ATOM      2  C   UNL     1      -1.593  -1.117   3.493  0.00  0.00    +0.232 A 
ATOM      3  N   UNL     1      -1.439  -0.078   4.286  0.00  0.00    -0.186 NA
ATOM      4  C   UNL     1      -2.029  -0.319   5.462  0.00  0.00    +0.211 A 
ATOM      5  N   UNL     1      -2.566  -1.515   5.432  0.00  0.00    -0.144 NA
ATOM      6  N   UNL     1      -2.301  -2.051   4.162  0.00  0.00    -0.245 N 
ATOM      7  H   UNL     1      -1.285  -2.037   1.689  0.00  0.00    +0.177 HD
ATOM      8  H   UNL     1      -2.572  -2.922   3.831  0.00  0.00    +0.192 HD
ENDROOT
BRANCH   1  11
ATOM      9  C   UNL     1       0.854   0.826  -0.206  0.00  0.00    +0.068 C 
ATOM     10  C   UNL     1      -0.053  -0.229   0.373  0.00  0.00    +0.063 C 
ATOM     11  N   UNL     1      -0.392  -0.177   1.625  0.00  0.00    -0.184 NA
BRANCH  10  12
ATOM     12  C   UNL     1      -0.556  -1.319  -0.482  0.00  0.00    -0.002 A 
ATOM     13  C   UNL     1      -1.844  -1.826  -0.286  0.00  0.00    +0.011 A 
ATOM     14  C   UNL     1      -2.311  -2.844  -1.087  0.00  0.00    +0.023 A 
ATOM     15  C   UNL     1      -1.503  -3.368  -2.090  0.00  0.00    +0.025 A 
ATOM     16  C   UNL     1      -0.221  -2.867  -2.288  0.00  0.00    +0.023 A 
ATOM     17  C   UNL     1       0.251  -1.844  -1.494  0.00  0.00    +0.011 A 
BRANCH  15  18
ATOM     18  N   UNL     1      -1.979  -4.400  -2.900  0.00  0.00    -0.358 N 
ATOM     19  H   UNL     1      -2.873  -4.751  -2.763  0.00  0.00    +0.142 HD
ATOM     20  H   UNL     1      -1.416  -4.766  -3.600  0.00  0.00    +0.142 HD
ENDBRANCH  15  18
ENDBRANCH  10  12
ENDBRANCH   1  11
BRANCH   4  21
ATOM     21  S   UNL     1      -2.076   0.791   6.830  0.00  0.00    -0.075 S 
BRANCH  21  22
ATOM     22  C   UNL     1      -3.008  -0.113   8.097  0.00  0.00    +0.173 C 
BRANCH  22  23
ATOM     23  C   UNL     1      -3.123   0.735   9.337  0.00  0.00    +0.229 C 
ATOM     24  O   UNL     1      -2.626   1.841   9.364  0.00  0.00    -0.275 OA
ATOM     25  N   UNL     1      -3.779   0.265  10.416  0.00  0.00    -0.270 N 
ATOM     26  C   UNL     1      -3.769   0.988  11.608  0.00  0.00    +0.125 A 
ATOM     27  C   UNL     1      -4.349   0.444  12.749  0.00  0.00    +0.044 A 
ATOM     28  C   UNL     1      -4.332   1.173  13.925  0.00  0.00    +0.005 A 
ATOM     29  C   UNL     1      -3.732   2.425  13.919  0.00  0.00    +0.020 A 
ATOM     30  C   UNL     1      -3.175   2.903  12.750  0.00  0.00    +0.113 A 
ATOM     31  N   UNL     1      -3.202   2.183  11.644  0.00  0.00    -0.240 NA
ATOM     32  H   UNL     1      -4.259  -0.577  10.364  0.00  0.00    +0.156 HD
ENDBRANCH  22  23
ENDBRANCH  21  22
ENDBRANCH   4  21
TORSDOF 6
