REMARK  Name = ZINC09540614
REMARK  9 active torsions:
REMARK  status: ('A' for Active; 'I' for Inactive)
REMARK    1  A    between atoms: C_1  and  C_2
REMARK    2  A    between atoms: C_2  and  N_63
REMARK    3  A    between atoms: C_8  and  C_10
REMARK    4  A    between atoms: C_14  and  S_16
REMARK    5  A    between atoms: S_16  and  N_19
REMARK    6  A    between atoms: N_19  and  C_20
REMARK    7  A    between atoms: C_21  and  C_33
REMARK    8  A    between atoms: N_22  and  C_32
REMARK    9  A    between atoms: N_23  and  C_26
REMARK                            x       y       z     vdW  Elec       q    Type
REMARK                         _______ _______ _______ _____ _____    ______ ____
ROOT
ATOM      1  S   UNL     1      -2.371   0.104   6.393  0.00  0.00    +0.073 S 
ATOM      2  O   UNL     1      -3.539   0.735   6.899  0.00  0.00    -0.150 OA
ATOM      3  O   UNL     1      -2.401  -1.179   5.782  0.00  0.00    -0.150 OA
ENDROOT
BRANCH   1   8
ATOM      4  C   UNL     1      -0.145   1.641   3.409  0.00  0.00    +0.039 A 
ATOM      5  C   UNL     1      -0.587   2.964   3.358  0.00  0.00    +0.013 A 
ATOM      6  C   UNL     1      -1.569   3.395   4.224  0.00  0.00    +0.003 A 
ATOM      7  C   UNL     1      -2.111   2.520   5.151  0.00  0.00    +0.029 A 
ATOM      8  C   UNL     1      -1.675   1.209   5.210  0.00  0.00    +0.109 A 
ATOM      9  C   UNL     1      -0.696   0.764   4.346  0.00  0.00    +0.041 A 
BRANCH   4  15
ATOM     10  C   UNL     1       1.488   0.861  -1.007  0.00  0.00    -0.060 C 
ATOM     11  C   UNL     1       2.080   1.312   0.333  0.00  0.00    +0.089 C 
ATOM     12  N   UNL     1       0.979   1.681   1.235  0.00  0.00    -0.301 N 
ATOM     13  C   UNL     1      -0.042   2.618   0.738  0.00  0.00    +0.089 C 
ATOM     14  C   UNL     1      -0.551   2.116  -0.617  0.00  0.00    -0.060 C 
ATOM     15  C   UNL     1       0.904   1.171   2.480  0.00  0.00    +0.247 C 
ATOM     16  O   UNL     1       1.700   0.326   2.839  0.00  0.00    -0.270 OA
ATOM     17  N   UNL     1       0.606   1.932  -1.520  0.00  0.00    +0.382 N 
ATOM     18  H   UNL     1       1.138   2.810  -1.562  0.00  0.00    -0.082 HD
BRANCH  17  20
ATOM     19  C   UNL     1      -0.979   2.558  -3.281  0.00  0.00    -0.017 C 
ATOM     20  C   UNL     1       0.136   1.591  -2.879  0.00  0.00    -0.082 C 
ENDBRANCH  17  20
ENDBRANCH   4  15
ENDBRANCH   1   8
BRANCH   1  21
ATOM     21  N   UNL     1      -1.303   0.002   7.655  0.00  0.00    -0.209 N 
ATOM     22  H   UNL     1      -0.848  -0.835   7.838  0.00  0.00    +0.174 HD
BRANCH  21  23
ATOM     23  C   UNL     1      -1.057   1.132   8.463  0.00  0.00    +0.135 A 
ATOM     24  C   UNL     1      -0.131   1.219   9.443  0.00  0.00    +0.061 A 
ATOM     25  N   UNL     1      -0.203   2.476   9.993  0.00  0.00    -0.282 N 
ATOM     26  N   UNL     1      -1.210   3.188   9.327  0.00  0.00    -0.216 N 
ATOM     27  C   UNL     1      -1.734   2.376   8.386  0.00  0.00    +0.295 A 
ATOM     28  O   UNL     1      -2.629   2.659   7.611  0.00  0.00    -0.264 OA
ATOM     29  C   UNL     1       0.629   2.985  11.086  0.00  0.00    +0.171 C 
ATOM     30  C   UNL     1       0.818   0.126   9.860  0.00  0.00    +0.067 C 
BRANCH  26  31
ATOM     31  C   UNL     1      -1.597   4.506   9.586  0.00  0.00    +0.067 A 
ATOM     32  C   UNL     1      -2.942   4.820   9.731  0.00  0.00    +0.028 A 
ATOM     33  C   UNL     1      -3.321   6.122   9.994  0.00  0.00    +0.002 A 
ATOM     34  C   UNL     1      -2.364   7.114  10.101  0.00  0.00    +0.000 A 
ATOM     35  C   UNL     1      -1.024   6.806   9.951  0.00  0.00    +0.002 A 
ATOM     36  C   UNL     1      -0.638   5.505   9.694  0.00  0.00    +0.028 A 
ENDBRANCH  26  31
ENDBRANCH  21  23
ENDBRANCH   1  21
TORSDOF 6
