REMARK  Name = ZINC19805164
REMARK  4 active torsions:
REMARK  status: ('A' for Active; 'I' for Inactive)
REMARK    1  A    between atoms: C_1  and  C_2
REMARK    2  A    between atoms: C_6  and  N_8
REMARK    3  A    between atoms: C_9  and  C_24
REMARK    4  A    between atoms: C_12  and  C_19
REMARK                            x       y       z     vdW  Elec       q    Type
REMARK                         _______ _______ _______ _____ _____    ______ ____
ROOT
ATOM      1  N   UNL     1       0.631   4.059  -0.693  0.00  0.00    -0.198 N 
ATOM      2  C   UNL     1       1.647   3.256   0.004  0.00  0.00    +0.232 C 
ATOM      3  N   UNL     1       2.920   3.424  -0.721  0.00  0.00    -0.275 NA
ATOM      4  C   UNL     1       2.786   2.936  -2.101  0.00  0.00    +0.197 C 
ATOM      5  C   UNL     1       1.576   3.535  -2.758  0.00  0.00    +0.233 C 
ATOM      6  N   UNL     1       0.610   4.034  -2.096  0.00  0.00    -0.155 NA
ATOM      7  N   UNL     1       1.502   3.544  -4.237  0.00  0.00    +0.074 N 
ATOM      8  O   UNL     1       0.532   4.024  -4.795  0.00  0.00    -0.125 OA
ATOM      9  O   UNL     1       2.413   3.073  -4.895  0.00  0.00    -0.125 OA
ATOM     10  H   UNL     1       3.194   4.489  -0.740  0.00  0.00    +0.125 HD
ENDROOT
BRANCH   1  16
ATOM     11  C   UNL     1      -3.187   7.154  -0.671  0.00  0.00    +0.044 C 
ATOM     12  C   UNL     1      -2.153   6.336   0.060  0.00  0.00    -0.049 A 
ATOM     13  C   UNL     1      -2.115   6.347   1.443  0.00  0.00    +0.003 A 
ATOM     14  C   UNL     1      -1.168   5.598   2.117  0.00  0.00    +0.002 A 
ATOM     15  C   UNL     1      -0.255   4.838   1.412  0.00  0.00    +0.025 A 
ATOM     16  C   UNL     1      -0.290   4.826   0.023  0.00  0.00    +0.054 A 
ATOM     17  C   UNL     1      -1.240   5.583  -0.652  0.00  0.00    +0.028 A 
ENDBRANCH   1  16
BRANCH   4  18
ATOM     18  C   UNL     1       4.016   3.316  -2.884  0.00  0.00    +0.129 A 
ATOM     19  C   UNL     1       4.656   2.534  -3.773  0.00  0.00    +0.047 A 
ATOM     20  C   UNL     1       5.748   3.284  -4.266  0.00  0.00    +0.041 A 
ATOM     21  C   UNL     1       5.711   4.479  -3.649  0.00  0.00    +0.195 A 
ATOM     22  O   UNL     1       4.656   4.495  -2.818  0.00  0.00    -0.466 OA
ENDBRANCH   4  18
BRANCH   2  23
ATOM     23  C   UNL     1       1.244   1.804  -0.000  0.00  0.00    +0.142 A 
ATOM     24  C   UNL     1       2.084   0.754  -0.014  0.00  0.00    +0.048 A 
ATOM     25  C   UNL     1       1.284  -0.412  -0.012  0.00  0.00    +0.041 A 
ATOM     26  C   UNL     1       0.002  -0.004   0.002  0.00  0.00    +0.195 A 
ATOM     27  O   UNL     1      -0.016   1.339   0.009  0.00  0.00    -0.464 OA
ENDBRANCH   2  23
TORSDOF 3
