REMARK  Name = ZINC39715181
REMARK  8 active torsions:
REMARK  status: ('A' for Active; 'I' for Inactive)
REMARK    1  A    between atoms: C_1  and  C_2
REMARK    2  A    between atoms: C_5  and  C_12
REMARK    3  A    between atoms: C_6  and  C_7
REMARK    4  A    between atoms: C_6  and  C_8
REMARK    5  A    between atoms: N_14  and  N_15
REMARK    6  A    between atoms: C_16  and  C_17
REMARK    7  A    between atoms: C_20  and  O_24
REMARK    8  A    between atoms: C_21  and  O_23
REMARK                            x       y       z     vdW  Elec       q    Type
REMARK                         _______ _______ _______ _____ _____    ______ ____
ROOT
ATOM      1  C   UNL     1       1.121  -3.295   1.380  0.00  0.00    +0.277 C 
ATOM      2  O   UNL     1       1.317  -3.177   2.572  0.00  0.00    -0.270 OA
ATOM      3  N   UNL     1       1.437  -4.447   0.757  0.00  0.00    -0.204 N 
ATOM      4  H   UNL     1       1.280  -4.542  -0.196  0.00  0.00    +0.177 HD
ENDROOT
BRANCH   1   9
ATOM      5  C   UNL     1      -0.019   1.526   0.010  0.00  0.00    +0.023 C 
ATOM      6  C   UNL     1       0.002  -0.004   0.002  0.00  0.00    +0.074 C 
ATOM      7  C   UNL     1      -1.384  -0.725   0.038  0.00  0.00    +0.023 C 
ATOM      8  C   UNL     1      -1.024  -2.181   0.421  0.00  0.00    +0.059 C 
ATOM      9  C   UNL     1       0.526  -2.153   0.598  0.00  0.00    +0.196 C 
ATOM     10  C   UNL     1       0.724  -0.717   1.204  0.00  0.00    +0.029 C 
ATOM     11  C   UNL     1       2.193  -0.311   1.329  0.00  0.00    +0.016 C 
ATOM     12  C   UNL     1      -0.034  -0.552   2.523  0.00  0.00    +0.016 C 
ATOM     13  O   UNL     1       1.040  -1.948  -0.747  0.00  0.00    -0.448 OA
ATOM     14  C   UNL     1       0.753  -0.681  -1.156  0.00  0.00    +0.315 C 
ATOM     15  O   UNL     1       1.013  -0.186  -2.227  0.00  0.00    -0.250 OA
ENDBRANCH   1   9
BRANCH   3  16
ATOM     16  N   UNL     1       1.990  -5.509   1.484  0.00  0.00    -0.188 NA
ATOM     17  C   UNL     1       2.293  -6.619   0.884  0.00  0.00    +0.138 C 
BRANCH  17  18
ATOM     18  C   UNL     1       2.876  -7.736   1.649  0.00  0.00    -0.002 A 
ATOM     19  C   UNL     1       3.096  -7.604   3.023  0.00  0.00    +0.013 A 
ATOM     20  C   UNL     1       3.641  -8.650   3.737  0.00  0.00    +0.050 A 
ATOM     21  C   UNL     1       3.972  -9.835   3.095  0.00  0.00    +0.158 A 
ATOM     22  C   UNL     1       3.755  -9.973   1.726  0.00  0.00    +0.159 A 
ATOM     23  C   UNL     1       3.203  -8.931   1.004  0.00  0.00    +0.058 A 
BRANCH  22  24
ATOM     24  O   UNL     1       4.081 -11.136   1.100  0.00  0.00    -0.503 OA
ATOM     25  H   UNL     1       3.365 -11.786   1.079  0.00  0.00    +0.292 HD
ENDBRANCH  22  24
BRANCH  21  26
ATOM     26  O   UNL     1       4.510 -10.862   3.804  0.00  0.00    -0.503 OA
ATOM     27  H   UNL     1       3.855 -11.473   4.169  0.00  0.00    +0.292 HD
ENDBRANCH  21  26
ENDBRANCH  17  18
ENDBRANCH   3  16
TORSDOF 5
