REMARK  Name = ZINC37404581
REMARK  8 active torsions:
REMARK  status: ('A' for Active; 'I' for Inactive)
REMARK    1  A    between atoms: C_1  and  C_2
REMARK    2  A    between atoms: C_3  and  C_20
REMARK    3  A    between atoms: C_4  and  S_10
REMARK    4  A    between atoms: S_10  and  C_11
REMARK    5  A    between atoms: C_11  and  C_13
REMARK    6  A    between atoms: C_11  and  C_14
REMARK    7  A    between atoms: N_16  and  C_17
REMARK    8  A    between atoms: C_17  and  C_18
REMARK                            x       y       z     vdW  Elec       q    Type
REMARK                         _______ _______ _______ _____ _____    ______ ____
ROOT
ATOM      1  C   UNL     1      -0.018   1.503   0.010  0.00  0.00    +0.064 C 
ATOM      2  C   UNL     1       0.002  -0.004   0.002  0.00  0.00    +0.034 A 
ATOM      3  C   UNL     1      -1.182  -0.724   0.004  0.00  0.00    +0.114 A 
ATOM      4  C   UNL     1      -1.095  -2.191  -0.005  0.00  0.00    +0.119 A 
ATOM      5  N   UNL     1       0.104  -2.757  -0.013  0.00  0.00    -0.186 NA
ATOM      6  C   UNL     1       1.209  -2.015  -0.015  0.00  0.00    +0.347 A 
ATOM      7  O   UNL     1       2.293  -2.574  -0.023  0.00  0.00    -0.245 OA
ATOM      8  N   UNL     1       1.173  -0.673  -0.013  0.00  0.00    -0.310 N 
ATOM      9  H   UNL     1       2.005  -0.175  -0.018  0.00  0.00    +0.170 HD
ENDROOT
BRANCH   3  10
ATOM     10  C   UNL     1      -2.482  -0.042   0.014  0.00  0.00    +0.391 C 
ATOM     11  O   UNL     1      -2.532   1.180   0.021  0.00  0.00    -0.240 OA
ATOM     12  O   UNL     1      -3.516  -0.697   0.015  0.00  0.00    -0.240 OA
ENDBRANCH   3  10
BRANCH   4  13
ATOM     13  S   UNL     1      -2.555  -3.177  -0.003  0.00  0.00    -0.092 S 
BRANCH  13  14
ATOM     14  C   UNL     1      -1.934  -4.881  -0.015  0.00  0.00    +0.135 C 
ATOM     15  C   UNL     1      -1.179  -5.158   1.287  0.00  0.00    +0.029 C 
BRANCH  14  16
ATOM     16  C   UNL     1      -3.092  -5.838  -0.138  0.00  0.00    +0.227 C 
ATOM     17  O   UNL     1      -4.212  -5.473   0.149  0.00  0.00    -0.275 OA
ATOM     18  N   UNL     1      -2.882  -7.098  -0.567  0.00  0.00    -0.304 N 
ATOM     19  H   UNL     1      -1.986  -7.389  -0.796  0.00  0.00    +0.150 HD
BRANCH  18  20
ATOM     20  C   UNL     1      -4.008  -8.028  -0.687  0.00  0.00    +0.193 C 
BRANCH  20  21
ATOM     21  C   UNL     1      -3.520  -9.329  -1.171  0.00  0.00    -0.087 C 
ATOM     22  C   UNL     1      -3.131 -10.367  -1.558  0.00  0.00    +0.005 C 
ENDBRANCH  20  21
ENDBRANCH  18  20
ENDBRANCH  14  16
ENDBRANCH  13  14
ENDBRANCH   4  13
TORSDOF 6
