REMARK  Name = ZINC61767201
REMARK  7 active torsions:
REMARK  status: ('A' for Active; 'I' for Inactive)
REMARK    1  A    between atoms: C_1  and  C_2
REMARK    2  A    between atoms: C_2  and  C_3
REMARK    3  A    between atoms: C_2  and  C_4
REMARK    4  A    between atoms: C_4  and  N_5
REMARK    5  A    between atoms: C_9  and  O_12
REMARK    6  A    between atoms: O_12  and  C_13
REMARK    7  A    between atoms: C_16  and  N_20
REMARK                            x       y       z     vdW  Elec       q    Type
REMARK                         _______ _______ _______ _____ _____    ______ ____
ROOT
ATOM      1  N   UNL     1       0.043  -0.182   2.482  0.00  0.00    -0.309 N 
ATOM      2  C   UNL     1       0.309   0.990   3.124  0.00  0.00    +0.109 A 
ATOM      3  C   UNL     1      -0.377   1.343   4.233  0.00  0.00    +0.132 A 
ATOM      4  N   UNL     1      -1.333   0.568   4.741  0.00  0.00    -0.215 NA
ATOM      5  C   UNL     1      -1.643  -0.577   4.174  0.00  0.00    +0.287 A 
ATOM      6  C   UNL     1      -0.924  -0.992   2.966  0.00  0.00    +0.314 A 
ATOM      7  O   UNL     1      -1.190  -2.046   2.413  0.00  0.00    -0.262 OA
ENDROOT
BRANCH   1   8
ATOM      8  C   UNL     1       0.792  -0.556   1.280  0.00  0.00    +0.128 C 
BRANCH   8  10
ATOM      9  C   UNL     1       0.100   1.520   0.074  0.00  0.00    +0.009 C 
ATOM     10  C   UNL     1       0.077  -0.010   0.043  0.00  0.00    +0.003 C 
ATOM     11  C   UNL     1       0.788  -0.505  -1.218  0.00  0.00    +0.009 C 
ENDBRANCH   8  10
ENDBRANCH   1   8
BRANCH   5  12
ATOM     12  O   UNL     1      -2.618  -1.361   4.697  0.00  0.00    -0.434 OA
BRANCH  12  13
ATOM     13  C   UNL     1      -3.186  -0.976   5.871  0.00  0.00    +0.133 A 
ATOM     14  C   UNL     1      -4.124   0.046   5.885  0.00  0.00    +0.048 A 
ATOM     15  C   UNL     1      -4.702   0.439   7.077  0.00  0.00    +0.029 A 
ATOM     16  C   UNL     1      -4.343  -0.189   8.262  0.00  0.00    +0.060 A 
ATOM     17  C   UNL     1      -3.404  -1.214   8.248  0.00  0.00    +0.147 A 
ATOM     18  C   UNL     1      -2.831  -1.609   7.054  0.00  0.00    +0.086 A 
ATOM     19  F   UNL     1      -3.054  -1.825   9.401  0.00  0.00    -0.203 F 
BRANCH  16  20
ATOM     20  N   UNL     1      -4.928   0.210   9.471  0.00  0.00    -0.356 N 
ATOM     21  H   UNL     1      -5.584   0.925   9.480  0.00  0.00    +0.142 HD
ATOM     22  H   UNL     1      -4.678  -0.229  10.299  0.00  0.00    +0.142 HD
ENDBRANCH  16  20
ENDBRANCH  12  13
ENDBRANCH   5  12
TORSDOF 5
