REMARK  Name = ZINC08325481
REMARK  2 active torsions:
REMARK  status: ('A' for Active; 'I' for Inactive)
REMARK    1  A    between atoms: C_5  and  C_6
REMARK    2  A    between atoms: C_6  and  N_7
REMARK                            x       y       z     vdW  Elec       q    Type
REMARK                         _______ _______ _______ _____ _____    ______ ____
ROOT
ATOM      1  N   UNL     1       1.214   1.870   0.001  0.00  0.00    -0.217 N 
ATOM      2  C   UNL     1       2.165   0.913  -0.014  0.00  0.00    +0.247 C 
ATOM      3  O   UNL     1       3.367   1.072  -0.024  0.00  0.00    -0.273 OA
ATOM      4  C   UNL     1       1.416  -0.400  -0.013  0.00  0.00    +0.113 C 
ATOM      5  C   UNL     1       1.734  -1.195  -1.275  0.00  0.00    +0.035 C 
ATOM      6  C   UNL     1       0.938  -2.502  -1.270  0.00  0.00    +0.003 C 
ATOM      7  C   UNL     1       1.306  -3.317  -0.028  0.00  0.00    +0.000 C 
ATOM      8  C   UNL     1       0.962  -2.516   1.230  0.00  0.00    +0.003 C 
ATOM      9  C   UNL     1       1.758  -1.208   1.234  0.00  0.00    +0.035 C 
ATOM     10  N   UNL     1       0.002  -0.004   0.002  0.00  0.00    -0.285 N 
ATOM     11  C   UNL     1      -0.016   1.343   0.009  0.00  0.00    +0.310 C 
ATOM     12  O   UNL     1      -1.035   2.005   0.018  0.00  0.00    -0.252 OA
ATOM     13  H   UNL     1      -0.767  -0.596   0.006  0.00  0.00    +0.151 HD
ENDROOT
BRANCH   1  14
ATOM     14  C   UNL     1       1.494   3.308   0.005  0.00  0.00    +0.195 C 
BRANCH  14  19
ATOM     15  C   UNL     1       2.726   3.844   2.183  0.00  0.00    +0.069 A 
ATOM     16  C   UNL     1       2.284   4.373   3.417  0.00  0.00    +0.157 A 
ATOM     17  N   UNL     1       1.004   4.573   3.294  0.00  0.00    -0.086 NA
ATOM     18  O   UNL     1       0.608   4.258   2.196  0.00  0.00    -0.358 OA
ATOM     19  C   UNL     1       1.603   3.794   1.427  0.00  0.00    +0.155 A 
ENDBRANCH  14  19
ENDBRANCH   1  14
TORSDOF 2
