REMARK  Name = ZINC43221892
REMARK  10 active torsions:
REMARK  status: ('A' for Active; 'I' for Inactive)
REMARK    1  A    between atoms: C_1  and  C_2
REMARK    2  A    between atoms: C_2  and  C_3
REMARK    3  A    between atoms: C_7  and  C_38
REMARK    4  A    between atoms: C_8  and  N_9
REMARK    5  A    between atoms: C_14  and  C_29
REMARK    6  A    between atoms: C_17  and  C_22
REMARK    7  A    between atoms: C_17  and  C_26
REMARK    8  A    between atoms: C_22  and  C_24
REMARK    9  A    between atoms: C_22  and  O_25
REMARK   10  A    between atoms: C_38  and  C_39
REMARK                            x       y       z     vdW  Elec       q    Type
REMARK                         _______ _______ _______ _____ _____    ______ ____
ROOT
ATOM      1  N   UNL     1       2.834  -0.268  -0.110  0.00  0.00    -0.209 N 
ATOM      2  C   UNL     1       3.317   0.993   0.138  0.00  0.00    +0.229 C 
ATOM      3  O   UNL     1       3.017   2.025  -0.424  0.00  0.00    -0.275 OA
ATOM      4  C   UNL     1       4.261   0.821   1.214  0.00  0.00    +0.080 C 
ATOM      5  C   UNL     1       4.931   1.593   2.274  0.00  0.00    +0.010 C 
ATOM      6  N   UNL     1       5.572   0.510   3.097  0.00  0.00    +0.399 N 
ATOM      7  C   UNL     1       4.818  -0.756   2.851  0.00  0.00    +0.074 C 
ATOM      8  C   UNL     1       3.575  -0.327   2.056  0.00  0.00    +0.089 C 
ATOM      9  C   UNL     1       3.150  -1.157   0.877  0.00  0.00    +0.229 C 
ATOM     10  O   UNL     1       3.101  -2.367   0.815  0.00  0.00    -0.275 OA
ATOM     11  H   UNL     1       6.535   0.394   2.819  0.00  0.00    -0.083 HD
ATOM     12  H   UNL     1       5.525   0.751   4.075  0.00  0.00    -0.083 HD
ENDROOT
BRANCH   5  13
ATOM     13  C   UNL     1       5.973   2.514   1.692  0.00  0.00    +0.093 A 
ATOM     14  C   UNL     1       5.803   3.826   1.477  0.00  0.00    +0.051 A 
ATOM     15  C   UNL     1       7.064   4.314   0.906  0.00  0.00    +0.020 A 
ATOM     16  C   UNL     1       7.522   5.557   0.472  0.00  0.00    +0.011 A 
ATOM     17  C   UNL     1       8.790   5.677  -0.025  0.00  0.00    +0.001 A 
ATOM     18  C   UNL     1       9.623   4.570  -0.100  0.00  0.00    +0.004 A 
ATOM     19  C   UNL     1       9.188   3.332   0.323  0.00  0.00    +0.047 A 
ATOM     20  C   UNL     1       7.903   3.188   0.832  0.00  0.00    +0.135 A 
ATOM     21  O   UNL     1       7.209   2.140   1.318  0.00  0.00    -0.461 OA
ENDBRANCH   5  13
BRANCH   1  27
ATOM     22  C   UNL     1       0.707  -0.490  -1.238  0.00  0.00    -0.026 A 
ATOM     23  C   UNL     1      -0.021  -0.817  -2.365  0.00  0.00    +0.005 A 
ATOM     24  C   UNL     1       0.625  -1.263  -3.503  0.00  0.00    +0.001 A 
ATOM     25  C   UNL     1       2.003  -1.383  -3.517  0.00  0.00    +0.005 A 
ATOM     26  C   UNL     1       2.737  -1.057  -2.393  0.00  0.00    -0.026 A 
ATOM     27  C   UNL     1       2.091  -0.604  -1.251  0.00  0.00    +0.050 A 
BRANCH  22  29
ATOM     28  C   UNL     1      -0.019   1.526   0.010  0.00  0.00    +0.009 C 
ATOM     29  C   UNL     1       0.002  -0.004   0.002  0.00  0.00    +0.033 C 
ENDBRANCH  22  29
BRANCH  26  30
ATOM     30  C   UNL     1       4.238  -1.187  -2.409  0.00  0.00    +0.033 C 
ATOM     31  C   UNL     1       4.638  -2.545  -1.829  0.00  0.00    +0.009 C 
ENDBRANCH  26  30
ENDBRANCH   1  27
BRANCH   7  32
ATOM     32  C   UNL     1       4.398  -1.375   4.160  0.00  0.00    +0.349 C 
ATOM     33  O   UNL     1       4.710  -0.845   5.213  0.00  0.00    -0.248 OA
ATOM     34  O   UNL     1       3.745  -2.405   4.165  0.00  0.00    -0.248 OA
ENDBRANCH   7  32
BRANCH   7  35
ATOM     35  C   UNL     1       5.677  -1.737   2.052  0.00  0.00    +0.112 C 
ATOM     36  C   UNL     1       6.933  -2.086   2.853  0.00  0.00    +0.037 C 
BRANCH  35  37
ATOM     37  O   UNL     1       4.928  -2.928   1.797  0.00  0.00    -0.393 OA
ATOM     38  H   UNL     1       5.412  -3.596   1.293  0.00  0.00    +0.210 HD
ENDBRANCH  35  37
ENDBRANCH   7  35
TORSDOF 7
