REMARK  Name = ZINC40399166
REMARK  4 active torsions:
REMARK  status: ('A' for Active; 'I' for Inactive)
REMARK    1  A    between atoms: C_1  and  C_2
REMARK    2  A    between atoms: C_7  and  N_8
REMARK    3  A    between atoms: C_9  and  C_11
REMARK    4  A    between atoms: N_25  and  C_26
REMARK                            x       y       z     vdW  Elec       q    Type
REMARK                         _______ _______ _______ _____ _____    ______ ____
ROOT
ATOM      1  C   UNL     1       0.001   0.230   4.803  0.00  0.00    +0.122 C 
ATOM      2  C   UNL     1      -1.278   1.067   4.852  0.00  0.00    +0.114 C 
ATOM      3  C   UNL     1      -1.444   1.659   6.227  0.00  0.00    +0.219 C 
ATOM      4  O   UNL     1      -1.893   2.779   6.348  0.00  0.00    -0.275 OA
ATOM      5  N   UNL     1      -1.099   0.959   7.321  0.00  0.00    -0.270 N 
ATOM      6  C   UNL     1      -0.486  -0.278   7.210  0.00  0.00    +0.138 A 
ATOM      7  C   UNL     1       0.054  -0.679   6.001  0.00  0.00    +0.069 A 
ATOM      8  C   UNL     1       0.649  -1.941   5.907  0.00  0.00    +0.258 A 
ATOM      9  O   UNL     1       1.124  -2.329   4.851  0.00  0.00    -0.267 OA
ATOM     10  N   UNL     1       0.687  -2.722   7.008  0.00  0.00    -0.295 N 
ATOM     11  H   UNL     1       1.082  -3.607   6.961  0.00  0.00    +0.172 HD
ATOM     12  C   UNL     1       0.173  -2.268   8.184  0.00  0.00    +0.202 A 
ATOM     13  N   UNL     1      -0.389  -1.081   8.275  0.00  0.00    -0.200 NA
ATOM     14  N   UNL     1       0.243  -3.064   9.298  0.00  0.00    -0.285 N 
ATOM     15  H   UNL     1      -1.281   1.325   8.201  0.00  0.00    +0.156 HD
ATOM     16  H   UNL     1       0.609  -3.959   9.232  0.00  0.00    +0.155 HD
ENDROOT
BRANCH  14  17
ATOM     17  C   UNL     1      -0.213  -2.584  10.530  0.00  0.00    +0.034 A 
ATOM     18  C   UNL     1      -1.325  -1.753  10.585  0.00  0.00    +0.025 A 
ATOM     19  C   UNL     1      -1.773  -1.281  11.803  0.00  0.00    +0.022 A 
ATOM     20  C   UNL     1      -1.116  -1.634  12.968  0.00  0.00    +0.041 A 
ATOM     21  C   UNL     1      -0.008  -2.461  12.916  0.00  0.00    +0.022 A 
ATOM     22  C   UNL     1       0.441  -2.942  11.702  0.00  0.00    +0.025 A 
ATOM     23 CL   UNL     1      -1.682  -1.038  14.497  0.00  0.00    -0.084 Cl
ENDBRANCH  14  17
BRANCH   1  25
ATOM     24  N   UNL     1       1.055  -0.518   2.694  0.00  0.00    -0.285 N 
ATOM     25  C   UNL     1       0.012  -0.598   3.544  0.00  0.00    +0.225 C 
ATOM     26  O   UNL     1      -0.918  -1.335   3.295  0.00  0.00    -0.275 OA
ATOM     27  H   UNL     1       1.824   0.028   2.919  0.00  0.00    +0.155 HD
BRANCH  24  34
ATOM     28  C   UNL     1       2.293   0.663   0.420  0.00  0.00    +0.045 C 
ATOM     29  C   UNL     1       1.621  -0.684   0.352  0.00  0.00    -0.029 A 
ATOM     30  C   UNL     1       1.598  -1.385  -0.838  0.00  0.00    +0.005 A 
ATOM     31  C   UNL     1       0.981  -2.621  -0.902  0.00  0.00    +0.000 A 
ATOM     32  C   UNL     1       0.385  -3.159   0.225  0.00  0.00    +0.002 A 
ATOM     33  C   UNL     1       0.405  -2.463   1.417  0.00  0.00    +0.023 A 
ATOM     34  C   UNL     1       1.028  -1.224   1.486  0.00  0.00    +0.036 A 
ENDBRANCH  24  34
ENDBRANCH   1  25
TORSDOF 3
