REMARK  Name = ZINC12319504
REMARK  5 active torsions:
REMARK  status: ('A' for Active; 'I' for Inactive)
REMARK    1  A    between atoms: C_11  and  C_27
REMARK    2  A    between atoms: C_15  and  C_16
REMARK    3  A    between atoms: C_15  and  N_56
REMARK    4  A    between atoms: N_20  and  C_21
REMARK    5  A    between atoms: C_31  and  O_33
REMARK                            x       y       z     vdW  Elec       q    Type
REMARK                         _______ _______ _______ _____ _____    ______ ____
ROOT
ATOM      1  C   UNL     1      -4.358   4.042  -5.980  0.00  0.00    +0.001 A 
ATOM      2  C   UNL     1      -5.381   3.115  -5.864  0.00  0.00    +0.002 A 
ATOM      3  C   UNL     1      -5.388   2.143  -4.879  0.00  0.00    +0.026 A 
ATOM      4  C   UNL     1      -4.311   2.132  -3.994  0.00  0.00    +0.047 A 
ATOM      5  C   UNL     1      -3.266   3.084  -4.117  0.00  0.00    +0.003 A 
ATOM      6  C   UNL     1      -3.285   4.055  -5.123  0.00  0.00    +0.010 A 
ATOM      7  C   UNL     1      -2.331   2.787  -3.055  0.00  0.00    -0.022 A 
ATOM      8  C   UNL     1      -2.823   1.726  -2.375  0.00  0.00    +0.011 A 
ATOM      9  N   UNL     1      -4.009   1.330  -2.931  0.00  0.00    -0.359 N 
ATOM     10  H   UNL     1      -4.553   0.590  -2.618  0.00  0.00    +0.166 HD
ATOM     11  C   UNL     1      -2.121   1.113  -1.186  0.00  0.00    +0.011 C 
ATOM     12  C   UNL     1      -0.640   3.036  -1.284  0.00  0.00    -0.072 C 
ATOM     13  C   UNL     1      -1.036   3.474  -2.700  0.00  0.00    +0.019 C 
ATOM     14  N   UNL     1      -0.708   1.560  -1.206  0.00  0.00    +0.392 N 
ATOM     15  H   UNL     1      -0.245   1.162  -2.032  0.00  0.00    -0.080 HD
ENDROOT
BRANCH  11  16
ATOM     16  C   UNL     1      -2.160  -0.390  -1.296  0.00  0.00    -0.052 A 
ATOM     17  C   UNL     1      -1.280  -1.044  -2.139  0.00  0.00    +0.002 A 
ATOM     18  C   UNL     1      -1.310  -2.423  -2.238  0.00  0.00    +0.004 A 
ATOM     19  C   UNL     1      -2.226  -3.150  -1.502  0.00  0.00    +0.045 A 
ATOM     20  C   UNL     1      -3.113  -2.495  -0.660  0.00  0.00    +0.117 A 
ATOM     21  C   UNL     1      -3.078  -1.112  -0.558  0.00  0.00    +0.047 A 
BRANCH  20  22
ATOM     22  O   UNL     1      -4.015  -3.208   0.066  0.00  0.00    -0.507 OA
ATOM     23  H   UNL     1      -4.858  -3.351  -0.386  0.00  0.00    +0.292 HD
ENDBRANCH  20  22
ENDBRANCH  11  16
BRANCH  14  24
ATOM     24  C   UNL     1      -0.013   1.086   0.008  0.00  0.00    -0.023 C 
BRANCH  24  25
ATOM     25  C   UNL     1      -0.718   1.572   1.248  0.00  0.00    +0.007 A 
ATOM     26  C   UNL     1      -1.639   0.885   1.954  0.00  0.00    +0.021 A 
ATOM     27  C   UNL     1      -2.040   1.700   3.032  0.00  0.00    +0.020 A 
ATOM     28  C   UNL     1      -1.348   2.855   2.945  0.00  0.00    +0.091 A 
ATOM     29  N   UNL     1      -0.530   2.781   1.854  0.00  0.00    -0.320 N 
BRANCH  29  30
ATOM     30  C   UNL     1       0.353   3.782   1.425  0.00  0.00    +0.064 A 
ATOM     31  C   UNL     1      -0.084   5.096   1.280  0.00  0.00    +0.029 A 
ATOM     32  C   UNL     1       0.826   6.049   0.854  0.00  0.00    +0.022 A 
ATOM     33  C   UNL     1       2.129   5.669   0.590  0.00  0.00    +0.111 A 
ATOM     34  N   UNL     1       2.511   4.416   0.738  0.00  0.00    -0.261 NA
ATOM     35  C   UNL     1       1.679   3.479   1.146  0.00  0.00    +0.136 A 
ENDBRANCH  29  30
ENDBRANCH  24  25
ENDBRANCH  14  24
TORSDOF 5
