REMARK  Name = ZINC04585753
REMARK  8 active torsions:
REMARK  status: ('A' for Active; 'I' for Inactive)
REMARK    1  A    between atoms: C_1  and  C_2
REMARK    2  A    between atoms: C_2  and  N_51
REMARK    3  A    between atoms: C_8  and  N_13
REMARK    4  A    between atoms: C_9  and  C_10
REMARK    5  A    between atoms: C_14  and  C_16
REMARK    6  A    between atoms: C_21  and  S_22
REMARK    7  A    between atoms: S_22  and  C_25
REMARK    8  A    between atoms: C_25  and  C_26
REMARK                            x       y       z     vdW  Elec       q    Type
REMARK                         _______ _______ _______ _____ _____    ______ ____
ROOT
ATOM      1  C   UNL     1       6.747  -0.711   6.026  0.00  0.00    -0.074 C 
ATOM      2  C   UNL     1       5.886  -1.935   5.700  0.00  0.00    +0.018 C 
ATOM      3  C   UNL     1       5.035  -1.604   4.479  0.00  0.00    -0.027 A 
ATOM      4  C   UNL     1       4.859  -0.317   4.103  0.00  0.00    -0.021 A 
ATOM      5  S   UNL     1       3.836  -0.404   2.663  0.00  0.00    -0.079 S 
ATOM      6  C   UNL     1       3.633  -2.122   2.566  0.00  0.00    +0.085 A 
ATOM      7  C   UNL     1       4.370  -2.590   3.647  0.00  0.00    +0.068 A 
ATOM      8  C   UNL     1       5.426   0.892   4.779  0.00  0.00    -0.035 C 
ATOM      9  N   UNL     1       5.883   0.483   6.130  0.00  0.00    +0.383 N 
ATOM     10  H   UNL     1       5.064   0.254   6.705  0.00  0.00    -0.081 HD
ENDROOT
BRANCH   7  11
ATOM     11  C   UNL     1       4.473  -4.023   3.936  0.00  0.00    +0.244 C 
ATOM     12  O   UNL     1       5.372  -4.680   3.445  0.00  0.00    -0.270 OA
ATOM     13  N   UNL     1       3.571  -4.614   4.745  0.00  0.00    -0.325 N 
ATOM     14  H   UNL     1       2.854  -4.090   5.137  0.00  0.00    +0.145 HD
ATOM     15  H   UNL     1       3.639  -5.562   4.937  0.00  0.00    +0.145 HD
ENDBRANCH   7  11
BRANCH   6  16
ATOM     16  N   UNL     1       2.916  -2.853   1.634  0.00  0.00    -0.275 N 
ATOM     17  C   UNL     1       2.256  -2.220   0.644  0.00  0.00    +0.250 C 
ATOM     18  O   UNL     1       2.291  -1.007   0.569  0.00  0.00    -0.270 OA
ATOM     19  H   UNL     1       2.888  -3.821   1.693  0.00  0.00    +0.156 HD
BRANCH  17  20
ATOM     20  C   UNL     1       1.490  -3.000  -0.351  0.00  0.00    +0.062 A 
ATOM     21  C   UNL     1       1.449  -4.393  -0.269  0.00  0.00    +0.015 A 
ATOM     22  C   UNL     1       0.733  -5.115  -1.201  0.00  0.00    +0.001 A 
ATOM     23  C   UNL     1       0.056  -4.461  -2.216  0.00  0.00    +0.002 A 
ATOM     24  C   UNL     1       0.089  -3.081  -2.300  0.00  0.00    +0.028 A 
ATOM     25  C   UNL     1       0.806  -2.347  -1.378  0.00  0.00    +0.100 A 
BRANCH  25  26
ATOM     26  S   UNL     1       0.851  -0.589  -1.490  0.00  0.00    -0.003 S 
ATOM     27  O   UNL     1       0.082  -0.280  -2.644  0.00  0.00    -0.169 OA
ATOM     28  O   UNL     1       2.232  -0.257  -1.430  0.00  0.00    -0.169 OA
BRANCH  26  29
ATOM     29  C   UNL     1       0.002  -0.004   0.002  0.00  0.00    +0.168 C 
ATOM     30  C   UNL     1      -0.019   1.526   0.010  0.00  0.00    +0.028 C 
ENDBRANCH  26  29
ENDBRANCH  25  26
ENDBRANCH  17  20
ENDBRANCH   6  16
BRANCH   9  32
ATOM     31  C   UNL     1       7.911   1.889   5.996  0.00  0.00    -0.017 C 
ATOM     32  C   UNL     1       6.625   1.591   6.769  0.00  0.00    -0.082 C 
ENDBRANCH   9  32
TORSDOF 6
