REMARK  Name = ZINC33624229
REMARK  15 active torsions:
REMARK  status: ('A' for Active; 'I' for Inactive)
REMARK    1  A    between atoms: C_1  and  C_2
REMARK    2  A    between atoms: C_2  and  C_3
REMARK    3  A    between atoms: C_3  and  C_4
REMARK    4  A    between atoms: C_4  and  C_5
REMARK    5  A    between atoms: C_5  and  C_7
REMARK    6  A    between atoms: C_5  and  N_38
REMARK    7  A    between atoms: C_9  and  C_12
REMARK    8  A    between atoms: N_14  and  C_15
REMARK    9  A    between atoms: C_15  and  C_17
REMARK   10  A    between atoms: C_15  and  C_26
REMARK   11  A    between atoms: C_17  and  S_18
REMARK   12  A    between atoms: S_18  and  C_19
REMARK   13  A    between atoms: C_19  and  C_20
REMARK   14  A    between atoms: N_28  and  C_29
REMARK   15  A    between atoms: C_32  and  N_35
REMARK                            x       y       z     vdW  Elec       q    Type
REMARK                         _______ _______ _______ _____ _____    ______ ____
ROOT
ATOM      1  C   UNL     1       5.655  -0.523  -0.061  0.00  0.00    +0.169 C 
ENDROOT
BRANCH   1   4
ATOM      2  C   UNL     1       3.525   0.660  -0.037  0.00  0.00    +0.266 C 
ATOM      3  O   UNL     1       4.141   1.709  -0.046  0.00  0.00    -0.268 OA
ATOM      4  N   UNL     1       4.190  -0.512  -0.043  0.00  0.00    -0.298 N 
ATOM      5  H   UNL     1       3.633  -1.460  -0.035  0.00  0.00    +0.150 HD
BRANCH   2   8
ATOM      6  C   UNL     1       0.002  -0.007   0.006  0.00  0.00    +0.182 A 
ATOM      7  N   UNL     1       1.235  -0.417  -0.008  0.00  0.00    -0.210 NA
ATOM      8  C   UNL     1       2.051   0.671  -0.019  0.00  0.00    +0.163 A 
ATOM      9  C   UNL     1       1.251   1.772  -0.011  0.00  0.00    +0.230 A 
ATOM     10  O   UNL     1      -0.018   1.334   0.005  0.00  0.00    -0.449 OA
BRANCH   6  11
ATOM     11  C   UNL     1      -1.214  -0.897   0.023  0.00  0.00    +0.013 C 
BRANCH  11  12
ATOM     12  N   UNL     1      -2.175  -0.395   1.014  0.00  0.00    +0.386 N 
ATOM     13  H   UNL     1      -1.709  -0.393   2.010  0.00  0.00    -0.089 HD
ATOM     14  H   UNL     1      -3.063  -1.045   1.026  0.00  0.00    -0.089 HD
ATOM     15  H   UNL     1      -2.475   0.630   0.747  0.00  0.00    -0.089 HD
ENDBRANCH  11  12
BRANCH  11  16
ATOM     16  C   UNL     1      -1.863  -0.900  -1.362  0.00  0.00    -0.007 C 
BRANCH  16  17
ATOM     17  C   UNL     1      -3.022  -1.898  -1.380  0.00  0.00    -0.001 C 
BRANCH  17  19
ATOM     18  C   UNL     1      -4.831  -2.900  -2.784  0.00  0.00    +0.004 C 
ATOM     19  C   UNL     1      -3.671  -1.901  -2.766  0.00  0.00    -0.003 C 
ENDBRANCH  17  19
ENDBRANCH  16  17
ENDBRANCH  11  16
ENDBRANCH   6  11
ENDBRANCH   2   8
ENDBRANCH   1   4
BRANCH   1  20
ATOM     20  C   UNL     1       6.140  -1.815  -0.665  0.00  0.00    +0.238 C 
ATOM     21  O   UNL     1       5.341  -2.646  -1.044  0.00  0.00    -0.273 OA
ATOM     22  N   UNL     1       7.462  -2.049  -0.785  0.00  0.00    -0.284 N 
ATOM     23  H   UNL     1       8.186  -1.266  -0.512  0.00  0.00    +0.155 HD
BRANCH  22  24
ATOM     24  C   UNL     1       7.915  -3.287  -1.256  0.00  0.00    +0.034 A 
ATOM     25  C   UNL     1       9.089  -3.834  -0.756  0.00  0.00    +0.025 A 
ATOM     26  C   UNL     1       9.530  -5.058  -1.220  0.00  0.00    +0.034 A 
ATOM     27  C   UNL     1       8.809  -5.733  -2.188  0.00  0.00    +0.126 A 
ATOM     28  C   UNL     1       7.642  -5.188  -2.691  0.00  0.00    +0.034 A 
ATOM     29  C   UNL     1       7.193  -3.967  -2.228  0.00  0.00    +0.025 A 
BRANCH  27  30
ATOM     30  N   UNL     1       9.287  -7.043  -2.686  0.00  0.00    +0.056 N 
ATOM     31  O   UNL     1       8.653  -7.639  -3.538  0.00  0.00    -0.126 OA
ATOM     32  O   UNL     1      10.315  -7.524  -2.243  0.00  0.00    -0.126 OA
ENDBRANCH  27  30
ENDBRANCH  22  24
ENDBRANCH   1  20
BRANCH   1  33
ATOM     33  C   UNL     1       6.183  -0.399   1.370  0.00  0.00    +0.101 C 
BRANCH  33  34
ATOM     34  S   UNL     1       5.599   1.156   2.098  0.00  0.00    -0.154 S 
BRANCH  34  35
ATOM     35  C   UNL     1       6.303   1.150   3.770  0.00  0.00    +0.104 C 
BRANCH  35  36
ATOM     36  C   UNL     1       5.888   2.405   4.493  0.00  0.00    -0.038 A 
ATOM     37  C   UNL     1       6.678   3.538   4.421  0.00  0.00    +0.004 A 
ATOM     38  C   UNL     1       6.296   4.691   5.081  0.00  0.00    +0.000 A 
ATOM     39  C   UNL     1       5.129   4.708   5.822  0.00  0.00    +0.000 A 
ATOM     40  C   UNL     1       4.342   3.574   5.899  0.00  0.00    +0.000 A 
ATOM     41  C   UNL     1       4.722   2.423   5.234  0.00  0.00    +0.004 A 
ENDBRANCH  35  36
ENDBRANCH  34  35
ENDBRANCH  33  34
ENDBRANCH   1  33
TORSDOF 14
