REMARK  Name = ZINC45876726
REMARK  5 active torsions:
REMARK  status: ('A' for Active; 'I' for Inactive)
REMARK    1  A    between atoms: N_7  and  C_8
REMARK    2  A    between atoms: C_8  and  C_9
REMARK    3  A    between atoms: C_9  and  C_10
REMARK    4  A    between atoms: N_12  and  N_13
REMARK    5  A    between atoms: C_14  and  C_16
REMARK                            x       y       z     vdW  Elec       q    Type
REMARK                         _______ _______ _______ _____ _____    ______ ____
ROOT
ATOM      1  N   UNL     1       6.117  -6.199  -0.090  0.00  0.00    -0.230 N 
ATOM      2  C   UNL     1       7.285  -6.872  -0.104  0.00  0.00    +0.267 C 
ATOM      3  O   UNL     1       8.338  -6.262  -0.111  0.00  0.00    -0.268 OA
ATOM      4  H   UNL     1       5.278  -6.685  -0.084  0.00  0.00    +0.173 HD
ENDROOT
BRANCH   2   5
ATOM      5  C   UNL     1       7.286  -8.338  -0.112  0.00  0.00    +0.076 A 
ATOM      6  C   UNL     1       8.354  -9.208  -0.121  0.00  0.00    +0.024 A 
ATOM      7  C   UNL     1       8.060 -10.574  -0.154  0.00  0.00    -0.036 A 
ATOM      8  C   UNL     1       6.759 -10.916  -0.215  0.00  0.00    -0.006 A 
ATOM      9  S   UNL     1       5.909  -9.465  -0.105  0.00  0.00    -0.088 S 
ATOM     10  C   UNL     1       6.061 -12.238  -0.422  0.00  0.00    +0.043 C 
ATOM     11  C   UNL     1       7.047 -13.391  -0.612  0.00  0.00    +0.005 C 
ATOM     12  C   UNL     1       7.601 -13.858   0.724  0.00  0.00    +0.000 C 
ATOM     13  C   UNL     1       7.854 -12.717   1.689  0.00  0.00    +0.000 C 
ATOM     14  C   UNL     1       9.237 -12.150   1.353  0.00  0.00    +0.005 C 
ATOM     15  C   UNL     1       9.205 -11.572  -0.062  0.00  0.00    +0.036 C 
ENDBRANCH   2   5
BRANCH   1  18
ATOM     16  C   UNL     1       4.948  -4.125  -0.067  0.00  0.00    +0.231 C 
ATOM     17  O   UNL     1       3.898  -4.733  -0.061  0.00  0.00    -0.274 OA
ATOM     18  N   UNL     1       6.116  -4.798  -0.082  0.00  0.00    -0.234 N 
ATOM     19  H   UNL     1       6.955  -4.312  -0.087  0.00  0.00    +0.173 HD
BRANCH  16  20
ATOM     20  C   UNL     1       4.947  -2.619  -0.059  0.00  0.00    +0.116 C 
BRANCH  20  21
ATOM     21  C   UNL     1       3.504  -2.110  -0.043  0.00  0.00    +0.113 C 
BRANCH  21  28
ATOM     22  C   UNL     1      -0.017   1.382   0.010  0.00  0.00    +0.039 A 
ATOM     23  C   UNL     1       1.192   2.061   0.002  0.00  0.00    +0.116 A 
ATOM     24  N   UNL     1       2.320   1.371  -0.013  0.00  0.00    -0.223 NA
ATOM     25  C   UNL     1       2.303   0.046  -0.020  0.00  0.00    +0.215 A 
ATOM     26  N   UNL     1       1.165  -0.633  -0.013  0.00  0.00    -0.223 NA
ATOM     27  C   UNL     1       0.002  -0.004   0.002  0.00  0.00    +0.116 A 
ATOM     28  N   UNL     1       3.502  -0.645  -0.035  0.00  0.00    -0.313 N 
ATOM     29  H   UNL     1       4.342  -0.159  -0.040  0.00  0.00    +0.149 HD
ENDBRANCH  21  28
ENDBRANCH  20  21
ENDBRANCH  16  20
ENDBRANCH   1  18
TORSDOF 5
