REMARK  Name = ZINC20882660
REMARK  10 active torsions:
REMARK  status: ('A' for Active; 'I' for Inactive)
REMARK    1  A    between atoms: C_1  and  C_2
REMARK    2  A    between atoms: C_2  and  O_3
REMARK    3  A    between atoms: O_3  and  C_4
REMARK    4  A    between atoms: C_6  and  C_12
REMARK    5  A    between atoms: C_9  and  O_10
REMARK    6  A    between atoms: C_17  and  C_22
REMARK    7  A    between atoms: C_24  and  O_30
REMARK    8  A    between atoms: C_27  and  O_28
REMARK    9  A    between atoms: O_28  and  C_29
REMARK   10  A    between atoms: O_30  and  C_31
REMARK                            x       y       z     vdW  Elec       q    Type
REMARK                         _______ _______ _______ _____ _____    ______ ____
ROOT
ATOM      1  C   UNL     1       1.830  -2.724  -1.232  0.00  0.00    +0.136 C 
ATOM      2  C   UNL     1       3.282  -2.352  -1.423  0.00  0.00    +0.036 C 
ATOM      3  C   UNL     1       3.946  -1.397  -0.752  0.00  0.00    +0.017 C 
ATOM      4  C   UNL     1       5.404  -1.107  -1.068  0.00  0.00    +0.060 C 
ATOM      5  C   UNL     1       6.110  -2.393  -1.497  0.00  0.00    +0.036 C 
ATOM      6  C   UNL     1       5.392  -2.926  -2.742  0.00  0.00    +0.088 C 
ATOM      7  C   UNL     1       3.943  -3.120  -2.411  0.00  0.00    +0.163 C 
ATOM      8  O   UNL     1       3.312  -3.967  -3.013  0.00  0.00    -0.292 OA
ATOM      9  N   UNL     1       3.417  -0.623   0.229  0.00  0.00    -0.316 N 
ATOM     10  C   UNL     1       2.189   0.027   0.151  0.00  0.00    +0.052 A 
ATOM     11  C   UNL     1       2.079   1.406   0.188  0.00  0.00    +0.025 A 
ATOM     12  C   UNL     1       0.822   1.986   0.180  0.00  0.00    +0.002 A 
ATOM     13  C   UNL     1      -0.311   1.195   0.128  0.00  0.00    +0.002 A 
ATOM     14  C   UNL     1      -0.201  -0.183   0.064  0.00  0.00    +0.025 A 
ATOM     15  C   UNL     1       1.055  -0.767   0.068  0.00  0.00    +0.049 A 
ATOM     16  N   UNL     1       1.216  -2.146  -0.056  0.00  0.00    -0.331 N 
ATOM     17  H   UNL     1       3.967  -0.474   1.170  0.00  0.00    +0.152 HD
ATOM     18  H   UNL     1       0.866  -2.798   0.758  0.00  0.00    +0.147 HD
ENDROOT
BRANCH   1  21
ATOM     19  C   UNL     1      -0.244  -2.792  -4.390  0.00  0.00    +0.163 A 
ATOM     20  C   UNL     1       0.466  -3.206  -3.273  0.00  0.00    +0.055 A 
ATOM     21  C   UNL     1       1.060  -2.272  -2.446  0.00  0.00    -0.018 A 
ATOM     22  C   UNL     1       0.945  -0.923  -2.726  0.00  0.00    +0.029 A 
ATOM     23  C   UNL     1       0.243  -0.503  -3.842  0.00  0.00    +0.086 A 
ATOM     24  C   UNL     1      -0.356  -1.435  -4.675  0.00  0.00    +0.177 A 
ATOM     25 CL   UNL     1       0.105   1.192  -4.194  0.00  0.00    -0.080 Cl
BRANCH  24  26
ATOM     26  O   UNL     1      -1.050  -1.024  -5.770  0.00  0.00    -0.502 OA
ATOM     27  H   UNL     1      -1.138   0.049  -5.995  0.00  0.00    +0.292 HD
ENDBRANCH  24  26
BRANCH  19  28
ATOM     28  O   UNL     1      -0.829  -3.710  -5.204  0.00  0.00    -0.489 OA
BRANCH  28  30
ATOM     29  C   UNL     1      -1.395  -5.962  -5.874  0.00  0.00    +0.048 C 
ATOM     30  C   UNL     1      -0.673  -5.086  -4.848  0.00  0.00    +0.226 C 
ENDBRANCH  28  30
ENDBRANCH  19  28
ENDBRANCH   1  21
BRANCH   5  31
ATOM     31  C   UNL     1       7.551  -2.099  -1.825  0.00  0.00    +0.002 A 
ATOM     32  C   UNL     1       7.862  -1.180  -2.808  0.00  0.00    +0.053 A 
ATOM     33  C   UNL     1       9.189  -0.906  -3.107  0.00  0.00    +0.121 A 
ATOM     34  C   UNL     1      10.203  -1.563  -2.425  0.00  0.00    +0.049 A 
ATOM     35  C   UNL     1       9.892  -2.486  -1.446  0.00  0.00    +0.049 A 
ATOM     36  C   UNL     1       8.565  -2.755  -1.143  0.00  0.00    +0.124 A 
BRANCH  36  37
ATOM     37  O   UNL     1       8.258  -3.663  -0.178  0.00  0.00    -0.495 OA
ATOM     38  C   UNL     1       9.353  -4.301   0.483  0.00  0.00    +0.277 C 
ENDBRANCH  36  37
BRANCH  33  39
ATOM     39  O   UNL     1       9.495   0.002  -4.072  0.00  0.00    -0.495 OA
ATOM     40  C   UNL     1      10.882   0.230  -4.331  0.00  0.00    +0.277 C 
ENDBRANCH  33  39
ENDBRANCH   5  31
TORSDOF 7
