REMARK  Name = ZINC40825844
REMARK  6 active torsions:
REMARK  status: ('A' for Active; 'I' for Inactive)
REMARK    1  A    between atoms: C_1  and  C_2
REMARK    2  A    between atoms: C_6  and  C_7
REMARK    3  A    between atoms: N_9  and  N_10
REMARK    4  A    between atoms: N_10  and  C_11
REMARK    5  A    between atoms: N_21  and  N_22
REMARK    6  A    between atoms: C_23  and  C_25
REMARK                            x       y       z     vdW  Elec       q    Type
REMARK                         _______ _______ _______ _____ _____    ______ ____
ROOT
ATOM      1  C   UNL     1      -0.018   1.503   0.010  0.00  0.00    +0.048 C 
ATOM      2  C   UNL     1       0.002  -0.004   0.002  0.00  0.00    +0.009 A 
ATOM      3  C   UNL     1       0.009  -0.838  -1.123  0.00  0.00    +0.042 A 
ATOM      4  C   UNL     1       0.027  -2.138  -0.672  0.00  0.00    +0.115 A 
ATOM      5  O   UNL     1       0.035  -2.112   0.658  0.00  0.00    -0.454 OA
ATOM      6  C   UNL     1       0.024  -0.830   1.091  0.00  0.00    +0.194 A 
ATOM      7  C   UNL     1       0.034  -3.327  -1.599  0.00  0.00    +0.075 C 
ATOM      8  C   UNL     1      -0.491  -2.903  -2.974  0.00  0.00    +0.014 C 
ATOM      9  C   UNL     1       0.279  -1.685  -3.494  0.00  0.00    +0.058 C 
ATOM     10  C   UNL     1       0.000  -0.513  -2.566  0.00  0.00    +0.070 C 
ATOM     11  N   UNL     1      -0.229   0.686  -3.008  0.00  0.00    -0.184 NA
ENDROOT
BRANCH   6  12
ATOM     12  C   UNL     1       0.032  -0.399   2.493  0.00  0.00    +0.296 C 
ATOM     13  O   UNL     1       0.018   0.787   2.766  0.00  0.00    -0.265 OA
ATOM     14  N   UNL     1       0.054  -1.317   3.480  0.00  0.00    -0.230 N 
ATOM     15  H   UNL     1       0.065  -2.262   3.263  0.00  0.00    +0.173 HD
BRANCH  14  16
ATOM     16  N   UNL     1       0.061  -0.906   4.819  0.00  0.00    -0.264 N 
ATOM     17  H   UNL     1       0.050   0.040   5.036  0.00  0.00    +0.170 HD
BRANCH  16  18
ATOM     18  C   UNL     1       0.084  -1.857   5.842  0.00  0.00    +0.044 A 
ATOM     19  C   UNL     1       0.106  -3.211   5.533  0.00  0.00    +0.024 A 
ATOM     20  C   UNL     1       0.129  -4.149   6.546  0.00  0.00    +0.002 A 
ATOM     21  C   UNL     1       0.131  -3.741   7.868  0.00  0.00    +0.000 A 
ATOM     22  C   UNL     1       0.109  -2.394   8.179  0.00  0.00    +0.002 A 
ATOM     23  C   UNL     1       0.092  -1.450   7.170  0.00  0.00    +0.024 A 
ENDBRANCH  16  18
ENDBRANCH  14  16
ENDBRANCH   6  12
BRANCH  11  24
ATOM     24  N   UNL     1      -0.224   0.938  -4.386  0.00  0.00    -0.201 N 
ATOM     25  C   UNL     1      -0.462   2.182  -4.845  0.00  0.00    +0.282 C 
ATOM     26  O   UNL     1      -0.680   3.087  -4.063  0.00  0.00    -0.267 OA
ATOM     27  H   UNL     1      -0.050   0.216  -5.010  0.00  0.00    +0.178 HD
BRANCH  25  28
ATOM     28  C   UNL     1      -0.457   2.448  -6.303  0.00  0.00    +0.128 A 
ATOM     29  C   UNL     1      -0.701   3.751  -6.763  0.00  0.00    +0.034 A 
ATOM     30  C   UNL     1      -0.699   4.009  -8.103  0.00  0.00    +0.012 A 
ATOM     31  C   UNL     1      -0.449   2.942  -8.986  0.00  0.00    +0.000 A 
ATOM     32  C   UNL     1      -0.431   3.136 -10.377  0.00  0.00    +0.010 A 
ATOM     33  C   UNL     1      -0.186   2.080 -11.201  0.00  0.00    +0.001 A 
ATOM     34  C   UNL     1       0.049   0.807 -10.684  0.00  0.00    +0.002 A 
ATOM     35  C   UNL     1       0.040   0.582  -9.343  0.00  0.00    +0.028 A 
ATOM     36  C   UNL     1      -0.209   1.647  -8.457  0.00  0.00    +0.072 A 
ATOM     37  N   UNL     1      -0.218   1.455  -7.138  0.00  0.00    -0.242 NA
ENDBRANCH  25  28
ENDBRANCH  11  24
TORSDOF 5
