REMARK  Name = ZINC42297547
REMARK  6 active torsions:
REMARK  status: ('A' for Active; 'I' for Inactive)
REMARK    1  A    between atoms: C_1  and  C_2
REMARK    2  A    between atoms: C_2  and  C_3
REMARK    3  A    between atoms: C_2  and  C_4
REMARK    4  A    between atoms: C_4  and  C_6
REMARK    5  A    between atoms: C_4  and  N_11
REMARK    6  A    between atoms: C_13  and  N_18
REMARK                            x       y       z     vdW  Elec       q    Type
REMARK                         _______ _______ _______ _____ _____    ______ ____
ROOT
ATOM      1  N   UNL     1      -0.806  -2.103  -0.040  0.00  0.00    -0.320 N 
ATOM      2  C   UNL     1      -0.985  -2.750   1.177  0.00  0.00    +0.150 A 
ATOM      3  C   UNL     1      -1.368  -4.088   1.196  0.00  0.00    +0.166 A 
ATOM      4  C   UNL     1      -1.542  -4.720   2.414  0.00  0.00    +0.038 A 
ATOM      5  C   UNL     1      -1.326  -3.991   3.576  0.00  0.00    +0.022 A 
ATOM      6  C   UNL     1      -0.946  -2.667   3.483  0.00  0.00    +0.113 A 
ATOM      7  N   UNL     1      -0.783  -2.091   2.307  0.00  0.00    -0.238 NA
ATOM      8  H   UNL     1      -1.028  -2.556  -0.868  0.00  0.00    +0.148 HD
ENDROOT
BRANCH   3   9
ATOM      9  N   UNL     1      -1.569  -4.761   0.038  0.00  0.00    +0.060 N 
ATOM     10  O   UNL     1      -2.115  -4.215  -0.892  0.00  0.00    -0.126 OA
ATOM     11  O   UNL     1      -1.203  -5.909  -0.066  0.00  0.00    -0.126 OA
ENDBRANCH   3   9
BRANCH   1  12
ATOM     12  C   UNL     1      -0.283  -0.734  -0.072  0.00  0.00    +0.111 C 
BRANCH  12  13
ATOM     13  C   UNL     1      -0.738  -0.052  -1.336  0.00  0.00    +0.010 A 
ATOM     14  C   UNL     1      -1.154   1.226  -1.514  0.00  0.00    +0.013 A 
ATOM     15  C   UNL     1      -1.527   1.639  -2.779  0.00  0.00    +0.008 A 
ATOM     16  C   UNL     1      -1.467   0.754  -3.804  0.00  0.00    +0.045 A 
ATOM     17  S   UNL     1      -0.861  -0.714  -2.990  0.00  0.00    -0.100 S 
ENDBRANCH  12  13
BRANCH  12  19
ATOM     18  C   UNL     1       1.793   0.657  -0.067  0.00  0.00    +0.009 C 
ATOM     19  C   UNL     1       1.246  -0.772  -0.034  0.00  0.00    +0.008 C 
ATOM     20  C   UNL     1       1.708  -1.465   1.249  0.00  0.00    +0.009 C 
ENDBRANCH  12  19
ENDBRANCH   1  12
TORSDOF 4
