REMARK  Name = ZINC12183819
REMARK  8 active torsions:
REMARK  status: ('A' for Active; 'I' for Inactive)
REMARK    1  A    between atoms: C_1  and  C_2
REMARK    2  A    between atoms: C_4  and  C_8
REMARK    3  A    between atoms: C_5  and  C_7
REMARK    4  A    between atoms: C_10  and  N_29
REMARK    5  A    between atoms: N_13  and  C_15
REMARK    6  A    between atoms: C_15  and  C_17
REMARK    7  A    between atoms: C_15  and  C_18
REMARK    8  A    between atoms: N_20  and  C_21
REMARK                            x       y       z     vdW  Elec       q    Type
REMARK                         _______ _______ _______ _____ _____    ______ ____
ROOT
ATOM      1  C   UNL     1      -3.459  -0.656   1.083  0.00  0.00    +0.097 A 
ATOM      2  C   UNL     1      -3.945  -1.477   0.045  0.00  0.00    +0.058 A 
ATOM      3  C   UNL     1      -3.125  -1.808  -0.995  0.00  0.00    +0.094 A 
ATOM      4  C   UNL     1      -1.796  -1.312  -1.012  0.00  0.00    +0.289 A 
ATOM      5  O   UNL     1      -1.048  -1.591  -1.935  0.00  0.00    -0.264 OA
ATOM      6  N   UNL     1      -1.365  -0.533   0.001  0.00  0.00    -0.216 N 
ATOM      7  N   UNL     1      -2.224  -0.208   1.056  0.00  0.00    -0.167 NA
ENDROOT
BRANCH   1  11
ATOM      8  C   UNL     1      -7.507  -0.278   4.181  0.00  0.00    +0.086 C 
ATOM      9  C   UNL     1      -6.139  -0.142   3.563  0.00  0.00    +0.103 A 
ATOM     10  C   UNL     1      -5.745  -0.704   2.408  0.00  0.00    +0.054 A 
ATOM     11  C   UNL     1      -4.349  -0.296   2.215  0.00  0.00    +0.043 A 
ATOM     12  C   UNL     1      -4.037   0.475   3.289  0.00  0.00    +0.111 A 
ATOM     13  O   UNL     1      -5.118   0.560   4.078  0.00  0.00    -0.464 OA
ATOM     14  C   UNL     1      -2.704   1.127   3.548  0.00  0.00    +0.087 C 
ENDBRANCH   1  11
BRANCH   3  15
ATOM     15  N   UNL     1      -3.589  -2.619  -2.030  0.00  0.00    -0.354 N 
ATOM     16  H   UNL     1      -4.500  -2.951  -2.014  0.00  0.00    +0.142 HD
ATOM     17  H   UNL     1      -3.001  -2.850  -2.766  0.00  0.00    +0.142 HD
ENDBRANCH   3  15
BRANCH   6  18
ATOM     18  C   UNL     1       0.007  -0.021  -0.007  0.00  0.00    +0.194 C 
ATOM     19  C   UNL     1      -0.019   1.509  -0.008  0.00  0.00    +0.043 C 
BRANCH  18  20
ATOM     20  C   UNL     1       0.733  -0.510   1.220  0.00  0.00    +0.242 C 
ATOM     21  O   UNL     1       0.160  -1.217   2.022  0.00  0.00    -0.273 OA
ATOM     22  N   UNL     1       2.019  -0.161   1.426  0.00  0.00    -0.281 N 
ATOM     23  H   UNL     1       2.496   0.350   0.754  0.00  0.00    +0.155 HD
BRANCH  22  24
ATOM     24  C   UNL     1       2.665  -0.537   2.610  0.00  0.00    +0.072 A 
ATOM     25  C   UNL     1       2.365  -1.752   3.210  0.00  0.00    +0.064 A 
ATOM     26  C   UNL     1       3.005  -2.121   4.380  0.00  0.00    +0.125 A 
ATOM     27  C   UNL     1       3.945  -1.279   4.952  0.00  0.00    +0.041 A 
ATOM     28  C   UNL     1       4.245  -0.068   4.356  0.00  0.00    +0.043 A 
ATOM     29  C   UNL     1       3.612   0.303   3.184  0.00  0.00    +0.145 A 
ATOM     30  F   UNL     1       3.910   1.485   2.599  0.00  0.00    -0.204 F 
ATOM     31  F   UNL     1       2.714  -3.304   4.965  0.00  0.00    -0.205 F 
ENDBRANCH  22  24
ENDBRANCH  18  20
ENDBRANCH   6  18
TORSDOF 5
