REMARK  Name = ZINC66926283
REMARK  8 active torsions:
REMARK  status: ('A' for Active; 'I' for Inactive)
REMARK    1  A    between atoms: C_4  and  C_7
REMARK    2  A    between atoms: C_7  and  C_8
REMARK    3  A    between atoms: C_8  and  C_9
REMARK    4  A    between atoms: C_9  and  C_10
REMARK    5  A    between atoms: N_12  and  N_13
REMARK    6  A    between atoms: N_16  and  C_17
REMARK    7  A    between atoms: C_17  and  C_18
REMARK    8  A    between atoms: C_18  and  O_28
REMARK                            x       y       z     vdW  Elec       q    Type
REMARK                         _______ _______ _______ _____ _____    ______ ____
ROOT
ATOM      1  N   UNL     1       7.834  -2.392   4.310  0.00  0.00    -0.218 N 
ATOM      2  C   UNL     1       8.915  -3.161   4.549  0.00  0.00    +0.316 C 
ATOM      3  O   UNL     1       9.328  -3.292   5.685  0.00  0.00    -0.251 OA
ATOM      4  N   UNL     1       9.538  -3.784   3.530  0.00  0.00    -0.295 N 
ATOM      5  H   UNL     1       7.386  -1.944   5.044  0.00  0.00    +0.174 HD
ATOM      6  H   UNL     1       9.208  -3.679   2.623  0.00  0.00    +0.150 HD
ENDROOT
BRANCH   1   9
ATOM      7  C   UNL     1       6.278  -1.472   2.762  0.00  0.00    +0.229 C 
ATOM      8  O   UNL     1       5.717  -0.911   3.679  0.00  0.00    -0.274 OA
ATOM      9  N   UNL     1       7.358  -2.240   3.001  0.00  0.00    -0.233 N 
ATOM     10  H   UNL     1       7.807  -2.689   2.267  0.00  0.00    +0.173 HD
BRANCH   7  11
ATOM     11  C   UNL     1       5.766  -1.308   1.354  0.00  0.00    +0.097 C 
BRANCH  11  12
ATOM     12  C   UNL     1       4.540  -0.393   1.359  0.00  0.00    +0.014 C 
BRANCH  12  13
ATOM     13  C   UNL     1       4.020  -0.228  -0.070  0.00  0.00    +0.035 C 
BRANCH  13  17
ATOM     14  C   UNL     1       0.597   2.328  -0.056  0.00  0.00    +0.000 A 
ATOM     15  C   UNL     1       1.861   2.867  -0.205  0.00  0.00    +0.000 A 
ATOM     16  C   UNL     1       2.969   2.040  -0.210  0.00  0.00    +0.003 A 
ATOM     17  C   UNL     1       2.813   0.674  -0.064  0.00  0.00    -0.047 A 
ATOM     18  C   UNL     1       1.548   0.135   0.086  0.00  0.00    +0.003 A 
ATOM     19  C   UNL     1       0.441   0.962   0.089  0.00  0.00    +0.000 A 
ENDBRANCH  13  17
ENDBRANCH  12  13
ENDBRANCH  11  12
ENDBRANCH   7  11
ENDBRANCH   1   9
BRANCH   4  20
ATOM     20  C   UNL     1      10.712  -4.620   3.790  0.00  0.00    +0.145 C 
BRANCH  20  21
ATOM     21  C   UNL     1      11.304  -5.096   2.462  0.00  0.00    +0.107 C 
ATOM     22  C   UNL     1      11.653  -3.883   1.602  0.00  0.00    +0.041 C 
ATOM     23  C   UNL     1      12.439  -4.367   0.378  0.00  0.00    +0.008 C 
ATOM     24  C   UNL     1      13.816  -4.836   0.844  0.00  0.00    +0.035 C 
ATOM     25  C   UNL     1      13.685  -5.808   1.988  0.00  0.00    -0.041 A 
ATOM     26  C   UNL     1      12.533  -5.924   2.733  0.00  0.00    -0.011 A 
ATOM     27  C   UNL     1      12.480  -6.836   3.780  0.00  0.00    +0.007 A 
ATOM     28  C   UNL     1      13.570  -7.627   4.076  0.00  0.00    +0.000 A 
ATOM     29  C   UNL     1      14.725  -7.513   3.326  0.00  0.00    +0.000 A 
ATOM     30  C   UNL     1      14.781  -6.606   2.287  0.00  0.00    +0.004 A 
BRANCH  21  31
ATOM     31  O   UNL     1      10.339  -5.896   1.776  0.00  0.00    -0.382 OA
ATOM     32  H   UNL     1      10.061  -6.683   2.265  0.00  0.00    +0.211 HD
ENDBRANCH  21  31
ENDBRANCH  20  21
ENDBRANCH   4  20
TORSDOF 8
