REMARK  Name = ZINC39722318
REMARK  6 active torsions:
REMARK  status: ('A' for Active; 'I' for Inactive)
REMARK    1  A    between atoms: C_1  and  N_2
REMARK    2  A    between atoms: C_3  and  C_26
REMARK    3  A    between atoms: C_7  and  S_9
REMARK    4  A    between atoms: S_9  and  C_10
REMARK    5  A    between atoms: C_10  and  C_11
REMARK    6  A    between atoms: C_19  and  C_23
REMARK                            x       y       z     vdW  Elec       q    Type
REMARK                         _______ _______ _______ _____ _____    ______ ____
ROOT
ATOM      1  S   UNL     1       1.951   0.760   1.730  0.00  0.00    -0.152 S 
ENDROOT
BRANCH   1   7
ATOM      2  C   UNL     1      -0.111   1.499   0.138  0.00  0.00    -0.090 C 
ATOM      3  N   UNL     1      -0.011   0.040  -0.002  0.00  0.00    +0.409 N 
ATOM      4  C   UNL     1      -1.344  -0.577   0.162  0.00  0.00    +0.049 C 
ATOM      5  N   UNL     1      -1.248  -1.484   1.329  0.00  0.00    -0.267 NA
ATOM      6  N   UNL     1      -0.126  -0.951   2.117  0.00  0.00    -0.262 NA
ATOM      7  C   UNL     1       0.841  -0.517   1.074  0.00  0.00    +0.077 C 
ATOM      8  H   UNL     1      -2.103  -1.475   1.865  0.00  0.00    +0.139 HD
ATOM      9  H   UNL     1      -0.420  -0.171   2.684  0.00  0.00    +0.140 HD
ATOM     10  H   UNL     1       0.372  -0.197  -0.905  0.00  0.00    -0.076 HD
BRANCH   4  11
ATOM     11  C   UNL     1      -1.707  -1.359  -1.073  0.00  0.00    -0.046 A 
ATOM     12  C   UNL     1      -1.219  -0.968  -2.307  0.00  0.00    +0.003 A 
ATOM     13  C   UNL     1      -1.552  -1.686  -3.440  0.00  0.00    +0.000 A 
ATOM     14  C   UNL     1      -2.372  -2.795  -3.341  0.00  0.00    +0.000 A 
ATOM     15  C   UNL     1      -2.859  -3.185  -2.107  0.00  0.00    +0.000 A 
ATOM     16  C   UNL     1      -2.523  -2.470  -0.973  0.00  0.00    +0.003 A 
ENDBRANCH   4  11
ENDBRANCH   1   7
BRANCH   1  17
ATOM     17  C   UNL     1       3.193  -0.176   2.663  0.00  0.00    +0.143 C 
BRANCH  17  18
ATOM     18  C   UNL     1       4.162   0.780   3.309  0.00  0.00    +0.120 A 
ATOM     19  N   UNL     1       5.176   0.266   4.052  0.00  0.00    -0.310 N 
ATOM     20  H   UNL     1       5.258  -0.695   4.154  0.00  0.00    +0.170 HD
ATOM     21  C   UNL     1       6.073   1.082   4.652  0.00  0.00    +0.259 A 
ATOM     22  O   UNL     1       6.987   0.635   5.321  0.00  0.00    -0.267 OA
ATOM     23  C   UNL     1       5.901   2.534   4.465  0.00  0.00    +0.065 A 
ATOM     24  C   UNL     1       6.772   3.457   5.041  0.00  0.00    +0.016 A 
ATOM     25  C   UNL     1       6.576   4.793   4.841  0.00  0.00    +0.016 A 
ATOM     26  C   UNL     1       5.505   5.247   4.060  0.00  0.00    +0.065 A 
ATOM     27  C   UNL     1       4.624   4.343   3.477  0.00  0.00    +0.043 A 
ATOM     28  C   UNL     1       4.817   2.974   3.675  0.00  0.00    +0.079 A 
ATOM     29  N   UNL     1       3.988   2.053   3.122  0.00  0.00    -0.233 NA
BRANCH  26  30
ATOM     30  C   UNL     1       5.309   6.698   3.855  0.00  0.00    +0.387 C 
ATOM     31  O   UNL     1       6.080   7.497   4.366  0.00  0.00    -0.241 OA
ATOM     32  O   UNL     1       4.376   7.099   3.175  0.00  0.00    -0.241 OA
ENDBRANCH  26  30
ENDBRANCH  17  18
ENDBRANCH   1  17
TORSDOF 5
