REMARK  Name = ZINC05069723
REMARK  4 active torsions:
REMARK  status: ('A' for Active; 'I' for Inactive)
REMARK    1  A    between atoms: C_1  and  C_2
REMARK    2  A    between atoms: C_11  and  C_14
REMARK    3  A    between atoms: C_14  and  C_15
REMARK    4  A    between atoms: N_17  and  C_18
REMARK                            x       y       z     vdW  Elec       q    Type
REMARK                         _______ _______ _______ _____ _____    ______ ____
ROOT
ATOM      1  C   UNL     1       4.278   5.311   2.862  0.00  0.00    +0.044 C 
ATOM      2  C   UNL     1       2.971   4.692   2.438  0.00  0.00    -0.048 A 
ATOM      3  C   UNL     1       2.150   5.357   1.546  0.00  0.00    +0.007 A 
ATOM      4  C   UNL     1       0.945   4.799   1.159  0.00  0.00    +0.048 A 
ATOM      5  C   UNL     1       0.560   3.570   1.665  0.00  0.00    +0.143 A 
ATOM      6  C   UNL     1       1.397   2.889   2.547  0.00  0.00    +0.076 A 
ATOM      7  C   UNL     1       2.596   3.460   2.943  0.00  0.00    +0.030 A 
ATOM      8  N   UNL     1       1.005   1.638   3.042  0.00  0.00    -0.280 N 
ATOM      9  C   UNL     1      -0.053   1.012   2.486  0.00  0.00    +0.259 C 
ATOM     10  O   UNL     1      -0.470  -0.022   2.965  0.00  0.00    -0.271 OA
ATOM     11  C   UNL     1      -0.715   1.602   1.266  0.00  0.00    +0.268 C 
ATOM     12  O   UNL     1      -0.639   3.028   1.323  0.00  0.00    -0.477 OA
ATOM     13  H   UNL     1       1.488   1.227   3.776  0.00  0.00    +0.155 HD
ENDROOT
BRANCH  11  14
ATOM     14  C   UNL     1      -0.002   1.103   0.008  0.00  0.00    +0.150 C 
BRANCH  14  15
ATOM     15  C   UNL     1      -0.738   1.591  -1.213  0.00  0.00    +0.221 C 
ATOM     16  O   UNL     1      -1.734   2.272  -1.089  0.00  0.00    -0.275 OA
ATOM     17  N   UNL     1      -0.288   1.272  -2.443  0.00  0.00    -0.283 N 
ATOM     18  H   UNL     1       0.543   0.783  -2.544  0.00  0.00    +0.155 HD
BRANCH  17  19
ATOM     19  C   UNL     1      -1.023   1.647  -3.576  0.00  0.00    +0.069 A 
ATOM     20  C   UNL     1      -1.723   2.845  -3.586  0.00  0.00    +0.029 A 
ATOM     21  C   UNL     1      -2.443   3.215  -4.706  0.00  0.00    +0.040 A 
ATOM     22  C   UNL     1      -2.474   2.387  -5.815  0.00  0.00    +0.126 A 
ATOM     23  C   UNL     1      -1.781   1.189  -5.808  0.00  0.00    +0.078 A 
ATOM     24  C   UNL     1      -1.055   0.816  -4.691  0.00  0.00    +0.147 A 
ATOM     25  F   UNL     1      -0.379  -0.353  -4.683  0.00  0.00    -0.203 F 
ATOM     26  F   UNL     1      -3.183   2.749  -6.907  0.00  0.00    -0.205 F 
ENDBRANCH  17  19
ENDBRANCH  14  15
ENDBRANCH  11  14
TORSDOF 3
