REMARK  Name = ZINC65801267
REMARK  5 active torsions:
REMARK  status: ('A' for Active; 'I' for Inactive)
REMARK    1  A    between atoms: C_1  and  N_2
REMARK    2  A    between atoms: C_4  and  C_7
REMARK    3  A    between atoms: C_7  and  C_8
REMARK    4  A    between atoms: C_8  and  N_9
REMARK    5  A    between atoms: N_12  and  C_13
REMARK                            x       y       z     vdW  Elec       q    Type
REMARK                         _______ _______ _______ _____ _____    ______ ____
ROOT
ATOM      1  N   UNL     1       1.497  -4.881  -2.724  0.00  0.00    -0.299 N 
ATOM      2  C   UNL     1       2.669  -5.405  -3.133  0.00  0.00    +0.304 C 
ATOM      3  O   UNL     1       3.717  -4.894  -2.788  0.00  0.00    -0.253 OA
ATOM      4  N   UNL     1       2.680  -6.497  -3.923  0.00  0.00    -0.269 N 
ATOM      5  H   UNL     1       0.661  -5.288  -2.999  0.00  0.00    +0.150 HD
ATOM      6  H   UNL     1       1.848  -6.945  -4.143  0.00  0.00    +0.156 HD
ENDROOT
BRANCH   4   7
ATOM      7  C   UNL     1       3.892  -6.986  -4.426  0.00  0.00    +0.036 A 
ATOM      8  C   UNL     1       5.047  -6.912  -3.649  0.00  0.00    +0.027 A 
ATOM      9  C   UNL     1       6.247  -7.388  -4.130  0.00  0.00    +0.049 A 
ATOM     10  C   UNL     1       6.316  -7.947  -5.400  0.00  0.00    +0.139 A 
ATOM     11  C   UNL     1       5.154  -8.024  -6.188  0.00  0.00    +0.019 A 
ATOM     12  C   UNL     1       3.939  -7.544  -5.690  0.00  0.00    +0.035 A 
ATOM     13  C   UNL     1       5.240  -8.616  -7.526  0.00  0.00    +0.018 A 
ATOM     14  C   UNL     1       6.447  -9.069  -7.951  0.00  0.00    +0.092 A 
ATOM     15  C   UNL     1       7.574  -8.960  -7.107  0.00  0.00    +0.337 A 
ATOM     16  O   UNL     1       8.651  -9.369  -7.499  0.00  0.00    -0.245 OA
ATOM     17  O   UNL     1       7.487  -8.416  -5.883  0.00  0.00    -0.422 OA
ENDBRANCH   4   7
BRANCH   1  18
ATOM     18  C   UNL     1       1.485  -3.694  -1.865  0.00  0.00    +0.110 C 
BRANCH  18  19
ATOM     19  C   UNL     1       0.039  -3.307  -1.550  0.00  0.00    +0.057 C 
BRANCH  19  23
ATOM     20  C   UNL     1      -0.030   1.454   0.014  0.00  0.00    +0.172 C 
ATOM     21  N   UNL     1      -0.004  -0.010   0.008  0.00  0.00    -0.274 N 
ATOM     22  C   UNL     1      -0.001  -0.800  -1.086  0.00  0.00    +0.111 A 
ATOM     23  C   UNL     1       0.027  -2.086  -0.667  0.00  0.00    -0.008 A 
ATOM     24  C   UNL     1       0.041  -2.082   0.732  0.00  0.00    +0.138 A 
ATOM     25  N   UNL     1       0.029  -0.839   1.137  0.00  0.00    -0.180 NA
ENDBRANCH  19  23
ENDBRANCH  18  19
ENDBRANCH   1  18
TORSDOF 4
