REMARK  Name = ZINC12520260
REMARK  5 active torsions:
REMARK  status: ('A' for Active; 'I' for Inactive)
REMARK    1  A    between atoms: C_3  and  N_11
REMARK    2  A    between atoms: C_6  and  N_7
REMARK    3  A    between atoms: N_11  and  C_12
REMARK    4  A    between atoms: C_12  and  C_13
REMARK    5  A    between atoms: C_13  and  C_14
REMARK                            x       y       z     vdW  Elec       q    Type
REMARK                         _______ _______ _______ _____ _____    ______ ____
ROOT
ATOM      1  N   UNL     1      -3.414   5.869  -1.121  0.00  0.00    -0.342 N 
ATOM      2  H   UNL     1      -3.310   6.543  -0.431  0.00  0.00    +0.146 HD
ENDROOT
BRANCH   1   5
ATOM      3  C   UNL     1      -5.520   5.207  -4.059  0.00  0.00    +0.034 A 
ATOM      4  C   UNL     1      -4.547   5.055  -3.090  0.00  0.00    +0.026 A 
ATOM      5  C   UNL     1      -4.397   6.019  -2.102  0.00  0.00    +0.046 A 
ATOM      6  C   UNL     1      -5.231   7.131  -2.088  0.00  0.00    +0.064 A 
ATOM      7  C   UNL     1      -6.199   7.279  -3.063  0.00  0.00    +0.054 A 
ATOM      8  C   UNL     1      -6.345   6.317  -4.046  0.00  0.00    +0.128 A 
ATOM      9 CL   UNL     1      -5.053   8.336  -0.851  0.00  0.00    -0.082 Cl
BRANCH   8  10
ATOM     10  N   UNL     1      -7.386   6.476  -5.086  0.00  0.00    +0.056 N 
ATOM     11  O   UNL     1      -7.516   5.629  -5.952  0.00  0.00    -0.126 OA
ATOM     12  O   UNL     1      -8.113   7.453  -5.076  0.00  0.00    -0.126 OA
ENDBRANCH   8  10
ENDBRANCH   1   5
BRANCH   1  13
ATOM     13  C   UNL     1      -2.540   4.693  -1.134  0.00  0.00    +0.108 C 
BRANCH  13  14
ATOM     14  C   UNL     1      -1.560   4.773   0.039  0.00  0.00    +0.075 C 
BRANCH  14  15
ATOM     15  C   UNL     1      -0.661   3.563   0.025  0.00  0.00    +0.061 A 
ATOM     16  C   UNL     1       0.687   3.579   0.013  0.00  0.00    +0.110 A 
ATOM     17  N   UNL     1       1.094   2.278   0.004  0.00  0.00    -0.334 N 
ATOM     18  C   UNL     1      -0.018   1.506   0.010  0.00  0.00    +0.110 A 
ATOM     19  N   UNL     1      -1.063   2.282   0.019  0.00  0.00    -0.237 NA
ATOM     20  C   UNL     1       0.002  -0.004   0.002  0.00  0.00    +0.074 C 
ATOM     21  C   UNL     1       1.406  -0.462  -0.414  0.00  0.00    +0.009 C 
ATOM     22  C   UNL     1       2.449   0.294   0.412  0.00  0.00    +0.022 C 
ATOM     23  C   UNL     1       2.467   1.767  -0.009  0.00  0.00    +0.123 C 
ENDBRANCH  14  15
ENDBRANCH  13  14
ENDBRANCH   1  13
TORSDOF 5
