REMARK  Name = ZINC40736608
REMARK  7 active torsions:
REMARK  status: ('A' for Active; 'I' for Inactive)
REMARK    1  A    between atoms: C_3  and  N_8
REMARK    2  A    between atoms: C_10  and  N_22
REMARK    3  A    between atoms: C_11  and  N_15
REMARK    4  A    between atoms: N_15  and  C_16
REMARK    5  A    between atoms: N_15  and  C_19
REMARK    6  A    between atoms: C_16  and  C_17
REMARK    7  A    between atoms: C_19  and  C_20
REMARK                            x       y       z     vdW  Elec       q    Type
REMARK                         _______ _______ _______ _____ _____    ______ ____
ROOT
ATOM      1  N   UNL     1       3.609   2.005  -0.047  0.00  0.00    -0.283 N 
ATOM      2  C   UNL     1       3.633   3.393  -0.131  0.00  0.00    +0.150 A 
ATOM      3  C   UNL     1       4.845   4.075  -0.253  0.00  0.00    +0.106 A 
ATOM      4  C   UNL     1       4.813   5.468  -0.334  0.00  0.00    +0.149 A 
ATOM      5  N   UNL     1       3.636   6.089  -0.291  0.00  0.00    -0.219 NA
ATOM      6  C   UNL     1       2.515   5.407  -0.176  0.00  0.00    +0.225 A 
ATOM      7  N   UNL     1       2.501   4.092  -0.102  0.00  0.00    -0.219 NA
ATOM      8  H   UNL     1       4.440   1.507   0.002  0.00  0.00    +0.155 HD
ENDROOT
BRANCH   1  11
ATOM      9  C   UNL     1       1.159  -0.720  -0.044  0.00  0.00    +0.020 A 
ATOM     10  C   UNL     1       2.375  -0.061  -0.059  0.00  0.00    +0.045 A 
ATOM     11  C   UNL     1       2.392   1.330  -0.033  0.00  0.00    +0.124 A 
ATOM     12  N   UNL     1       1.261   2.017   0.005  0.00  0.00    -0.239 NA
ATOM     13  C   UNL     1       0.086   1.417   0.020  0.00  0.00    +0.128 A 
ATOM     14  C   UNL     1      -0.005   0.038  -0.004  0.00  0.00    +0.036 A 
ATOM     15 BR   UNL     1      -1.696  -0.808   0.018  0.00  0.00    -0.049 Br
ENDBRANCH   1  11
BRANCH   3  16
ATOM     16  N   UNL     1       6.064   3.378  -0.293  0.00  0.00    -0.353 N 
ATOM     17  H   UNL     1       6.068   2.408  -0.309  0.00  0.00    +0.143 HD
ATOM     18  H   UNL     1       6.902   3.867  -0.306  0.00  0.00    +0.143 HD
ENDBRANCH   3  16
BRANCH   4  19
ATOM     19  N   UNL     1       5.991   6.196  -0.456  0.00  0.00    -0.287 N 
BRANCH  19  20
ATOM     20  C   UNL     1       6.593   6.399  -1.776  0.00  0.00    +0.226 C 
BRANCH  20  21
ATOM     21  C   UNL     1       6.058   7.633  -2.374  0.00  0.00    +0.082 C 
ATOM     22  N   UNL     1       5.646   8.585  -2.836  0.00  0.00    -0.195 NA
ENDBRANCH  20  21
ENDBRANCH  19  20
BRANCH  19  23
ATOM     23  C   UNL     1       6.630   6.759   0.736  0.00  0.00    +0.226 C 
BRANCH  23  24
ATOM     24  C   UNL     1       7.669   5.835   1.219  0.00  0.00    +0.082 C 
ATOM     25  N   UNL     1       8.470   5.121   1.592  0.00  0.00    -0.195 NA
ENDBRANCH  23  24
ENDBRANCH  19  23
ENDBRANCH   4  19
TORSDOF 7
