REMARK  Name = ZINC22738652
REMARK  7 active torsions:
REMARK  status: ('A' for Active; 'I' for Inactive)
REMARK    1  A    between atoms: C_1  and  C_2
REMARK    2  A    between atoms: C_2  and  C_4
REMARK    3  A    between atoms: C_2  and  S_20
REMARK    4  A    between atoms: N_6  and  C_7
REMARK    5  A    between atoms: C_7  and  C_8
REMARK    6  A    between atoms: C_8  and  N_14
REMARK    7  A    between atoms: S_20  and  C_21
REMARK                            x       y       z     vdW  Elec       q    Type
REMARK                         _______ _______ _______ _____ _____    ______ ____
ROOT
ATOM      1  C   UNL     1       3.770  -3.704   0.417  0.00  0.00    +0.226 C 
ATOM      2  O   UNL     1       3.421  -4.585   1.175  0.00  0.00    -0.275 OA
ATOM      3  N   UNL     1       3.624  -2.413   0.772  0.00  0.00    -0.316 N 
ATOM      4  H   UNL     1       3.941  -1.614   0.085  0.00  0.00    +0.149 HD
ENDROOT
BRANCH   1   6
ATOM      5  C   UNL     1       5.893  -4.065  -0.812  0.00  0.00    +0.029 C 
ATOM      6  C   UNL     1       4.367  -4.055  -0.921  0.00  0.00    +0.136 C 
BRANCH   6   7
ATOM      7  S   UNL     1       3.786  -5.696  -1.431  0.00  0.00    -0.084 S 
BRANCH   7   8
ATOM      8  C   UNL     1       4.442  -5.895  -3.055  0.00  0.00    +0.161 A 
ATOM      9  N   UNL     1       5.179  -5.064  -3.766  0.00  0.00    -0.133 NA
ATOM     10  N   UNL     1       5.593  -5.425  -5.028  0.00  0.00    -0.125 NA
ATOM     11  C   UNL     1       5.241  -6.595  -5.524  0.00  0.00    +0.180 A 
ATOM     12  S   UNL     1       4.279  -7.272  -4.181  0.00  0.00    -0.025 S 
ATOM     13  N   UNL     1       5.538  -7.151  -6.763  0.00  0.00    -0.336 N 
ATOM     14  H   UNL     1       5.160  -8.151  -7.021  0.00  0.00    +0.144 HD
ATOM     15  H   UNL     1       6.152  -6.591  -7.484  0.00  0.00    +0.144 HD
ENDBRANCH   7   8
ENDBRANCH   6   7
ENDBRANCH   1   6
BRANCH   3  16
ATOM     16  C   UNL     1       3.044  -2.071   2.074  0.00  0.00    +0.092 C 
BRANCH  16  17
ATOM     17  C   UNL     1       2.991  -0.550   2.226  0.00  0.00    -0.050 C 
ATOM     18  C   UNL     1       2.385  -0.194   3.585  0.00  0.00    -0.010 C 
ATOM     19  C   UNL     1       3.248  -0.789   4.699  0.00  0.00    -0.001 C 
ATOM     20  C   UNL     1       4.665  -0.218   4.608  0.00  0.00    -0.000 C 
ATOM     21  C   UNL     1       5.271  -0.574   3.249  0.00  0.00    -0.001 C 
ATOM     22  C   UNL     1       4.408   0.021   2.134  0.00  0.00    -0.010 C 
BRANCH  17  23
ATOM     23  N   UNL     1       2.163   0.021   1.155  0.00  0.00    +0.384 N 
ATOM     24  C   UNL     1       0.793  -0.505   1.212  0.00  0.00    -0.078 C 
ATOM     25  C   UNL     1       0.002  -0.004   0.002  0.00  0.00    -0.019 C 
ATOM     26  C   UNL     1      -0.019   1.527   0.010  0.00  0.00    -0.004 C 
ATOM     27  C   UNL     1       1.421   2.049  -0.001  0.00  0.00    -0.019 C 
ATOM     28  C   UNL     1       2.171   1.488   1.210  0.00  0.00    -0.078 C 
ATOM     29  H   UNL     1       2.598  -0.281   0.191  0.00  0.00    -0.081 HD
ENDBRANCH  17  23
ENDBRANCH  16  17
ENDBRANCH   3  16
TORSDOF 6
