REMARK  Name = ZINC65182015
REMARK  9 active torsions:
REMARK  status: ('A' for Active; 'I' for Inactive)
REMARK    1  A    between atoms: C_1  and  C_2
REMARK    2  A    between atoms: C_5  and  C_8
REMARK    3  A    between atoms: N_10  and  C_11
REMARK    4  A    between atoms: N_10  and  C_12
REMARK    5  A    between atoms: C_12  and  C_13
REMARK    6  A    between atoms: C_13  and  C_14
REMARK    7  A    between atoms: C_17  and  C_20
REMARK    8  A    between atoms: C_26  and  O_30
REMARK    9  A    between atoms: O_30  and  C_31
REMARK                            x       y       z     vdW  Elec       q    Type
REMARK                         _______ _______ _______ _____ _____    ______ ____
ROOT
ATOM      1  C   UNL     1       2.361  -7.990   0.873  0.00  0.00    +0.139 C 
ATOM      2  N   UNL     1       1.500  -8.935   0.986  0.00  0.00    -0.072 NA
ATOM      3  O   UNL     1       2.126 -10.203   0.913  0.00  0.00    -0.367 OA
ATOM      4  C   UNL     1       3.529  -9.950   0.736  0.00  0.00    +0.318 C 
ATOM      5  N   UNL     1       3.634  -8.483   0.711  0.00  0.00    -0.291 N 
ATOM      6  H   UNL     1       4.446  -7.963   0.602  0.00  0.00    +0.151 HD
ENDROOT
BRANCH   4   7
ATOM      7  C   UNL     1       4.329 -10.531   1.904  0.00  0.00    +0.165 C 
ATOM      8  C   UNL     1       5.806 -10.282   1.699  0.00  0.00    +0.012 C 
ATOM      9  C   UNL     1       6.388 -11.500   1.642  0.00  0.00    -0.004 A 
ATOM     10  C   UNL     1       7.782 -11.927   1.459  0.00  0.00    +0.013 A 
ATOM     11  C   UNL     1       8.067 -13.247   1.443  0.00  0.00    +0.046 A 
ATOM     12  C   UNL     1       7.063 -14.221   1.597  0.00  0.00    +0.122 A 
ATOM     13  C   UNL     1       5.755 -13.901   1.769  0.00  0.00    +0.071 A 
ATOM     14  C   UNL     1       5.349 -12.543   1.801  0.00  0.00    +0.046 A 
ATOM     15  N   UNL     1       4.167 -11.988   1.953  0.00  0.00    -0.373 N 
ATOM     16  H   UNL     1       3.329 -12.462   2.076  0.00  0.00    +0.160 HD
BRANCH  12  17
ATOM     17  O   UNL     1       7.415 -15.530   1.571  0.00  0.00    -0.495 OA
ATOM     18  C   UNL     1       8.802 -15.826   1.388  0.00  0.00    +0.277 C 
ENDBRANCH  12  17
ENDBRANCH   4   7
BRANCH   1  19
ATOM     19  C   UNL     1       2.018  -6.523   0.908  0.00  0.00    +0.094 C 
BRANCH  19  20
ATOM     20  C   UNL     1       0.509  -6.356   1.103  0.00  0.00    +0.115 C 
BRANCH  20  23
ATOM     21  C   UNL     1      -0.128  -4.282  -0.005  0.00  0.00    +0.246 C 
ATOM     22  O   UNL     1      -0.212  -4.897  -1.049  0.00  0.00    -0.270 OA
ATOM     23  N   UNL     1       0.176  -4.930   1.137  0.00  0.00    -0.300 N 
ATOM     24  C   UNL     1       0.172  -4.209   2.412  0.00  0.00    +0.132 C 
BRANCH  21  29
ATOM     25  C   UNL     1      -1.028   1.402   0.067  0.00  0.00    +0.044 C 
ATOM     26  C   UNL     1      -0.793  -0.087   0.048  0.00  0.00    -0.050 A 
ATOM     27  C   UNL     1      -1.265  -0.872   1.085  0.00  0.00    +0.004 A 
ATOM     28  C   UNL     1      -1.053  -2.235   1.074  0.00  0.00    +0.013 A 
ATOM     29  C   UNL     1      -0.360  -2.822   0.014  0.00  0.00    +0.037 A 
ATOM     30  C   UNL     1       0.114  -2.024  -1.029  0.00  0.00    +0.013 A 
ATOM     31  C   UNL     1      -0.110  -0.663  -1.009  0.00  0.00    +0.004 A 
ENDBRANCH  21  29
ENDBRANCH  20  23
ENDBRANCH  19  20
ENDBRANCH   1  19
TORSDOF 6
