REMARK  Name = ZINC64663531
REMARK  7 active torsions:
REMARK  status: ('A' for Active; 'I' for Inactive)
REMARK    1  A    between atoms: C_1  and  C_2
REMARK    2  A    between atoms: C_10  and  C_14
REMARK    3  A    between atoms: N_12  and  C_13
REMARK    4  A    between atoms: C_14  and  C_15
REMARK    5  A    between atoms: N_17  and  C_18
REMARK    6  A    between atoms: C_18  and  C_19
REMARK    7  A    between atoms: C_19  and  C_20
REMARK                            x       y       z     vdW  Elec       q    Type
REMARK                         _______ _______ _______ _____ _____    ______ ____
ROOT
ATOM      1  C   UNL     1       1.634  -4.973   1.780  0.00  0.00    +0.121 C 
ENDROOT
BRANCH   1  11
ATOM      2  C   UNL     1       1.875   1.545   0.006  0.00  0.00    +0.044 C 
ATOM      3  C   UNL     1       1.516   0.082  -0.037  0.00  0.00    -0.047 A 
ATOM      4  C   UNL     1       1.684  -0.633  -1.208  0.00  0.00    +0.005 A 
ATOM      5  C   UNL     1       1.355  -1.976  -1.253  0.00  0.00    +0.027 A 
ATOM      6  C   UNL     1       0.856  -2.602  -0.122  0.00  0.00    +0.072 A 
ATOM      7  C   UNL     1       0.688  -1.884   1.059  0.00  0.00    +0.142 A 
ATOM      8  C   UNL     1       1.025  -0.539   1.095  0.00  0.00    +0.051 A 
ATOM      9  O   UNL     1       0.208  -2.488   2.178  0.00  0.00    -0.488 OA
ATOM     10  C   UNL     1      -0.519  -3.708   2.017  0.00  0.00    +0.252 C 
ATOM     11  C   UNL     1       0.292  -4.653   1.118  0.00  0.00    +0.119 C 
ATOM     12  N   UNL     1       0.517  -3.964  -0.164  0.00  0.00    -0.323 N 
ATOM     13  C   UNL     1       0.390  -4.674  -1.439  0.00  0.00    +0.130 C 
ENDBRANCH   1  11
BRANCH   1  14
ATOM     14  C   UNL     1       2.353  -6.024   0.973  0.00  0.00    +0.215 C 
ATOM     15  O   UNL     1       1.793  -6.561   0.041  0.00  0.00    -0.276 OA
ATOM     16  N   UNL     1       3.618  -6.365   1.287  0.00  0.00    -0.315 N 
ATOM     17  H   UNL     1       4.066  -5.935   2.032  0.00  0.00    +0.149 HD
BRANCH  16  18
ATOM     18  C   UNL     1       4.317  -7.386   0.502  0.00  0.00    +0.108 C 
BRANCH  18  19
ATOM     19  C   UNL     1       5.727  -7.583   1.063  0.00  0.00    +0.049 C 
BRANCH  19  20
ATOM     20  C   UNL     1       6.446  -8.634   0.256  0.00  0.00    -0.072 C 
ATOM     21  C   UNL     1       7.212  -8.238  -0.709  0.00  0.00    -0.028 C 
ATOM     22  C   UNL     1       7.983  -9.164  -1.604  0.00  0.00    +0.027 C 
ATOM     23  C   UNL     1       8.078 -10.553  -0.969  0.00  0.00    +0.004 C 
ATOM     24  C   UNL     1       6.673 -10.981  -0.526  0.00  0.00    +0.005 C 
ATOM     25  C   UNL     1       6.234 -10.072   0.626  0.00  0.00    +0.030 C 
ENDBRANCH  19  20
ENDBRANCH  18  19
ENDBRANCH  16  18
ENDBRANCH   1  14
TORSDOF 5
