REMARK  Name = ZINC40694688
REMARK  10 active torsions:
REMARK  status: ('A' for Active; 'I' for Inactive)
REMARK    1  A    between atoms: C_2  and  N_20
REMARK    2  A    between atoms: C_5  and  N_8
REMARK    3  A    between atoms: C_9  and  C_11
REMARK    4  A    between atoms: C_11  and  N_12
REMARK    5  A    between atoms: N_12  and  C_13
REMARK    6  A    between atoms: N_12  and  C_16
REMARK    7  A    between atoms: C_13  and  C_14
REMARK    8  A    between atoms: C_14  and  O_15
REMARK    9  A    between atoms: C_16  and  C_17
REMARK   10  A    between atoms: C_17  and  O_18
REMARK                            x       y       z     vdW  Elec       q    Type
REMARK                         _______ _______ _______ _____ _____    ______ ____
ROOT
ATOM      1  N   UNL     1       0.172  -1.152  -0.492  0.00  0.00    -0.285 N 
ATOM      2  C   UNL     1      -0.536  -2.107   0.144  0.00  0.00    +0.201 C 
ATOM      3  O   UNL     1      -1.586  -1.825   0.683  0.00  0.00    -0.278 OA
ATOM      4  H   UNL     1       0.984  -1.387  -0.967  0.00  0.00    +0.155 HD
ENDROOT
BRANCH   1   9
ATOM      5  C   UNL     1      -0.648   2.262  -1.599  0.00  0.00    +0.044 A 
ATOM      6  C   UNL     1      -1.132   2.812  -0.419  0.00  0.00    +0.027 A 
ATOM      7  C   UNL     1      -1.183   2.043   0.737  0.00  0.00    +0.044 A 
ATOM      8  C   UNL     1      -0.751   0.730   0.713  0.00  0.00    +0.065 A 
ATOM      9  C   UNL     1      -0.267   0.180  -0.468  0.00  0.00    +0.070 A 
ATOM     10  C   UNL     1      -0.216   0.949  -1.623  0.00  0.00    +0.065 A 
ATOM     11 CL   UNL     1       0.388   0.262  -3.098  0.00  0.00    -0.082 Cl
ATOM     12 CL   UNL     1      -0.812  -0.231   2.157  0.00  0.00    -0.082 Cl
BRANCH   6  13
ATOM     13  N   UNL     1      -1.569   4.140  -0.394  0.00  0.00    -0.358 N 
ATOM     14  H   UNL     1      -1.534   4.677  -1.201  0.00  0.00    +0.142 HD
ATOM     15  H   UNL     1      -1.907   4.524   0.430  0.00  0.00    +0.142 HD
ENDBRANCH   6  13
ENDBRANCH   1   9
BRANCH   2  16
ATOM     16  C   UNL     1      -0.024  -3.523   0.186  0.00  0.00    +0.019 C 
BRANCH  16  17
ATOM     17  N   UNL     1      -0.969  -4.364   0.932  0.00  0.00    +0.388 N 
ATOM     18  H   UNL     1      -1.125  -3.966   1.845  0.00  0.00    -0.081 HD
BRANCH  17  19
ATOM     19  C   UNL     1      -2.243  -4.433   0.204  0.00  0.00    -0.050 C 
BRANCH  19  20
ATOM     20  C   UNL     1      -3.276  -5.178   1.052  0.00  0.00    +0.137 C 
BRANCH  20  21
ATOM     21  O   UNL     1      -3.539  -4.435   2.243  0.00  0.00    -0.397 OA
ATOM     22  H   UNL     1      -4.187  -4.849   2.830  0.00  0.00    +0.209 HD
ENDBRANCH  20  21
ENDBRANCH  19  20
ENDBRANCH  17  19
BRANCH  17  23
ATOM     23  C   UNL     1      -0.414  -5.716   1.076  0.00  0.00    -0.050 C 
BRANCH  23  24
ATOM     24  C   UNL     1       0.831  -5.664   1.963  0.00  0.00    +0.137 C 
BRANCH  24  25
ATOM     25  O   UNL     1       0.462  -5.243   3.278  0.00  0.00    -0.397 OA
ATOM     26  H   UNL     1       1.212  -5.114   3.875  0.00  0.00    +0.209 HD
ENDBRANCH  24  25
ENDBRANCH  23  24
ENDBRANCH  17  23
ENDBRANCH  16  17
ENDBRANCH   2  16
TORSDOF 10
