REMARK  Name = ZINC39946773
REMARK  6 active torsions:
REMARK  status: ('A' for Active; 'I' for Inactive)
REMARK    1  A    between atoms: C_4  and  C_7
REMARK    2  A    between atoms: C_7  and  C_9
REMARK    3  A    between atoms: C_7  and  S_20
REMARK    4  A    between atoms: C_9  and  C_11
REMARK    5  A    between atoms: S_20  and  C_21
REMARK    6  A    between atoms: C_25  and  C_27
REMARK                            x       y       z     vdW  Elec       q    Type
REMARK                         _______ _______ _______ _____ _____    ______ ____
ROOT
ATOM      1  C   UNL     1       3.711  -0.707  -0.038  0.00  0.00    +0.152 C 
ENDROOT
BRANCH   1   5
ATOM      2  C   UNL     1      -0.017   1.378   0.010  0.00  0.00    +0.000 A 
ATOM      3  C   UNL     1       1.171   2.086   0.002  0.00  0.00    +0.000 A 
ATOM      4  C   UNL     1       2.377   1.411  -0.013  0.00  0.00    +0.005 A 
ATOM      5  C   UNL     1       2.396   0.029  -0.020  0.00  0.00    -0.027 A 
ATOM      6  C   UNL     1       1.208  -0.679  -0.012  0.00  0.00    +0.005 A 
ATOM      7  C   UNL     1       0.002  -0.004   0.002  0.00  0.00    +0.000 A 
ENDBRANCH   1   5
BRANCH   1   8
ATOM      8  C   UNL     1       3.790  -1.566  -1.273  0.00  0.00    +0.179 C 
ATOM      9  O   UNL     1       3.467  -2.736  -1.221  0.00  0.00    -0.291 OA
BRANCH   8  10
ATOM     10  C   UNL     1       4.238  -1.012  -2.491  0.00  0.00    +0.024 C 
ATOM     11  C   UNL     1       4.363  -1.657  -3.708  0.00  0.00    +0.006 A 
ATOM     12  C   UNL     1       4.108  -2.984  -4.124  0.00  0.00    +0.010 A 
ATOM     13  C   UNL     1       4.325  -3.350  -5.407  0.00  0.00    +0.001 A 
ATOM     14  C   UNL     1       4.804  -2.453  -6.376  0.00  0.00    +0.002 A 
ATOM     15  C   UNL     1       5.079  -1.164  -6.082  0.00  0.00    +0.026 A 
ATOM     16  C   UNL     1       4.870  -0.683  -4.706  0.00  0.00    +0.043 A 
ATOM     17  N   UNL     1       5.050   0.484  -4.156  0.00  0.00    -0.380 N 
ATOM     18  C   UNL     1       4.677   0.415  -2.740  0.00  0.00    +0.152 C 
ATOM     19  H   UNL     1       5.375   1.275  -4.613  0.00  0.00    +0.160 HD
ENDBRANCH   8  10
ENDBRANCH   1   8
BRANCH   1  20
ATOM     20  S   UNL     1       3.837  -1.756   1.437  0.00  0.00    -0.080 S 
BRANCH  20  21
ATOM     21  C   UNL     1       3.880  -0.575   2.813  0.00  0.00    +0.340 C 
ATOM     22  N   UNL     1       5.014   0.353   2.661  0.00  0.00    -0.219 N 
ATOM     23  N   UNL     1       4.441   1.629   2.557  0.00  0.00    -0.145 NA
ATOM     24  C   UNL     1       3.153   1.550   2.629  0.00  0.00    +0.240 C 
ATOM     25  O   UNL     1       2.722   0.272   2.784  0.00  0.00    -0.442 OA
ATOM     26  H   UNL     1       5.958   0.129   2.638  0.00  0.00    +0.173 HD
BRANCH  24  27
ATOM     27  C   UNL     1       2.252   2.718   2.553  0.00  0.00    +0.042 A 
ATOM     28  C   UNL     1       0.870   2.542   2.646  0.00  0.00    +0.017 A 
ATOM     29  C   UNL     1       0.030   3.634   2.575  0.00  0.00    +0.050 A 
ATOM     30  C   UNL     1       0.553   4.908   2.411  0.00  0.00    +0.166 A 
ATOM     31  C   UNL     1       1.933   5.090   2.318  0.00  0.00    +0.167 A 
ATOM     32  C   UNL     1       2.780   4.000   2.394  0.00  0.00    +0.062 A 
ATOM     33  O   UNL     1       2.187   6.422   2.162  0.00  0.00    -0.453 OA
ATOM     34  C   UNL     1       0.937   7.007   1.751  0.00  0.00    +0.466 C 
ATOM     35  O   UNL     1      -0.054   6.127   2.314  0.00  0.00    -0.453 OA
ENDBRANCH  24  27
ENDBRANCH  20  21
ENDBRANCH   1  20
TORSDOF 6
