REMARK  Name = ZINC17303846
REMARK  6 active torsions:
REMARK  status: ('A' for Active; 'I' for Inactive)
REMARK    1  A    between atoms: C_1  and  C_2
REMARK    2  A    between atoms: C_5  and  S_22
REMARK    3  A    between atoms: C_7  and  C_8
REMARK    4  A    between atoms: C_8  and  N_10
REMARK    5  A    between atoms: S_22  and  N_25
REMARK    6  A    between atoms: C_30  and  C_32
REMARK                            x       y       z     vdW  Elec       q    Type
REMARK                         _______ _______ _______ _____ _____    ______ ____
ROOT
ATOM      1  C   UNL     1       0.505   1.692   0.622  0.00  0.00    +0.044 C 
ATOM      2  C   UNL     1       0.356   0.205   0.427  0.00  0.00    -0.038 A 
ATOM      3  C   UNL     1       0.043  -0.302  -0.818  0.00  0.00    +0.006 A 
ATOM      4  C   UNL     1      -0.094  -1.667  -0.998  0.00  0.00    +0.029 A 
ATOM      5  C   UNL     1       0.082  -2.532   0.068  0.00  0.00    +0.106 A 
ATOM      6  C   UNL     1       0.394  -2.038   1.317  0.00  0.00    +0.042 A 
ATOM      7  C   UNL     1       0.539  -0.663   1.504  0.00  0.00    +0.044 A 
ENDROOT
BRANCH   5   8
ATOM      8  S   UNL     1      -0.095  -4.269  -0.172  0.00  0.00    +0.061 S 
ATOM      9  O   UNL     1      -0.419  -4.822   1.096  0.00  0.00    -0.153 OA
ATOM     10  O   UNL     1      -0.927  -4.439  -1.312  0.00  0.00    -0.153 OA
BRANCH   8  11
ATOM     11  N   UNL     1       1.396  -4.861  -0.581  0.00  0.00    -0.174 NA
ATOM     12  C   UNL     1       1.755  -5.076  -1.989  0.00  0.00    +0.110 C 
ATOM     13  C   UNL     1       2.236  -6.521  -2.160  0.00  0.00    +0.017 C 
ATOM     14  C   UNL     1       3.373  -6.796  -1.172  0.00  0.00    +0.003 C 
ATOM     15  C   UNL     1       2.859  -6.623   0.260  0.00  0.00    +0.020 C 
ATOM     16  C   UNL     1       2.387  -5.175   0.457  0.00  0.00    +0.077 C 
ATOM     17  C   UNL     1       1.747  -5.026   1.839  0.00  0.00    +0.026 C 
ENDBRANCH   8  11
ENDBRANCH   5   8
BRANCH   7  18
ATOM     18  C   UNL     1       0.881  -0.126   2.842  0.00  0.00    +0.270 C 
ATOM     19  O   UNL     1       0.963   1.078   3.012  0.00  0.00    -0.268 OA
BRANCH  18  20
ATOM     20  N   UNL     1       1.099  -0.963   3.862  0.00  0.00    -0.143 NA
ATOM     21  C   UNL     1       1.296  -0.482   5.084  0.00  0.00    +0.199 A 
ATOM     22  N   UNL     1       1.407   0.835   5.405  0.00  0.00    -0.326 N 
ATOM     23  H   UNL     1       1.355   1.578   4.783  0.00  0.00    +0.169 HD
ATOM     24  C   UNL     1       1.605   0.935   6.778  0.00  0.00    +0.065 A 
ATOM     25  C   UNL     1       1.780   2.013   7.634  0.00  0.00    +0.028 A 
ATOM     26  C   UNL     1       1.959   1.796   8.986  0.00  0.00    +0.002 A 
ATOM     27  C   UNL     1       1.966   0.507   9.491  0.00  0.00    +0.002 A 
ATOM     28  C   UNL     1       1.794  -0.572   8.649  0.00  0.00    +0.028 A 
ATOM     29  C   UNL     1       1.612  -0.365   7.288  0.00  0.00    +0.065 A 
ATOM     30  N   UNL     1       1.413  -1.228   6.215  0.00  0.00    -0.326 N 
ATOM     31  H   UNL     1       1.367  -2.196   6.265  0.00  0.00    +0.169 HD
ENDBRANCH  18  20
ENDBRANCH   7  18
TORSDOF 4
