REMARK  Name = ZINC39847066
REMARK  4 active torsions:
REMARK  status: ('A' for Active; 'I' for Inactive)
REMARK    1  A    between atoms: C_1  and  C_2
REMARK    2  A    between atoms: C_6  and  N_8
REMARK    3  A    between atoms: C_13  and  C_16
REMARK    4  A    between atoms: C_16  and  C_17
REMARK                            x       y       z     vdW  Elec       q    Type
REMARK                         _______ _______ _______ _____ _____    ______ ____
ROOT
ATOM      1  N   UNL     1       0.050  -2.631   2.389  0.00  0.00    -0.207 NA
ATOM      2  C   UNL     1       0.046  -1.937   3.505  0.00  0.00    +0.163 C 
ATOM      3  N   UNL     1       0.064  -2.406   4.800  0.00  0.00    -0.264 N 
ATOM      4  C   UNL     1       0.057  -1.601   5.848  0.00  0.00    +0.232 C 
ATOM      5  O   UNL     1       0.074  -2.022   6.985  0.00  0.00    -0.274 OA
ATOM      6  C   UNL     1       0.028  -0.112   5.538  0.00  0.00    +0.144 C 
ATOM      7  S   UNL     1       0.022  -0.161   3.698  0.00  0.00    -0.077 S 
ATOM      8  H   UNL     1       0.083  -3.365   4.948  0.00  0.00    +0.157 HD
ENDROOT
BRANCH   1  14
ATOM      9  C   UNL     1      -0.018   1.503   0.010  0.00  0.00    +0.065 C 
ATOM     10  C   UNL     1       0.002  -0.004   0.002  0.00  0.00    +0.041 A 
ATOM     11  C   UNL     1       0.006  -0.678  -1.203  0.00  0.00    +0.023 A 
ATOM     12  C   UNL     1       0.025  -2.068  -1.209  0.00  0.00    +0.005 A 
ATOM     13  C   UNL     1       0.040  -2.733   0.001  0.00  0.00    +0.048 A 
ATOM     14  C   UNL     1       0.035  -1.989   1.185  0.00  0.00    +0.155 A 
ATOM     15  N   UNL     1       0.022  -0.660   1.146  0.00  0.00    -0.233 NA
ENDBRANCH   1  14
BRANCH   6  16
ATOM     16  C   UNL     1      -1.242   0.543   6.086  0.00  0.00    +0.062 C 
BRANCH  16  17
ATOM     17  C   UNL     1      -1.173   2.032   5.866  0.00  0.00    -0.011 A 
ATOM     18  C   UNL     1      -0.704   2.858   6.869  0.00  0.00    +0.006 A 
ATOM     19  C   UNL     1      -0.641   4.224   6.668  0.00  0.00    +0.000 A 
ATOM     20  C   UNL     1      -1.047   4.766   5.463  0.00  0.00    +0.003 A 
ATOM     21  C   UNL     1      -1.517   3.942   4.458  0.00  0.00    +0.038 A 
ATOM     22  C   UNL     1      -1.575   2.573   4.656  0.00  0.00    +0.127 A 
ATOM     23  F   UNL     1      -2.030   1.766   3.673  0.00  0.00    -0.205 F 
ENDBRANCH  16  17
ENDBRANCH   6  16
TORSDOF 3
