REMARK  Name = ZINC12499887
REMARK  15 active torsions:
REMARK  status: ('A' for Active; 'I' for Inactive)
REMARK    1  A    between atoms: C_1  and  C_2
REMARK    2  A    between atoms: C_5  and  N_9
REMARK    3  A    between atoms: C_6  and  C_8
REMARK    4  A    between atoms: N_9  and  S_10
REMARK    5  A    between atoms: S_10  and  C_13
REMARK    6  A    between atoms: C_16  and  N_19
REMARK    7  A    between atoms: N_19  and  C_20
REMARK    8  A    between atoms: C_20  and  N_22
REMARK    9  A    between atoms: C_23  and  C_25
REMARK   10  A    between atoms: C_25  and  O_26
REMARK   11  A    between atoms: O_26  and  C_27
REMARK   12  A    between atoms: C_30  and  C_33
REMARK   13  A    between atoms: C_33  and  C_34
REMARK   14  A    between atoms: C_33  and  C_35
REMARK   15  A    between atoms: C_33  and  C_36
REMARK                            x       y       z     vdW  Elec       q    Type
REMARK                         _______ _______ _______ _____ _____    ______ ____
ROOT
ATOM      1  N   UNL     1       0.951   4.336   5.227  0.00  0.00    -0.297 N 
ATOM      2  H   UNL     1       1.359   3.919   6.002  0.00  0.00    +0.154 HD
ENDROOT
BRANCH   1   6
ATOM      3  C   UNL     1       1.271   2.538   1.483  0.00  0.00    +0.109 A 
ATOM      4  C   UNL     1       0.933   1.777   2.588  0.00  0.00    +0.030 A 
ATOM      5  C   UNL     1       0.832   2.369   3.831  0.00  0.00    +0.025 A 
ATOM      6  C   UNL     1       1.058   3.733   3.970  0.00  0.00    +0.033 A 
ATOM      7  C   UNL     1       1.392   4.495   2.858  0.00  0.00    +0.025 A 
ATOM      8  C   UNL     1       1.497   3.896   1.618  0.00  0.00    +0.030 A 
BRANCH   3   9
ATOM      9  S   UNL     1       1.407   1.777  -0.100  0.00  0.00    +0.072 S 
ATOM     10  O   UNL     1       1.194   2.801  -1.062  0.00  0.00    -0.150 OA
ATOM     11  O   UNL     1       0.614   0.599  -0.054  0.00  0.00    -0.150 OA
BRANCH   9  12
ATOM     12  N   UNL     1       2.978   1.284  -0.274  0.00  0.00    -0.216 N 
ATOM     13  H   UNL     1       3.520   1.637  -0.997  0.00  0.00    +0.174 HD
BRANCH  12  18
ATOM     14  C   UNL     1       5.184  -2.484   3.344  0.00  0.00    +0.044 C 
ATOM     15  C   UNL     1       4.598  -1.482   2.383  0.00  0.00    -0.050 A 
ATOM     16  C   UNL     1       3.270  -1.581   2.008  0.00  0.00    +0.005 A 
ATOM     17  C   UNL     1       2.730  -0.665   1.127  0.00  0.00    +0.025 A 
ATOM     18  C   UNL     1       3.521   0.357   0.618  0.00  0.00    +0.051 A 
ATOM     19  C   UNL     1       4.855   0.450   0.993  0.00  0.00    -0.028 A 
ATOM     20  C   UNL     1       5.388  -0.466   1.878  0.00  0.00    +0.008 A 
ATOM     21  C   UNL     1       5.719   1.554   0.438  0.00  0.00    +0.046 C 
ENDBRANCH  12  18
ENDBRANCH   9  12
ENDBRANCH   3   9
ENDBRANCH   1   6
BRANCH   1  22
ATOM     22  C   UNL     1       0.282   5.498   5.362  0.00  0.00    +0.141 C 
ATOM     23  S   UNL     1      -0.341   6.293   3.979  0.00  0.00    -0.018 S 
BRANCH  22  24
ATOM     24  N   UNL     1       0.103   6.035   6.585  0.00  0.00    -0.265 N 
ATOM     25  C   UNL     1      -0.567   7.197   6.720  0.00  0.00    +0.256 C 
ATOM     26  O   UNL     1      -1.008   7.759   5.740  0.00  0.00    -0.272 OA
ATOM     27  H   UNL     1       0.456   5.585   7.369  0.00  0.00    +0.157 HD
BRANCH  25  28
ATOM     28  C   UNL     1      -0.767   7.797   8.088  0.00  0.00    +0.324 C 
BRANCH  28  29
ATOM     29  O   UNL     1      -1.500   9.018   7.969  0.00  0.00    -0.483 OA
BRANCH  29  30
ATOM     30  C   UNL     1      -1.767   9.691   9.119  0.00  0.00    +0.121 A 
ATOM     31  C   UNL     1      -1.338   9.184  10.337  0.00  0.00    +0.046 A 
ATOM     32  C   UNL     1      -1.606   9.873  11.504  0.00  0.00    +0.008 A 
ATOM     33  C   UNL     1      -2.311  11.061  11.460  0.00  0.00    -0.042 A 
ATOM     34  C   UNL     1      -2.745  11.566  10.249  0.00  0.00    +0.008 A 
ATOM     35  C   UNL     1      -2.474  10.884   9.078  0.00  0.00    +0.046 A 
BRANCH  33  36
ATOM     36  C   UNL     1      -2.608  11.807  12.736  0.00  0.00    -0.013 C 
ATOM     37  C   UNL     1      -4.122  11.938  12.910  0.00  0.00    +0.015 C 
ATOM     38  C   UNL     1      -2.023  11.040  13.923  0.00  0.00    +0.015 C 
ATOM     39  C   UNL     1      -1.980  13.200  12.669  0.00  0.00    +0.015 C 
ENDBRANCH  33  36
ENDBRANCH  29  30
ENDBRANCH  28  29
ENDBRANCH  25  28
ENDBRANCH  22  24
ENDBRANCH   1  22
TORSDOF 10
