REMARK  Name = ZINC10735672
REMARK  6 active torsions:
REMARK  status: ('A' for Active; 'I' for Inactive)
REMARK    1  A    between atoms: C_6  and  C_7
REMARK    2  A    between atoms: C_10  and  C_12
REMARK    3  A    between atoms: N_14  and  N_15
REMARK    4  A    between atoms: C_16  and  C_18
REMARK    5  A    between atoms: C_18  and  N_19
REMARK    6  A    between atoms: C_20  and  C_22
REMARK                            x       y       z     vdW  Elec       q    Type
REMARK                         _______ _______ _______ _____ _____    ______ ____
ROOT
ATOM      1  C   UNL     1      -1.156  -0.694   0.009  0.00  0.00    +0.267 C 
ATOM      2  O   UNL     1      -2.218  -0.100   0.023  0.00  0.00    -0.268 OA
ATOM      3  N   UNL     1       0.002  -0.004   0.002  0.00  0.00    -0.230 N 
ATOM      4  H   UNL     1       0.849  -0.478  -0.009  0.00  0.00    +0.173 HD
ENDROOT
BRANCH   1   8
ATOM      5  C   UNL     1      -0.623  -4.808  -0.018  0.00  0.00    +0.020 A 
ATOM      6  C   UNL     1      -1.942  -4.386  -0.003  0.00  0.00    +0.017 A 
ATOM      7  C   UNL     1      -2.203  -3.045   0.012  0.00  0.00    +0.021 A 
ATOM      8  C   UNL     1      -1.136  -2.158   0.001  0.00  0.00    +0.076 A 
ATOM      9  S   UNL     1       0.268  -3.261  -0.017  0.00  0.00    -0.084 S 
BRANCH   5  15
ATOM     10  C   UNL     1      -0.962  -7.276  -0.023  0.00  0.00    +0.012 A 
ATOM     11  C   UNL     1      -0.459  -8.559  -0.039  0.00  0.00    +0.039 A 
ATOM     12  C   UNL     1       0.911  -8.769  -0.053  0.00  0.00    +0.123 A 
ATOM     13  C   UNL     1       1.782  -7.691  -0.055  0.00  0.00    +0.039 A 
ATOM     14  C   UNL     1       1.290  -6.403  -0.044  0.00  0.00    +0.012 A 
ATOM     15  C   UNL     1      -0.089  -6.186  -0.030  0.00  0.00    -0.011 A 
ATOM     16  F   UNL     1       1.399 -10.029  -0.064  0.00  0.00    -0.205 F 
ENDBRANCH   5  15
ENDBRANCH   1   8
BRANCH   3  17
ATOM     17  N   UNL     1      -0.017   1.397   0.010  0.00  0.00    -0.233 N 
ATOM     18  C   UNL     1       1.141   2.087   0.002  0.00  0.00    +0.246 C 
ATOM     19  O   UNL     1       2.199   1.494  -0.011  0.00  0.00    -0.273 OA
ATOM     20  H   UNL     1      -0.864   1.870   0.016  0.00  0.00    +0.173 HD
BRANCH  18  21
ATOM     21  C   UNL     1       1.121   3.593   0.011  0.00  0.00    +0.202 C 
BRANCH  21  22
ATOM     22  N   UNL     1       2.495   4.100   0.000  0.00  0.00    -0.301 N 
ATOM     23  C   UNL     1       2.723   5.429   0.005  0.00  0.00    +0.263 C 
ATOM     24  O   UNL     1       1.789   6.206   0.018  0.00  0.00    -0.269 OA
ATOM     25  H   UNL     1       3.241   3.480  -0.010  0.00  0.00    +0.150 HD
BRANCH  23  26
ATOM     26  C   UNL     1       4.113   5.942  -0.005  0.00  0.00    +0.127 A 
ATOM     27  C   UNL     1       4.342   7.315  -0.006  0.00  0.00    +0.053 A 
ATOM     28  C   UNL     1       5.650   7.780  -0.010  0.00  0.00    +0.045 A 
ATOM     29  C   UNL     1       6.681   6.852  -0.025  0.00  0.00    +0.040 A 
ATOM     30  C   UNL     1       6.378   5.501  -0.029  0.00  0.00    +0.113 A 
ATOM     31  N   UNL     1       5.130   5.088  -0.020  0.00  0.00    -0.250 NA
ATOM     32 CL   UNL     1       5.987   9.483  -0.004  0.00  0.00    -0.083 Cl
ENDBRANCH  23  26
ENDBRANCH  21  22
ENDBRANCH  18  21
ENDBRANCH   3  17
TORSDOF 6
