REMARK  Name = ZINC21948356
REMARK  4 active torsions:
REMARK  status: ('A' for Active; 'I' for Inactive)
REMARK    1  A    between atoms: C_1  and  C_2
REMARK    2  A    between atoms: C_2  and  C_3
REMARK    3  A    between atoms: C_2  and  N_4
REMARK    4  A    between atoms: C_5  and  N_6
REMARK                            x       y       z     vdW  Elec       q    Type
REMARK                         _______ _______ _______ _____ _____    ______ ____
ROOT
ATOM      1  N   UNL     1      -2.103   1.072   1.277  0.00  0.00    -0.278 N 
ATOM      2  C   UNL     1      -3.163   1.965   1.298  0.00  0.00    +0.110 A 
ATOM      3  C   UNL     1      -4.535   1.412   1.304  0.00  0.00    +0.038 A 
ATOM      4  C   UNL     1      -5.654   2.237   1.321  0.00  0.00    +0.013 A 
ATOM      5  C   UNL     1      -6.914   1.674   1.331  0.00  0.00    +0.001 A 
ATOM      6  C   UNL     1      -7.066   0.297   1.325  0.00  0.00    +0.002 A 
ATOM      7  C   UNL     1      -5.961  -0.532   1.309  0.00  0.00    +0.028 A 
ATOM      8  C   UNL     1      -4.688   0.017   1.298  0.00  0.00    +0.080 A 
ATOM      9  N   UNL     1      -3.555  -0.787   1.282  0.00  0.00    -0.193 NA
ATOM     10  C   UNL     1      -2.323  -0.253   1.272  0.00  0.00    +0.351 A 
ATOM     11  O   UNL     1      -1.364  -1.001   1.259  0.00  0.00    -0.244 OA
ENDROOT
BRANCH   1  13
ATOM     12  C   UNL     1      -0.013   1.086   0.008  0.00  0.00    +0.031 C 
ATOM     13  C   UNL     1      -0.729   1.579   1.267  0.00  0.00    +0.087 C 
ATOM     14  C   UNL     1       0.011   1.072   2.506  0.00  0.00    +0.031 C 
ENDBRANCH   1  13
BRANCH   2  15
ATOM     15  N   UNL     1      -2.958   3.252   1.308  0.00  0.00    -0.344 N 
ATOM     16  H   UNL     1      -3.812   3.945   1.325  0.00  0.00    +0.144 HD
ATOM     17  H   UNL     1      -1.931   3.645   1.301  0.00  0.00    +0.144 HD
ENDBRANCH   2  15
TORSDOF 2
