REMARK  Name = ZINC34207846
REMARK  9 active torsions:
REMARK  status: ('A' for Active; 'I' for Inactive)
REMARK    1  A    between atoms: C_1  and  C_2
REMARK    2  A    between atoms: C_2  and  C_3
REMARK    3  A    between atoms: C_2  and  C_4
REMARK    4  A    between atoms: C_5  and  C_23
REMARK    5  A    between atoms: C_7  and  C_12
REMARK    6  A    between atoms: C_15  and  C_17
REMARK    7  A    between atoms: C_23  and  O_25
REMARK    8  A    between atoms: O_25  and  C_26
REMARK    9  A    between atoms: N_31  and  C_33
REMARK                            x       y       z     vdW  Elec       q    Type
REMARK                         _______ _______ _______ _____ _____    ______ ____
ROOT
ATOM      1  C   UNL     1       0.758  -0.610   1.169  0.00  0.00    +0.036 A 
ATOM      2  C   UNL     1       0.045  -1.228   2.177  0.00  0.00    +0.079 A 
ATOM      3  C   UNL     1       0.701  -1.588   3.378  0.00  0.00    +0.032 A 
ATOM      4  C   UNL     1       2.046  -1.308   3.511  0.00  0.00    +0.066 A 
ATOM      5  C   UNL     1       2.728  -0.671   2.442  0.00  0.00    +0.258 A 
ATOM      6  O   UNL     1       3.916  -0.419   2.546  0.00  0.00    -0.267 OA
ATOM      7  N   UNL     1       2.071  -0.350   1.313  0.00  0.00    -0.325 N 
ATOM      8  H   UNL     1       2.553   0.082   0.590  0.00  0.00    +0.169 HD
ENDROOT
BRANCH   4   9
ATOM      9  C   UNL     1       2.769  -1.669   4.754  0.00  0.00    +0.084 A 
ATOM     10  C   UNL     1       4.106  -1.385   4.885  0.00  0.00    +0.075 A 
ATOM     11  S   UNL     1       4.420  -2.024   6.526  0.00  0.00    -0.075 S 
ATOM     12  C   UNL     1       2.760  -2.595   6.863  0.00  0.00    +0.109 A 
ATOM     13  N   UNL     1       2.133  -2.260   5.746  0.00  0.00    -0.239 NA
BRANCH  12  14
ATOM     14  C   UNL     1       2.227  -3.261   8.070  0.00  0.00    +0.010 A 
ATOM     15  C   UNL     1       0.883  -3.645   8.147  0.00  0.00    +0.030 A 
ATOM     16  C   UNL     1       0.428  -4.264   9.292  0.00  0.00    +0.111 A 
ATOM     17  N   UNL     1       1.240  -4.494  10.306  0.00  0.00    -0.263 NA
ATOM     18  C   UNL     1       2.514  -4.149  10.276  0.00  0.00    +0.111 A 
ATOM     19  C   UNL     1       3.054  -3.531   9.167  0.00  0.00    +0.030 A 
ENDBRANCH  12  14
ENDBRANCH   4   9
BRANCH   1  21
ATOM     20  C   UNL     1       0.080   1.294  -0.267  0.00  0.00    +0.014 C 
ATOM     21  C   UNL     1       0.060  -0.228  -0.110  0.00  0.00    +0.030 C 
ATOM     22  C   UNL     1       0.779  -0.872  -1.296  0.00  0.00    +0.014 C 
ENDBRANCH   1  21
BRANCH   2  23
ATOM     23  C   UNL     1      -1.390  -1.512   2.003  0.00  0.00    +0.341 C 
ATOM     24  O   UNL     1      -2.220  -0.786   2.515  0.00  0.00    -0.245 OA
BRANCH  23  25
ATOM     25  O   UNL     1      -1.784  -2.576   1.275  0.00  0.00    -0.460 OA
BRANCH  25  26
ATOM     26  C   UNL     1      -3.191  -2.790   1.148  0.00  0.00    +0.160 C 
ATOM     27  C   UNL     1      -3.711  -2.049  -0.087  0.00  0.00    +0.041 C 
ATOM     28  C   UNL     1      -5.203  -2.349  -0.259  0.00  0.00    -0.015 C 
ATOM     29  C   UNL     1      -5.405  -3.862  -0.363  0.00  0.00    -0.079 C 
ATOM     30  N   UNL     1      -4.912  -4.510   0.859  0.00  0.00    +0.380 N 
ATOM     31  C   UNL     1      -3.467  -4.287   0.993  0.00  0.00    -0.034 C 
ATOM     32  C   UNL     1      -5.178  -5.953   0.788  0.00  0.00    -0.096 C 
ATOM     33  H   UNL     1      -5.386  -4.121   1.659  0.00  0.00    -0.082 HD
ENDBRANCH  25  26
ENDBRANCH  23  25
ENDBRANCH   2  23
TORSDOF 6
