REMARK  Name = ZINC66178087
REMARK  5 active torsions:
REMARK  status: ('A' for Active; 'I' for Inactive)
REMARK    1  A    between atoms: C_1  and  N_2
REMARK    2  A    between atoms: N_2  and  C_3
REMARK    3  A    between atoms: N_6  and  C_9
REMARK    4  A    between atoms: N_17  and  C_18
REMARK    5  A    between atoms: C_21  and  C_24
REMARK                            x       y       z     vdW  Elec       q    Type
REMARK                         _______ _______ _______ _____ _____    ______ ____
ROOT
ATOM      1  C   UNL     1      -0.018   1.461   0.010  0.00  0.00    +0.134 C 
ATOM      2  N   UNL     1       0.002  -0.004   0.002  0.00  0.00    -0.286 N 
ATOM      3  C   UNL     1       0.000  -0.672  -1.169  0.00  0.00    +0.302 C 
ATOM      4  O   UNL     1       0.017  -1.887  -1.175  0.00  0.00    -0.253 OA
ATOM      5  N   UNL     1      -0.020   0.009  -2.332  0.00  0.00    -0.296 N 
ATOM      6  H   UNL     1      -0.033   0.978  -2.327  0.00  0.00    +0.151 HD
ENDROOT
BRANCH   2   7
ATOM      7  C   UNL     1       0.024  -0.743   1.267  0.00  0.00    +0.074 C 
ATOM      8  C   UNL     1       1.271  -0.354   2.066  0.00  0.00    +0.004 C 
ATOM      9  C   UNL     1       1.248  -1.069   3.418  0.00  0.00    -0.077 C 
ATOM     10  N   UNL     1       0.045  -0.675   4.163  0.00  0.00    +0.382 N 
ATOM     11  C   UNL     1      -1.154  -1.109   3.437  0.00  0.00    -0.077 C 
ATOM     12  C   UNL     1      -1.223  -0.396   2.085  0.00  0.00    +0.004 C 
ATOM     13  H   UNL     1       0.029   0.328   4.267  0.00  0.00    -0.081 HD
BRANCH  10  14
ATOM     14  C   UNL     1       0.066  -1.303   5.491  0.00  0.00    -0.064 C 
ATOM     15  C   UNL     1      -1.182  -0.885   6.274  0.00  0.00    +0.013 C 
ATOM     16  C   UNL     1      -1.113  -1.480   7.684  0.00  0.00    +0.158 C 
ATOM     17  O   UNL     1       0.085  -1.039   8.327  0.00  0.00    -0.380 OA
ATOM     18  C   UNL     1       1.285  -1.441   7.664  0.00  0.00    +0.158 C 
ATOM     19  C   UNL     1       1.312  -0.845   6.255  0.00  0.00    +0.013 C 
ENDBRANCH  10  14
ENDBRANCH   2   7
BRANCH   5  20
ATOM     20  C   UNL     1      -0.022  -0.717  -3.605  0.00  0.00    +0.074 C 
ATOM     21  C   UNL     1       1.416  -1.059  -3.999  0.00  0.00    +0.023 C 
ATOM     22  C   UNL     1       1.413  -1.817  -5.329  0.00  0.00    +0.010 C 
ATOM     23  C   UNL     1       0.782  -0.943  -6.413  0.00  0.00    +0.019 C 
ATOM     24  C   UNL     1      -0.657  -0.600  -6.019  0.00  0.00    +0.010 C 
ATOM     25  C   UNL     1      -0.654   0.158  -4.690  0.00  0.00    +0.023 C 
BRANCH  23  26
ATOM     26  C   UNL     1       0.779  -1.689  -7.722  0.00  0.00    -0.044 A 
ATOM     27  C   UNL     1       0.103  -2.890  -7.832  0.00  0.00    +0.004 A 
ATOM     28  C   UNL     1       0.101  -3.574  -9.033  0.00  0.00    +0.000 A 
ATOM     29  C   UNL     1       0.775  -3.058 -10.124  0.00  0.00    +0.000 A 
ATOM     30  C   UNL     1       1.450  -1.857 -10.015  0.00  0.00    +0.000 A 
ATOM     31  C   UNL     1       1.449  -1.170  -8.815  0.00  0.00    +0.004 A 
ENDBRANCH  23  26
ENDBRANCH   5  20
TORSDOF 4
