REMARK  Name = ZINC02793557
REMARK  10 active torsions:
REMARK  status: ('A' for Active; 'I' for Inactive)
REMARK    1  A    between atoms: C_1  and  C_2
REMARK    2  A    between atoms: C_5  and  O_9
REMARK    3  A    between atoms: C_6  and  C_8
REMARK    4  A    between atoms: O_9  and  C_10
REMARK    5  A    between atoms: C_10  and  C_11
REMARK    6  A    between atoms: C_14  and  C_16
REMARK    7  A    between atoms: N_22  and  C_23
REMARK    8  A    between atoms: C_23  and  C_24
REMARK    9  A    between atoms: C_24  and  C_25
REMARK   10  A    between atoms: C_24  and  C_26
REMARK                            x       y       z     vdW  Elec       q    Type
REMARK                         _______ _______ _______ _____ _____    ______ ____
ROOT
ATOM      1  C   UNL     1       3.714  -0.858  -0.037  0.00  0.00    +0.143 A 
ATOM      2  C   UNL     1       4.456  -1.148   1.050  0.00  0.00    +0.049 A 
ATOM      3  C   UNL     1       5.691  -1.643   0.588  0.00  0.00    +0.053 A 
ATOM      4  C   UNL     1       5.638  -1.619  -0.773  0.00  0.00    +0.172 A 
ATOM      5  O   UNL     1       4.431  -1.140  -1.136  0.00  0.00    -0.453 OA
ENDROOT
BRANCH   4   6
ATOM      6  C   UNL     1       6.711  -2.043  -1.688  0.00  0.00    +0.198 A 
ATOM      7  N   UNL     1       7.960  -2.238  -1.361  0.00  0.00    -0.150 NA
ATOM      8  N   UNL     1       8.653  -2.635  -2.513  0.00  0.00    -0.254 N 
ATOM      9  H   UNL     1       9.728  -2.860  -2.458  0.00  0.00    +0.191 HD
ATOM     10  C   UNL     1       7.769  -2.659  -3.531  0.00  0.00    +0.176 A 
ATOM     11  S   UNL     1       8.111  -3.074  -5.156  0.00  0.00    -0.011 S 
ATOM     12  N   UNL     1       6.567  -2.296  -3.039  0.00  0.00    -0.301 N 
BRANCH  12  13
ATOM     13  C   UNL     1       5.323  -2.188  -3.806  0.00  0.00    +0.129 C 
BRANCH  13  14
ATOM     14  C   UNL     1       5.189  -0.770  -4.363  0.00  0.00    +0.003 C 
ATOM     15  C   UNL     1       6.309  -0.509  -5.371  0.00  0.00    +0.009 C 
ATOM     16  C   UNL     1       3.833  -0.621  -5.056  0.00  0.00    +0.009 C 
ENDBRANCH  13  14
ENDBRANCH  12  13
ENDBRANCH   4   6
BRANCH   1  17
ATOM     17  C   UNL     1       2.313  -0.303  -0.021  0.00  0.00    +0.303 C 
BRANCH  17  18
ATOM     18  O   UNL     1       2.366   1.125  -0.014  0.00  0.00    -0.484 OA
BRANCH  18  23
ATOM     19  C   UNL     1      -2.553   3.867   0.046  0.00  0.00    +0.044 C 
ATOM     20  C   UNL     1      -1.237   3.133   0.030  0.00  0.00    -0.050 A 
ATOM     21  C   UNL     1      -1.218   1.751   0.017  0.00  0.00    +0.007 A 
ATOM     22  C   UNL     1      -0.013   1.076   0.008  0.00  0.00    +0.046 A 
ATOM     23  C   UNL     1       1.179   1.786   0.000  0.00  0.00    +0.124 A 
ATOM     24  C   UNL     1       1.157   3.173   0.008  0.00  0.00    -0.009 A 
ATOM     25  C   UNL     1      -0.051   3.844   0.023  0.00  0.00    +0.010 A 
ATOM     26  C   UNL     1       2.449   3.948   0.000  0.00  0.00    +0.047 C 
ENDBRANCH  18  23
ENDBRANCH  17  18
ENDBRANCH   1  17
TORSDOF 6
