REMARK  Name = ZINC01005720
REMARK  8 active torsions:
REMARK  status: ('A' for Active; 'I' for Inactive)
REMARK    1  A    between atoms: C_1  and  C_2
REMARK    2  A    between atoms: C_5  and  C_29
REMARK    3  A    between atoms: C_6  and  C_8
REMARK    4  A    between atoms: C_9  and  C_28
REMARK    5  A    between atoms: C_11  and  N_16
REMARK    6  A    between atoms: C_12  and  C_13
REMARK    7  A    between atoms: C_17  and  C_19
REMARK    8  A    between atoms: C_22  and  N_25
REMARK                            x       y       z     vdW  Elec       q    Type
REMARK                         _______ _______ _______ _____ _____    ______ ____
ROOT
ATOM      1  C   UNL     1      -1.051  -0.861   0.013  0.00  0.00    +0.006 A 
ATOM      2  C   UNL     1       0.002  -0.004   0.002  0.00  0.00    -0.003 A 
ATOM      3  S   UNL     1       1.413  -1.090  -0.017  0.00  0.00    -0.077 S 
ATOM      4  C   UNL     1       0.606  -2.621  -0.018  0.00  0.00    +0.085 A 
ATOM      5  C   UNL     1      -0.739  -2.277  -0.004  0.00  0.00    +0.073 A 
ATOM      6  C   UNL     1      -0.018   1.503   0.010  0.00  0.00    +0.052 C 
ENDROOT
BRANCH   1  12
ATOM      7  C   UNL     1      -5.167   0.574  -2.420  0.00  0.00    +0.044 C 
ATOM      8  C   UNL     1      -4.432   0.318  -1.130  0.00  0.00    -0.050 A 
ATOM      9  C   UNL     1      -5.065   0.538   0.081  0.00  0.00    +0.003 A 
ATOM     10  C   UNL     1      -4.396   0.304   1.269  0.00  0.00    +0.004 A 
ATOM     11  C   UNL     1      -3.095  -0.154   1.253  0.00  0.00    -0.043 A 
ATOM     12  C   UNL     1      -2.450  -0.373   0.037  0.00  0.00    -0.013 A 
ATOM     13  C   UNL     1      -3.130  -0.137  -1.158  0.00  0.00    +0.012 A 
ATOM     14  C   UNL     1      -2.370  -0.414   2.549  0.00  0.00    +0.044 C 
ENDBRANCH   1  12
BRANCH   5  15
ATOM     15  C   UNL     1      -1.792  -3.296   0.001  0.00  0.00    +0.244 C 
ATOM     16  O   UNL     1      -2.220  -3.725   1.056  0.00  0.00    -0.270 OA
ATOM     17  N   UNL     1      -2.287  -3.757  -1.165  0.00  0.00    -0.325 N 
ATOM     18  H   UNL     1      -1.947  -3.415  -2.006  0.00  0.00    +0.145 HD
ATOM     19  H   UNL     1      -2.985  -4.432  -1.162  0.00  0.00    +0.145 HD
ENDBRANCH   5  15
BRANCH   4  20
ATOM     20  N   UNL     1       1.167  -3.887  -0.030  0.00  0.00    -0.275 N 
ATOM     21  C   UNL     1       2.507  -4.029  -0.043  0.00  0.00    +0.249 C 
ATOM     22  O   UNL     1       3.223  -3.047  -0.044  0.00  0.00    -0.270 OA
ATOM     23  H   UNL     1       0.596  -4.671  -0.029  0.00  0.00    +0.156 HD
BRANCH  21  24
ATOM     24  C   UNL     1       3.107  -5.380  -0.057  0.00  0.00    +0.037 A 
ATOM     25  C   UNL     1       2.288  -6.511  -0.050  0.00  0.00    +0.015 A 
ATOM     26  C   UNL     1       2.853  -7.769  -0.069  0.00  0.00    +0.033 A 
ATOM     27  C   UNL     1       4.230  -7.912  -0.082  0.00  0.00    +0.126 A 
ATOM     28  C   UNL     1       5.047  -6.795  -0.083  0.00  0.00    +0.033 A 
ATOM     29  C   UNL     1       4.494  -5.532  -0.071  0.00  0.00    +0.015 A 
BRANCH  27  30
ATOM     30  N   UNL     1       4.830  -9.265  -0.095  0.00  0.00    +0.056 N 
ATOM     31  O   UNL     1       6.041  -9.393  -0.107  0.00  0.00    -0.126 OA
ATOM     32  O   UNL     1       4.113 -10.249  -0.093  0.00  0.00    -0.126 OA
ENDBRANCH  27  30
ENDBRANCH  21  24
ENDBRANCH   4  20
TORSDOF 5
