REMARK  Name = ZINC66961271
REMARK  4 active torsions:
REMARK  status: ('A' for Active; 'I' for Inactive)
REMARK    1  A    between atoms: C_1  and  C_2
REMARK    2  A    between atoms: C_8  and  C_12
REMARK    3  A    between atoms: C_17  and  C_20
REMARK    4  A    between atoms: C_22  and  C_26
REMARK                            x       y       z     vdW  Elec       q    Type
REMARK                         _______ _______ _______ _____ _____    ______ ____
ROOT
ATOM      1  C   UNL     1       0.420  -1.473   3.418  0.00  0.00    +0.240 C 
ATOM      2  O   UNL     1       1.481  -2.025   3.222  0.00  0.00    -0.273 OA
ATOM      3  N   UNL     1      -0.219  -1.637   4.594  0.00  0.00    -0.263 N 
ATOM      4  C   UNL     1       0.339  -2.441   5.581  0.00  0.00    +0.165 A 
ATOM      5  N   UNL     1      -0.140  -2.717   6.773  0.00  0.00    -0.225 NA
ATOM      6  C   UNL     1       0.518  -3.510   7.609  0.00  0.00    +0.082 A 
ATOM      7  C   UNL     1       1.707  -4.016   7.166  0.00  0.00    +0.077 A 
ATOM      8  S   UNL     1       1.786  -3.298   5.533  0.00  0.00    -0.060 S 
ATOM      9  H   UNL     1      -1.068  -1.195   4.751  0.00  0.00    +0.157 HD
ENDROOT
BRANCH   1  17
ATOM     10  C   UNL     1      -0.019   1.526   0.010  0.00  0.00    +0.044 C 
ATOM     11  C   UNL     1       0.002  -0.004   0.002  0.00  0.00    +0.082 C 
ATOM     12  C   UNL     1       0.717  -0.589  -1.228  0.00  0.00    +0.046 C 
ATOM     13  C   UNL     1       2.146  -0.802  -0.676  0.00  0.00    +0.099 C 
ATOM     14  C   UNL     1       1.949  -0.971   0.812  0.00  0.00    +0.217 C 
ATOM     15  O   UNL     1       2.791  -1.391   1.576  0.00  0.00    -0.276 OA
ATOM     16  N   UNL     1       0.704  -0.590   1.174  0.00  0.00    -0.275 N 
ATOM     17  C   UNL     1      -0.185  -0.601   2.348  0.00  0.00    +0.173 C 
ATOM     18  C   UNL     1      -1.585  -1.150   1.979  0.00  0.00    +0.103 C 
ATOM     19  S   UNL     1      -1.669  -0.750   0.182  0.00  0.00    -0.133 S 
ENDBRANCH   1  17
BRANCH   6  20
ATOM     20  C   UNL     1      -0.011  -3.830   8.960  0.00  0.00    +0.019 A 
ATOM     21  C   UNL     1      -1.265  -3.450   9.474  0.00  0.00    +0.042 A 
ATOM     22  C   UNL     1      -1.349  -3.950  10.744  0.00  0.00    +0.102 A 
ATOM     23  N   UNL     1      -0.179  -4.623  11.014  0.00  0.00    -0.356 N 
ATOM     24  H   UNL     1       0.032  -5.077  11.845  0.00  0.00    +0.165 HD
ATOM     25  C   UNL     1       0.627  -4.552   9.927  0.00  0.00    +0.093 A 
BRANCH  22  26
ATOM     26  C   UNL     1      -2.486  -3.795  11.658  0.00  0.00    +0.258 C 
ATOM     27  O   UNL     1      -3.471  -3.174  11.304  0.00  0.00    -0.269 OA
ATOM     28  N   UNL     1      -2.439  -4.341  12.889  0.00  0.00    -0.324 N 
ATOM     29  H   UNL     1      -1.654  -4.836  13.171  0.00  0.00    +0.145 HD
ATOM     30  H   UNL     1      -3.191  -4.239  13.494  0.00  0.00    +0.145 HD
ENDBRANCH  22  26
ENDBRANCH   6  20
TORSDOF 3
