REMARK  Name = ZINC22921927
REMARK  10 active torsions:
REMARK  status: ('A' for Active; 'I' for Inactive)
REMARK    1  A    between atoms: C_1  and  C_2
REMARK    2  A    between atoms: C_2  and  C_3
REMARK    3  A    between atoms: C_3  and  C_5
REMARK    4  A    between atoms: C_3  and  C_6
REMARK    5  A    between atoms: C_6  and  C_7
REMARK    6  A    between atoms: C_8  and  C_35
REMARK    7  A    between atoms: C_16  and  C_18
REMARK    8  A    between atoms: C_18  and  N_19
REMARK    9  A    between atoms: N_22  and  C_25
REMARK   10  A    between atoms: C_25  and  C_26
REMARK                            x       y       z     vdW  Elec       q    Type
REMARK                         _______ _______ _______ _____ _____    ______ ____
ROOT
ATOM      1  C   UNL     1       3.927   8.596  -5.013  0.00  0.00    +0.158 C 
ENDROOT
BRANCH   1  11
ATOM      2  C   UNL     1       6.927   4.745  -7.943  0.00  0.00    -0.023 A 
ATOM      3  C   UNL     1       7.212   3.647  -7.224  0.00  0.00    -0.007 A 
ATOM      4  S   UNL     1       6.462   3.985  -5.642  0.00  0.00    -0.073 S 
ATOM      5  C   UNL     1       5.790   5.589  -5.992  0.00  0.00    +0.116 A 
ATOM      6  C   UNL     1       6.166   5.817  -7.328  0.00  0.00    +0.075 A 
ATOM      7  C   UNL     1       5.745   7.068  -7.885  0.00  0.00    +0.260 A 
ATOM      8  O   UNL     1       6.023   7.359  -9.036  0.00  0.00    -0.267 OA
ATOM      9  N   UNL     1       5.034   7.916  -7.119  0.00  0.00    -0.309 N 
ATOM     10  H   UNL     1       4.694   8.877  -7.532  0.00  0.00    +0.170 HD
ATOM     11  C   UNL     1       4.720   7.612  -5.833  0.00  0.00    +0.125 A 
ATOM     12  N   UNL     1       5.089   6.480  -5.297  0.00  0.00    -0.225 NA
ATOM     13  C   UNL     1       7.980   2.424  -7.652  0.00  0.00    +0.052 C 
BRANCH   2  14
ATOM     14  C   UNL     1       7.392   4.863  -9.371  0.00  0.00    +0.040 C 
BRANCH  14  15
ATOM     15  C   UNL     1       6.323   4.290 -10.305  0.00  0.00    -0.010 C 
ATOM     16  C   UNL     1       6.174   2.789 -10.050  0.00  0.00    +0.008 C 
BRANCH  15  18
ATOM     17  C   UNL     1       5.615   4.063 -12.690  0.00  0.00    +0.004 C 
ATOM     18  C   UNL     1       6.739   4.522 -11.759  0.00  0.00    +0.000 C 
ENDBRANCH  15  18
ENDBRANCH  14  15
ENDBRANCH   2  14
ENDBRANCH   1  11
BRANCH   1  19
ATOM     19  N   UNL     1       3.828   8.112  -3.629  0.00  0.00    -0.293 NA
ATOM     20  C   UNL     1       5.145   8.111  -2.976  0.00  0.00    +0.100 C 
ATOM     21  C   UNL     1       5.012   7.527  -1.568  0.00  0.00    +0.100 C 
ATOM     22  N   UNL     1       4.047   8.325  -0.798  0.00  0.00    -0.294 NA
ATOM     23  C   UNL     1       2.731   8.326  -1.451  0.00  0.00    +0.100 C 
ATOM     24  C   UNL     1       2.863   8.910  -2.860  0.00  0.00    +0.100 C 
BRANCH  22  25
ATOM     25  C   UNL     1       3.949   7.841   0.585  0.00  0.00    +0.139 C 
BRANCH  25  26
ATOM     26  C   UNL     1       3.147   8.820   1.404  0.00  0.00    +0.048 A 
ATOM     27  C   UNL     1       1.823   8.739   1.656  0.00  0.00    +0.115 A 
ATOM     28  N   UNL     1       1.492   9.817   2.430  0.00  0.00    -0.308 N 
ATOM     29  C   UNL     1       0.312  10.236   2.973  0.00  0.00    +0.092 A 
ATOM     30  C   UNL     1       0.258  11.363   3.715  0.00  0.00    +0.018 A 
ATOM     31  C   UNL     1       1.419  12.123   3.933  0.00  0.00    +0.005 A 
ATOM     32  C   UNL     1       2.603  11.713   3.403  0.00  0.00    +0.045 A 
ATOM     33  C   UNL     1       2.642  10.535   2.631  0.00  0.00    +0.115 A 
ATOM     34  N   UNL     1       3.629   9.913   2.001  0.00  0.00    -0.342 N 
ATOM     35  H   UNL     1       4.697  10.161   1.916  0.00  0.00    +0.167 HD
ENDBRANCH  25  26
ENDBRANCH  22  25
ENDBRANCH   1  19
TORSDOF 7
