REMARK  Name = ZINC02240344
REMARK  6 active torsions:
REMARK  status: ('A' for Active; 'I' for Inactive)
REMARK    1  A    between atoms: N_8  and  N_9
REMARK    2  A    between atoms: C_10  and  C_12
REMARK    3  A    between atoms: C_12  and  N_13
REMARK    4  A    between atoms: C_14  and  C_16
REMARK    5  A    between atoms: N_26  and  C_27
REMARK    6  A    between atoms: C_27  and  C_28
REMARK                            x       y       z     vdW  Elec       q    Type
REMARK                         _______ _______ _______ _____ _____    ______ ____
ROOT
ATOM      1  C   UNL     1      -0.017   1.376   0.010  0.00  0.00    +0.001 A 
ATOM      2  C   UNL     1       1.172   2.086   0.002  0.00  0.00    +0.002 A 
ATOM      3  C   UNL     1       2.385   1.427  -0.013  0.00  0.00    +0.024 A 
ATOM      4  C   UNL     1       2.424   0.037  -0.021  0.00  0.00    +0.047 A 
ATOM      5  C   UNL     1       1.219  -0.677  -0.014  0.00  0.00    +0.028 A 
ATOM      6  C   UNL     1       0.002  -0.004   0.002  0.00  0.00    +0.012 A 
ATOM      7  C   UNL     1       1.583  -2.113  -0.025  0.00  0.00    +0.153 C 
ATOM      8  N   UNL     1       0.772  -3.143  -0.023  0.00  0.00    -0.174 NA
ATOM      9  C   UNL     1       3.060  -2.131  -0.039  0.00  0.00    +0.272 C 
ATOM     10  O   UNL     1       3.764  -3.123  -0.051  0.00  0.00    -0.268 OA
ATOM     11  N   UNL     1       3.488  -0.857  -0.036  0.00  0.00    -0.257 N 
ENDROOT
BRANCH   8  12
ATOM     12  N   UNL     1       1.292  -4.444  -0.035  0.00  0.00    -0.205 N 
ATOM     13  C   UNL     1       0.458  -5.503  -0.032  0.00  0.00    +0.249 C 
ATOM     14  O   UNL     1      -0.742  -5.329  -0.020  0.00  0.00    -0.272 OA
ATOM     15  H   UNL     1       2.252  -4.582  -0.044  0.00  0.00    +0.177 HD
BRANCH  13  16
ATOM     16  C   UNL     1       1.017  -6.902  -0.045  0.00  0.00    +0.202 C 
BRANCH  16  17
ATOM     17  N   UNL     1      -0.084  -7.868  -0.040  0.00  0.00    -0.303 N 
ATOM     18  C   UNL     1       0.178  -9.190  -0.049  0.00  0.00    +0.246 C 
ATOM     19  O   UNL     1       1.330  -9.581  -0.062  0.00  0.00    -0.270 OA
ATOM     20  H   UNL     1      -1.003  -7.556  -0.029  0.00  0.00    +0.150 HD
BRANCH  18  21
ATOM     21  C   UNL     1      -0.932 -10.164  -0.044  0.00  0.00    +0.055 A 
ATOM     22  C   UNL     1      -2.256  -9.718  -0.035  0.00  0.00    +0.016 A 
ATOM     23  C   UNL     1      -3.288 -10.631  -0.030  0.00  0.00    +0.021 A 
ATOM     24  C   UNL     1      -3.015 -11.990  -0.033  0.00  0.00    +0.042 A 
ATOM     25  C   UNL     1      -1.706 -12.440  -0.042  0.00  0.00    +0.040 A 
ATOM     26  C   UNL     1      -0.663 -11.535  -0.054  0.00  0.00    +0.054 A 
ATOM     27 CL   UNL     1       0.979 -12.099  -0.073  0.00  0.00    -0.083 Cl
ATOM     28 CL   UNL     1      -4.322 -13.133  -0.026  0.00  0.00    -0.083 Cl
ENDBRANCH  18  21
ENDBRANCH  16  17
ENDBRANCH  13  16
ENDBRANCH   8  12
BRANCH  11  29
ATOM     29  C   UNL     1       4.899  -0.461  -0.048  0.00  0.00    +0.209 C 
BRANCH  29  30
ATOM     30  C   UNL     1       5.396  -0.332   1.369  0.00  0.00    +0.228 C 
ATOM     31  O   UNL     1       4.646  -0.551   2.297  0.00  0.00    -0.274 OA
ATOM     32  N   UNL     1       6.674   0.025   1.605  0.00  0.00    -0.328 N 
ATOM     33  H   UNL     1       7.273   0.200   0.863  0.00  0.00    +0.145 HD
ATOM     34  H   UNL     1       6.994   0.108   2.517  0.00  0.00    +0.145 HD
ENDBRANCH  29  30
ENDBRANCH  11  29
TORSDOF 6
