REMARK  Name = ZINC36570925
REMARK  11 active torsions:
REMARK  status: ('A' for Active; 'I' for Inactive)
REMARK    1  A    between atoms: C_1  and  C_2
REMARK    2  A    between atoms: C_2  and  C_3
REMARK    3  A    between atoms: C_3  and  N_4
REMARK    4  A    between atoms: N_4  and  C_5
REMARK    5  A    between atoms: C_5  and  C_7
REMARK    6  A    between atoms: C_5  and  C_14
REMARK    7  A    between atoms: C_11  and  O_13
REMARK    8  A    between atoms: N_16  and  C_17
REMARK    9  A    between atoms: C_23  and  C_25
REMARK   10  A    between atoms: C_26  and  O_32
REMARK   11  A    between atoms: C_30  and  O_31
REMARK                            x       y       z     vdW  Elec       q    Type
REMARK                         _______ _______ _______ _____ _____    ______ ____
ROOT
ATOM      1  C   UNL     1      -1.582  -2.717   1.153  0.00  0.00    +0.193 C 
ENDROOT
BRANCH   1   2
ATOM      2  C   UNL     1      -2.925  -2.495   1.800  0.00  0.00    -0.015 A 
ATOM      3  C   UNL     1      -3.440  -1.216   1.902  0.00  0.00    +0.006 A 
ATOM      4  C   UNL     1      -4.672  -1.010   2.495  0.00  0.00    +0.004 A 
ATOM      5  C   UNL     1      -5.391  -2.082   2.988  0.00  0.00    +0.045 A 
ATOM      6  C   UNL     1      -4.876  -3.366   2.887  0.00  0.00    +0.117 A 
ATOM      7  C   UNL     1      -3.642  -3.571   2.286  0.00  0.00    +0.051 A 
BRANCH   6   8
ATOM      8  O   UNL     1      -5.581  -4.422   3.371  0.00  0.00    -0.507 OA
ATOM      9  H   UNL     1      -6.180  -4.824   2.726  0.00  0.00    +0.292 HD
ENDBRANCH   6   8
ENDBRANCH   1   2
BRANCH   1  10
ATOM     10  C   UNL     1      -0.493  -2.250   2.085  0.00  0.00    +0.238 C 
ATOM     11  O   UNL     1       0.239  -1.341   1.755  0.00  0.00    -0.273 OA
ATOM     12  N   UNL     1      -0.331  -2.844   3.284  0.00  0.00    -0.311 N 
ATOM     13  H   UNL     1      -0.916  -3.572   3.547  0.00  0.00    +0.149 HD
BRANCH  12  14
ATOM     14  C   UNL     1       0.728  -2.391   4.189  0.00  0.00    +0.073 C 
ATOM     15  C   UNL     1       2.040  -3.091   3.830  0.00  0.00    +0.022 C 
ATOM     16  C   UNL     1       3.146  -2.617   4.776  0.00  0.00    +0.002 C 
ATOM     17  C   UNL     1       2.764  -2.958   6.218  0.00  0.00    +0.000 C 
ATOM     18  C   UNL     1       1.452  -2.258   6.577  0.00  0.00    +0.002 C 
ATOM     19  C   UNL     1       0.346  -2.731   5.631  0.00  0.00    +0.022 C 
ENDBRANCH  12  14
ENDBRANCH   1  10
BRANCH   1  20
ATOM     20  N   UNL     1      -1.512  -1.958  -0.098  0.00  0.00    -0.282 N 
ATOM     21  C   UNL     1      -2.055  -2.464  -1.223  0.00  0.00    +0.255 C 
ATOM     22  O   UNL     1      -2.604  -3.549  -1.199  0.00  0.00    -0.270 OA
BRANCH  21  23
ATOM     23  C   UNL     1      -1.985  -1.702  -2.481  0.00  0.00    +0.119 A 
ATOM     24  C   UNL     1      -0.902  -1.879  -3.354  0.00  0.00    +0.133 A 
ATOM     25  C   UNL     1      -0.846  -1.157  -4.536  0.00  0.00    +0.046 A 
ATOM     26  C   UNL     1      -1.853  -0.265  -4.855  0.00  0.00    +0.007 A 
ATOM     27  C   UNL     1      -2.925  -0.083  -4.001  0.00  0.00    +0.046 A 
ATOM     28  C   UNL     1      -3.004  -0.798  -2.818  0.00  0.00    +0.133 A 
BRANCH  28  29
ATOM     29  O   UNL     1      -4.060  -0.622  -1.984  0.00  0.00    -0.506 OA
ATOM     30  H   UNL     1      -3.930   0.075  -1.327  0.00  0.00    +0.292 HD
ENDBRANCH  28  29
BRANCH  24  31
ATOM     31  O   UNL     1       0.088  -2.753  -3.043  0.00  0.00    -0.506 OA
ATOM     32  H   UNL     1      -0.065  -3.651  -3.367  0.00  0.00    +0.292 HD
ENDBRANCH  24  31
ENDBRANCH  21  23
BRANCH  20  33
ATOM     33  C   UNL     1      -0.851  -0.651  -0.127  0.00  0.00    +0.109 C 
BRANCH  33  35
ATOM     34  C   UNL     1       1.343   0.502  -0.440  0.00  0.00    +0.005 C 
ATOM     35  C   UNL     1       0.592  -0.820  -0.608  0.00  0.00    +0.016 C 
ENDBRANCH  33  35
ENDBRANCH  20  33
ENDBRANCH   1  20
TORSDOF 10
