REMARK  Name = ZINC19525944
REMARK  9 active torsions:
REMARK  status: ('A' for Active; 'I' for Inactive)
REMARK    1  A    between atoms: C_1  and  C_2
REMARK    2  A    between atoms: C_2  and  C_3
REMARK    3  A    between atoms: C_3  and  N_4
REMARK    4  A    between atoms: C_5  and  C_28
REMARK    5  A    between atoms: C_6  and  C_9
REMARK    6  A    between atoms: C_9  and  N_10
REMARK    7  A    between atoms: C_14  and  C_17
REMARK    8  A    between atoms: C_19  and  N_27
REMARK    9  A    between atoms: C_24  and  C_26
REMARK                            x       y       z     vdW  Elec       q    Type
REMARK                         _______ _______ _______ _____ _____    ______ ____
ROOT
ATOM      1  N   UNL     1       2.129   1.146   1.196  0.00  0.00    +0.383 N 
ATOM      2  C   UNL     1       1.491   1.648   2.419  0.00  0.00    -0.078 C 
ATOM      3  C   UNL     1       0.057   1.118   2.502  0.00  0.00    -0.018 C 
ATOM      4  C   UNL     1      -0.725   1.581   1.270  0.00  0.00    +0.006 C 
ATOM      5  C   UNL     1      -0.013   1.086   0.008  0.00  0.00    +0.021 C 
ATOM      6  C   UNL     1       1.423   1.616  -0.003  0.00  0.00    -0.069 C 
ATOM      7  H   UNL     1       2.067   0.048   1.212  0.00  0.00    -0.081 HD
ENDROOT
BRANCH   5   8
ATOM      8  C   UNL     1      -0.743   1.586  -1.212  0.00  0.00    +0.048 A 
ATOM      9  C   UNL     1      -1.352   2.841  -1.190  0.00  0.00    +0.067 A 
ATOM     10  C   UNL     1      -2.008   3.288  -2.304  0.00  0.00    +0.122 A 
ATOM     11  N   UNL     1      -2.059   2.484  -3.411  0.00  0.00    -0.201 N 
ATOM     12  C   UNL     1      -1.451   1.255  -3.387  0.00  0.00    +0.158 A 
ATOM     13  N   UNL     1      -0.808   0.834  -2.289  0.00  0.00    -0.232 NA
ATOM     14  C   UNL     1      -1.665   0.675  -4.630  0.00  0.00    +0.073 A 
ATOM     15  C   UNL     1      -2.405   1.571  -5.390  0.00  0.00    +0.063 A 
ATOM     16  N   UNL     1      -2.641   2.645  -4.673  0.00  0.00    -0.169 NA
ATOM     17  C   UNL     1      -2.862   1.346  -6.808  0.00  0.00    +0.067 C 
BRANCH  10  18
ATOM     18  N   UNL     1      -2.613   4.527  -2.310  0.00  0.00    -0.343 N 
ATOM     19  H   UNL     1      -3.138   4.878  -3.211  0.00  0.00    +0.144 HD
ATOM     20  H   UNL     1      -2.571   5.164  -1.415  0.00  0.00    +0.144 HD
ENDBRANCH  10  18
ENDBRANCH   5   8
BRANCH   1  21
ATOM     21  C   UNL     1       3.549   1.520   1.151  0.00  0.00    -0.040 C 
BRANCH  21  24
ATOM     22  N   UNL     1       5.330  -0.708   3.423  0.00  0.00    -0.268 N 
ATOM     23  C   UNL     1       4.711  -0.467   2.248  0.00  0.00    +0.037 A 
ATOM     24  C   UNL     1       4.288   0.819   2.261  0.00  0.00    -0.024 A 
ATOM     25  C   UNL     1       4.654   1.380   3.489  0.00  0.00    +0.136 A 
ATOM     26  N   UNL     1       5.278   0.466   4.186  0.00  0.00    -0.179 NA
ATOM     27  C   UNL     1       4.526  -1.451   1.123  0.00  0.00    +0.065 C 
BRANCH  22  28
ATOM     28  C   UNL     1       5.942  -1.975   3.830  0.00  0.00    +0.143 C 
BRANCH  28  30
ATOM     29  C   UNL     1       5.539  -4.164   4.966  0.00  0.00    +0.005 C 
ATOM     30  C   UNL     1       4.899  -2.840   4.541  0.00  0.00    +0.020 C 
ENDBRANCH  28  30
ENDBRANCH  22  28
ENDBRANCH  21  24
ENDBRANCH   1  21
TORSDOF 6
