REMARK  Name = ZINC40480272
REMARK  7 active torsions:
REMARK  status: ('A' for Active; 'I' for Inactive)
REMARK    1  A    between atoms: C_1  and  C_2
REMARK    2  A    between atoms: C_3  and  C_12
REMARK    3  A    between atoms: C_12  and  C_13
REMARK    4  A    between atoms: C_13  and  C_14
REMARK    5  A    between atoms: N_16  and  C_17
REMARK    6  A    between atoms: C_17  and  C_19
REMARK    7  A    between atoms: C_17  and  C_20
REMARK                            x       y       z     vdW  Elec       q    Type
REMARK                         _______ _______ _______ _____ _____    ______ ____
ROOT
ATOM      1  C   UNL     1      -2.994   0.166  -1.419  0.00  0.00    +0.100 C 
ENDROOT
BRANCH   1   2
ATOM      2  C   UNL     1      -4.317   0.888  -1.407  0.00  0.00    +0.214 C 
ATOM      3  O   UNL     1      -4.800   1.253  -0.356  0.00  0.00    -0.276 OA
ATOM      4  N   UNL     1      -4.963   1.129  -2.566  0.00  0.00    -0.309 N 
ATOM      5  H   UNL     1      -4.577   0.837  -3.406  0.00  0.00    +0.149 HD
BRANCH   4   6
ATOM      6  C   UNL     1      -6.249   1.831  -2.555  0.00  0.00    +0.100 C 
ATOM      7  C   UNL     1      -6.006   3.341  -2.547  0.00  0.00    +0.033 C 
BRANCH   6   8
ATOM      8  C   UNL     1      -7.037   1.455  -3.783  0.00  0.00    -0.025 A 
ATOM      9  C   UNL     1      -6.395   1.318  -5.000  0.00  0.00    +0.005 A 
ATOM     10  C   UNL     1      -7.116   0.974  -6.128  0.00  0.00    +0.003 A 
ATOM     11  C   UNL     1      -8.480   0.766  -6.041  0.00  0.00    +0.038 A 
ATOM     12  C   UNL     1      -9.123   0.903  -4.823  0.00  0.00    +0.124 A 
ATOM     13  C   UNL     1      -8.399   1.242  -3.692  0.00  0.00    +0.043 A 
ATOM     14  F   UNL     1     -10.456   0.702  -4.736  0.00  0.00    -0.205 F 
ENDBRANCH   6   8
ENDBRANCH   4   6
ENDBRANCH   1   2
BRANCH   1  15
ATOM     15  C   UNL     1      -2.479   0.024   0.015  0.00  0.00    +0.051 C 
BRANCH  15  18
ATOM     16  C   UNL     1      -0.018   1.503   0.010  0.00  0.00    +0.064 C 
ATOM     17  C   UNL     1       0.002  -0.004   0.002  0.00  0.00    +0.026 A 
ATOM     18  C   UNL     1      -1.156  -0.698   0.004  0.00  0.00    +0.036 A 
ATOM     19  C   UNL     1      -1.111  -2.113  -0.005  0.00  0.00    +0.257 A 
ATOM     20  O   UNL     1      -2.142  -2.761  -0.004  0.00  0.00    -0.267 OA
ATOM     21  N   UNL     1       0.084  -2.737  -0.014  0.00  0.00    -0.275 N 
ATOM     22  H   UNL     1       0.123  -3.706  -0.020  0.00  0.00    +0.173 HD
ATOM     23  C   UNL     1       1.224  -2.020  -0.016  0.00  0.00    +0.327 A 
ATOM     24  O   UNL     1       2.294  -2.597  -0.024  0.00  0.00    -0.247 OA
ATOM     25  N   UNL     1       1.194  -0.675  -0.013  0.00  0.00    -0.311 N 
ATOM     26  H   UNL     1       2.026  -0.177  -0.018  0.00  0.00    +0.170 HD
ENDBRANCH  15  18
ENDBRANCH   1  15
TORSDOF 5
