REMARK  Name = ZINC46757625
REMARK  8 active torsions:
REMARK  status: ('A' for Active; 'I' for Inactive)
REMARK    1  A    between atoms: C_1  and  C_2
REMARK    2  A    between atoms: C_5  and  C_30
REMARK    3  A    between atoms: N_8  and  C_10
REMARK    4  A    between atoms: C_10  and  C_11
REMARK    5  A    between atoms: C_11  and  C_12
REMARK    6  A    between atoms: C_12  and  C_13
REMARK    7  A    between atoms: C_13  and  N_14
REMARK    8  A    between atoms: N_17  and  N_18
REMARK                            x       y       z     vdW  Elec       q    Type
REMARK                         _______ _______ _______ _____ _____    ______ ____
ROOT
ATOM      1  N   UNL     1       5.080   0.042   6.073  0.00  0.00    -0.298 N 
ATOM      2  C   UNL     1       6.321   0.522   6.290  0.00  0.00    +0.316 C 
ATOM      3  O   UNL     1       6.816   1.305   5.503  0.00  0.00    -0.251 OA
ATOM      4  N   UNL     1       7.013   0.133   7.379  0.00  0.00    -0.219 N 
ATOM      5  H   UNL     1       4.685  -0.583   6.701  0.00  0.00    +0.150 HD
ATOM      6  H   UNL     1       7.906   0.478   7.535  0.00  0.00    +0.174 HD
ENDROOT
BRANCH   4   7
ATOM      7  N   UNL     1       6.442  -0.770   8.286  0.00  0.00    -0.246 N 
ATOM      8  C   UNL     1       7.157  -1.172   9.411  0.00  0.00    +0.158 A 
ATOM      9  C   UNL     1       6.593  -2.076  10.312  0.00  0.00    +0.050 A 
ATOM     10  C   UNL     1       7.342  -2.446  11.415  0.00  0.00    +0.053 A 
ATOM     11  C   UNL     1       8.615  -1.893  11.557  0.00  0.00    +0.176 A 
ATOM     12  N   UNL     1       9.068  -1.042  10.651  0.00  0.00    -0.128 NA
ATOM     13  N   UNL     1       8.376  -0.703   9.625  0.00  0.00    -0.131 NA
ATOM     14  N   UNL     1       9.410  -2.236  12.656  0.00  0.00    -0.220 N 
ATOM     15  C   UNL     1      10.658  -1.769  12.918  0.00  0.00    +0.116 A 
ATOM     16  C   UNL     1      11.077  -2.344  14.069  0.00  0.00    +0.041 A 
ATOM     17  C   UNL     1      10.058  -3.186  14.527  0.00  0.00    +0.135 A 
ATOM     18  N   UNL     1       9.058  -3.118  13.687  0.00  0.00    -0.173 NA
ATOM     19  H   UNL     1       5.549  -1.115   8.130  0.00  0.00    +0.172 HD
ENDBRANCH   4   7
BRANCH   1  20
ATOM     20  C   UNL     1       4.328   0.465   4.889  0.00  0.00    +0.106 C 
BRANCH  20  21
ATOM     21  C   UNL     1       2.960  -0.221   4.882  0.00  0.00    +0.017 C 
BRANCH  21  22
ATOM     22  C   UNL     1       2.174   0.221   3.646  0.00  0.00    -0.017 C 
BRANCH  22  23
ATOM     23  C   UNL     1       0.807  -0.464   3.639  0.00  0.00    -0.079 C 
BRANCH  23  29
ATOM     24  C   UNL     1      -0.019   1.526   0.010  0.00  0.00    +0.005 C 
ATOM     25  C   UNL     1       0.002  -0.004   0.002  0.00  0.00    -0.031 C 
ATOM     26  C   UNL     1      -1.434  -0.535   0.015  0.00  0.00    +0.003 C 
ATOM     27  C   UNL     1      -2.117  -0.099   1.315  0.00  0.00    -0.031 C 
ATOM     28  C   UNL     1      -1.302  -0.604   2.507  0.00  0.00    -0.076 C 
ATOM     29  N   UNL     1       0.052  -0.040   2.452  0.00  0.00    +0.380 N 
ATOM     30  C   UNL     1       0.740  -0.512   1.242  0.00  0.00    -0.076 C 
ATOM     31  C   UNL     1      -3.528  -0.689   1.373  0.00  0.00    +0.005 C 
ATOM     32  H   UNL     1      -0.004   0.967   2.434  0.00  0.00    -0.082 HD
ENDBRANCH  23  29
ENDBRANCH  22  23
ENDBRANCH  21  22
ENDBRANCH  20  21
ENDBRANCH   1  20
TORSDOF 6
