REMARK  Name = ZINC64816344
REMARK  10 active torsions:
REMARK  status: ('A' for Active; 'I' for Inactive)
REMARK    1  A    between atoms: C_1  and  C_2
REMARK    2  A    between atoms: C_5  and  N_9
REMARK    3  A    between atoms: C_6  and  C_8
REMARK    4  A    between atoms: C_14  and  C_27
REMARK    5  A    between atoms: C_18  and  C_19
REMARK    6  A    between atoms: C_18  and  C_20
REMARK    7  A    between atoms: N_22  and  C_23
REMARK    8  A    between atoms: C_23  and  C_24
REMARK    9  A    between atoms: C_24  and  O_25
REMARK   10  A    between atoms: O_25  and  C_26
REMARK                            x       y       z     vdW  Elec       q    Type
REMARK                         _______ _______ _______ _____ _____    ______ ____
ROOT
ATOM      1  N   UNL     1       0.057  -4.169  -0.021  0.00  0.00    -0.250 N 
ATOM      2  C   UNL     1      -1.117  -4.846  -0.024  0.00  0.00    +0.270 C 
ATOM      3  O   UNL     1      -2.179  -4.286  -0.217  0.00  0.00    -0.268 OA
ATOM      4  C   UNL     1      -1.035  -6.295   0.218  0.00  0.00    +0.125 A 
ATOM      5  C   UNL     1      -1.972  -7.281   0.109  0.00  0.00    +0.063 A 
ATOM      6  C   UNL     1      -1.292  -8.470   0.457  0.00  0.00    +0.100 A 
ATOM      7  N   UNL     1      -0.044  -8.147   0.748  0.00  0.00    -0.170 NA
ATOM      8  N   UNL     1       0.138  -6.889   0.631  0.00  0.00    -0.256 N 
ATOM      9  C   UNL     1       1.345  -6.092   0.884  0.00  0.00    +0.179 C 
ATOM     10  C   UNL     1       1.339  -4.865  -0.031  0.00  0.00    +0.135 C 
ATOM     11  C   UNL     1       2.431  -3.898   0.432  0.00  0.00    +0.044 C 
ENDROOT
BRANCH   1  16
ATOM     12  C   UNL     1      -0.018   1.503   0.010  0.00  0.00    +0.044 C 
ATOM     13  C   UNL     1       0.002  -0.004   0.002  0.00  0.00    -0.050 A 
ATOM     14  C   UNL     1       0.006  -0.688  -1.200  0.00  0.00    +0.005 A 
ATOM     15  C   UNL     1       0.024  -2.068  -1.212  0.00  0.00    +0.024 A 
ATOM     16  C   UNL     1       0.039  -2.771  -0.013  0.00  0.00    +0.041 A 
ATOM     17  C   UNL     1       0.036  -2.081   1.192  0.00  0.00    -0.029 A 
ATOM     18  C   UNL     1       0.023  -0.700   1.196  0.00  0.00    +0.008 A 
ATOM     19  C   UNL     1       0.052  -2.840   2.495  0.00  0.00    +0.045 C 
ENDBRANCH   1  16
BRANCH   6  20
ATOM     20  C   UNL     1      -1.873  -9.830   0.490  0.00  0.00    +0.039 A 
ATOM     21  C   UNL     1      -1.275 -11.015   0.822  0.00  0.00    +0.018 A 
ATOM     22  C   UNL     1      -2.025 -12.171   0.780  0.00  0.00    +0.008 A 
ATOM     23  C   UNL     1      -3.330 -12.099   0.413  0.00  0.00    +0.046 A 
ATOM     24  S   UNL     1      -3.539 -10.352   0.115  0.00  0.00    -0.095 S 
ENDBRANCH   6  20
BRANCH  10  25
ATOM     25  C   UNL     1       1.645  -5.301  -1.441  0.00  0.00    +0.239 C 
ATOM     26  O   UNL     1       2.790  -5.303  -1.840  0.00  0.00    -0.273 OA
ATOM     27  N   UNL     1       0.646  -5.689  -2.258  0.00  0.00    -0.311 N 
ATOM     28  H   UNL     1      -0.270  -5.688  -1.939  0.00  0.00    +0.149 HD
BRANCH  27  29
ATOM     29  C   UNL     1       0.943  -6.113  -3.629  0.00  0.00    +0.132 C 
BRANCH  29  30
ATOM     30  C   UNL     1      -0.357  -6.499  -4.337  0.00  0.00    +0.178 C 
BRANCH  30  31
ATOM     31  O   UNL     1      -1.188  -5.344  -4.470  0.00  0.00    -0.381 OA
ATOM     32  C   UNL     1      -2.434  -5.597  -5.122  0.00  0.00    +0.194 C 
ENDBRANCH  30  31
ENDBRANCH  29  30
ENDBRANCH  27  29
ENDBRANCH  10  25
TORSDOF 6
