REMARK  Name = ZINC53791908
REMARK  7 active torsions:
REMARK  status: ('A' for Active; 'I' for Inactive)
REMARK    1  A    between atoms: C_1  and  C_2
REMARK    2  A    between atoms: C_2  and  C_26
REMARK    3  A    between atoms: C_4  and  N_10
REMARK    4  A    between atoms: C_6  and  C_8
REMARK    5  A    between atoms: C_6  and  C_9
REMARK    6  A    between atoms: C_11  and  C_13
REMARK    7  A    between atoms: C_19  and  N_23
REMARK                            x       y       z     vdW  Elec       q    Type
REMARK                         _______ _______ _______ _____ _____    ______ ____
ROOT
ATOM      1  N   UNL     1       2.615  -0.819  -2.626  0.00  0.00    -0.307 N 
ATOM      2  C   UNL     1       3.770  -0.334  -3.123  0.00  0.00    +0.261 C 
ATOM      3  O   UNL     1       4.376   0.532  -2.522  0.00  0.00    -0.269 OA
ATOM      4  H   UNL     1       2.133  -1.510  -3.106  0.00  0.00    +0.149 HD
ENDROOT
BRANCH   1   8
ATOM      5  C   UNL     1      -0.019   1.528   0.010  0.00  0.00    -0.010 C 
ATOM      6  C   UNL     1       0.002  -0.004   0.002  0.00  0.00    -0.072 C 
ATOM      7  C   UNL     1       0.573  -0.505  -1.321  0.00  0.00    +0.009 C 
ATOM      8  C   UNL     1       2.088  -0.301  -1.357  0.00  0.00    +0.071 C 
ATOM      9  C   UNL     1       2.703  -1.086  -0.198  0.00  0.00    +0.009 C 
ATOM     10  C   UNL     1       2.147  -0.590   1.133  0.00  0.00    -0.072 C 
ATOM     11  N   UNL     1       0.697  -0.529   1.164  0.00  0.00    +0.386 N 
ATOM     12  C   UNL     1       2.769   0.766   1.481  0.00  0.00    -0.010 C 
ATOM     13  C   UNL     1       2.600  -1.589   2.223  0.00  0.00    -0.010 C 
ATOM     14  C   UNL     1      -1.468  -0.478   0.079  0.00  0.00    -0.010 C 
ATOM     15  H   UNL     1       0.416   0.021   1.982  0.00  0.00    -0.084 HD
ATOM     16  H   UNL     1       0.341  -1.472   1.351  0.00  0.00    -0.084 HD
ENDBRANCH   1   8
BRANCH   2  17
ATOM     17  C   UNL     1       4.299  -0.853  -4.394  0.00  0.00    +0.103 A 
ATOM     18  C   UNL     1       5.450  -0.450  -4.992  0.00  0.00    +0.041 A 
ATOM     19  C   UNL     1       5.597  -1.190  -6.189  0.00  0.00    +0.003 A 
ATOM     20  C   UNL     1       6.569  -1.206  -7.198  0.00  0.00    +0.010 A 
ATOM     21  C   UNL     1       6.433  -2.053  -8.259  0.00  0.00    +0.003 A 
ATOM     22  C   UNL     1       5.337  -2.902  -8.350  0.00  0.00    +0.035 A 
ATOM     23  C   UNL     1       4.368  -2.905  -7.372  0.00  0.00    +0.150 A 
ATOM     24  C   UNL     1       4.485  -2.050  -6.279  0.00  0.00    +0.078 A 
ATOM     25  N   UNL     1       3.706  -1.832  -5.168  0.00  0.00    -0.349 N 
ATOM     26  H   UNL     1       2.876  -2.289  -4.962  0.00  0.00    +0.166 HD
BRANCH  23  27
ATOM     27  N   UNL     1       3.206  -3.815  -7.481  0.00  0.00    +0.058 N 
ATOM     28  O   UNL     1       3.106  -4.557  -8.431  0.00  0.00    -0.126 OA
ATOM     29  O   UNL     1       2.356  -3.817  -6.621  0.00  0.00    -0.126 OA
ENDBRANCH  23  27
ENDBRANCH   2  17
TORSDOF 3
