REMARK  Name = ZINC65356890
REMARK  7 active torsions:
REMARK  status: ('A' for Active; 'I' for Inactive)
REMARK    1  A    between atoms: C_1  and  N_2
REMARK    2  A    between atoms: C_18  and  C_23
REMARK    3  A    between atoms: C_25  and  O_32
REMARK    4  A    between atoms: C_26  and  O_31
REMARK    5  A    between atoms: C_27  and  O_29
REMARK    6  A    between atoms: O_29  and  C_30
REMARK    7  A    between atoms: O_32  and  C_33
REMARK                            x       y       z     vdW  Elec       q    Type
REMARK                         _______ _______ _______ _____ _____    ______ ____
ROOT
ATOM      1  C   UNL     1      -0.165   1.403  -0.036  0.00  0.00    +0.140 C 
ATOM      2  N   UNL     1      -0.100  -0.061  -0.043  0.00  0.00    -0.255 N 
ATOM      3  C   UNL     1      -1.181  -0.867  -0.067  0.00  0.00    +0.242 C 
ATOM      4  O   UNL     1      -2.345  -0.531  -0.118  0.00  0.00    -0.273 OA
ATOM      5  C   UNL     1      -0.639  -2.279  -0.016  0.00  0.00    +0.166 C 
ATOM      6  C   UNL     1      -1.102  -3.064  -1.256  0.00  0.00    +0.065 C 
ATOM      7  C   UNL     1      -0.102  -4.179  -1.450  0.00  0.00    -0.034 C 
ATOM      8  C   UNL     1      -0.279  -5.492  -1.556  0.00  0.00    -0.001 A 
ATOM      9  C   UNL     1      -1.499  -6.312  -1.618  0.00  0.00    +0.010 A 
ATOM     10  C   UNL     1      -1.313  -7.656  -1.708  0.00  0.00    +0.001 A 
ATOM     11  C   UNL     1      -0.051  -8.258  -1.741  0.00  0.00    +0.002 A 
ATOM     12  C   UNL     1       1.123  -7.580  -1.697  0.00  0.00    +0.026 A 
ATOM     13  C   UNL     1       1.058  -6.159  -1.609  0.00  0.00    +0.043 A 
ATOM     14  N   UNL     1       2.009  -5.274  -1.570  0.00  0.00    -0.375 N 
ATOM     15  C   UNL     1       1.400  -3.942  -1.543  0.00  0.00    +0.131 C 
ATOM     16  C   UNL     1       1.807  -3.161  -0.285  0.00  0.00    +0.133 C 
ATOM     17  N   UNL     1       0.823  -2.083  -0.092  0.00  0.00    -0.291 N 
ATOM     18  C   UNL     1       1.041  -0.764  -0.031  0.00  0.00    +0.143 C 
ATOM     19  S   UNL     1       2.598  -0.057   0.055  0.00  0.00    -0.018 S 
ATOM     20  H   UNL     1       2.960  -5.463  -1.560  0.00  0.00    +0.160 HD
ENDROOT
BRANCH  16  21
ATOM     21  C   UNL     1       1.790  -4.072   0.915  0.00  0.00    -0.018 A 
ATOM     22  C   UNL     1       2.973  -4.390   1.556  0.00  0.00    +0.055 A 
ATOM     23  C   UNL     1       2.961  -5.229   2.660  0.00  0.00    +0.165 A 
ATOM     24  C   UNL     1       1.758  -5.749   3.123  0.00  0.00    +0.201 A 
ATOM     25  C   UNL     1       0.571  -5.427   2.476  0.00  0.00    +0.165 A 
ATOM     26  C   UNL     1       0.591  -4.583   1.375  0.00  0.00    +0.055 A 
BRANCH  25  27
ATOM     27  O   UNL     1      -0.608  -5.933   2.924  0.00  0.00    -0.491 OA
ATOM     28  C   UNL     1      -1.788  -5.559   2.211  0.00  0.00    +0.277 C 
ENDBRANCH  25  27
BRANCH  24  29
ATOM     29  O   UNL     1       1.743  -6.573   4.206  0.00  0.00    -0.501 OA
ATOM     30  H   UNL     1       1.640  -6.111   5.050  0.00  0.00    +0.292 HD
ENDBRANCH  24  29
BRANCH  23  31
ATOM     31  O   UNL     1       4.125  -5.542   3.290  0.00  0.00    -0.491 OA
ATOM     32  C   UNL     1       5.323  -4.971   2.759  0.00  0.00    +0.277 C 
ENDBRANCH  23  31
ENDBRANCH  16  21
TORSDOF 4
