REMARK  Name = ZINC56952856
REMARK  6 active torsions:
REMARK  status: ('A' for Active; 'I' for Inactive)
REMARK    1  A    between atoms: C_1  and  N_2
REMARK    2  A    between atoms: N_11  and  C_28
REMARK    3  A    between atoms: N_17  and  C_20
REMARK    4  A    between atoms: C_20  and  C_21
REMARK    5  A    between atoms: C_28  and  C_29
REMARK    6  A    between atoms: C_30  and  C_31
REMARK                            x       y       z     vdW  Elec       q    Type
REMARK                         _______ _______ _______ _____ _____    ______ ____
ROOT
ATOM      1  C   UNL     1      -0.018   1.460  -0.060  0.00  0.00    +0.155 C 
ATOM      2  N   UNL     1       0.002  -0.004  -0.035  0.00  0.00    -0.280 N 
ATOM      3  C   UNL     1      -1.189  -0.713  -0.014  0.00  0.00    +0.170 A 
ATOM      4  C   UNL     1      -1.141  -2.102   0.009  0.00  0.00    +0.153 A 
ATOM      5  C   UNL     1       0.108  -2.747   0.012  0.00  0.00    +0.280 A 
ATOM      6  O   UNL     1       0.174  -3.963   0.032  0.00  0.00    -0.265 OA
ATOM      7  N   UNL     1       1.234  -2.004  -0.009  0.00  0.00    -0.273 N 
ATOM      8  H   UNL     1       2.098  -2.445  -0.007  0.00  0.00    +0.173 HD
ATOM      9  C   UNL     1       1.177  -0.661  -0.036  0.00  0.00    +0.331 A 
ATOM     10  O   UNL     1       2.213  -0.024  -0.059  0.00  0.00    -0.246 OA
ATOM     11  N   UNL     1      -2.459  -2.538   0.026  0.00  0.00    -0.302 N 
ATOM     12  C   UNL     1      -3.240  -1.425   0.012  0.00  0.00    +0.201 A 
ATOM     13  N   UNL     1      -2.474  -0.354  -0.012  0.00  0.00    -0.196 NA
ATOM     14  N   UNL     1      -4.616  -1.419   0.021  0.00  0.00    -0.298 N 
ATOM     15  C   UNL     1      -5.362  -1.308   1.284  0.00  0.00    +0.123 C 
ATOM     16  C   UNL     1      -6.389  -0.179   1.144  0.00  0.00    +0.103 C 
ATOM     17  N   UNL     1      -7.216  -0.418  -0.046  0.00  0.00    -0.295 NA
ATOM     18  C   UNL     1      -6.406  -0.387  -1.272  0.00  0.00    +0.103 C 
ATOM     19  C   UNL     1      -5.380  -1.517  -1.232  0.00  0.00    +0.123 C 
ENDROOT
BRANCH  17  20
ATOM     20  C   UNL     1      -8.322   0.545  -0.121  0.00  0.00    +0.119 C 
BRANCH  20  21
ATOM     21  C   UNL     1      -9.282   0.125  -1.205  0.00  0.00    -0.033 A 
ATOM     22  C   UNL     1      -9.101   0.574  -2.500  0.00  0.00    +0.006 A 
ATOM     23  C   UNL     1      -9.981   0.189  -3.494  0.00  0.00    +0.020 A 
ATOM     24  C   UNL     1     -11.042  -0.646  -3.192  0.00  0.00    +0.041 A 
ATOM     25  C   UNL     1     -11.222  -1.095  -1.896  0.00  0.00    +0.020 A 
ATOM     26  C   UNL     1     -10.338  -0.714  -0.904  0.00  0.00    +0.006 A 
ATOM     27 CL   UNL     1     -12.148  -1.130  -4.440  0.00  0.00    -0.084 Cl
ENDBRANCH  20  21
ENDBRANCH  17  20
BRANCH  11  28
ATOM     28  C   UNL     1      -2.920  -3.929   0.053  0.00  0.00    +0.152 C 
BRANCH  28  29
ATOM     29  C   UNL     1      -2.953  -4.419   1.478  0.00  0.00    -0.005 C 
ATOM     30  C   UNL     1      -4.071  -4.926   1.978  0.00  0.00    +0.005 C 
BRANCH  30  31
ATOM     31  C   UNL     1      -4.104  -5.408   3.375  0.00  0.00    -0.025 A 
ATOM     32  C   UNL     1      -2.961  -5.325   4.172  0.00  0.00    +0.008 A 
ATOM     33  C   UNL     1      -2.998  -5.776   5.475  0.00  0.00    +0.001 A 
ATOM     34  C   UNL     1      -4.165  -6.310   5.993  0.00  0.00    +0.000 A 
ATOM     35  C   UNL     1      -5.301  -6.395   5.208  0.00  0.00    +0.001 A 
ATOM     36  C   UNL     1      -5.279  -5.942   3.905  0.00  0.00    +0.008 A 
ENDBRANCH  30  31
ENDBRANCH  28  29
ENDBRANCH  11  28
TORSDOF 5
