REMARK  Name = ZINC14551047
REMARK  8 active torsions:
REMARK  status: ('A' for Active; 'I' for Inactive)
REMARK    1  A    between atoms: C_1  and  C_2
REMARK    2  A    between atoms: C_2  and  C_3
REMARK    3  A    between atoms: C_3  and  C_5
REMARK    4  A    between atoms: C_3  and  N_6
REMARK    5  A    between atoms: N_6  and  S_7
REMARK    6  A    between atoms: S_7  and  C_10
REMARK    7  A    between atoms: C_23  and  C_26
REMARK    8  A    between atoms: C_29  and  N_32
REMARK                            x       y       z     vdW  Elec       q    Type
REMARK                         _______ _______ _______ _____ _____    ______ ____
ROOT
ATOM      1  C   UNL     1      -5.904   4.705   0.908  0.00  0.00    +0.106 A 
ATOM      2  C   UNL     1      -6.037   4.371  -0.428  0.00  0.00    +0.030 A 
ATOM      3  C   UNL     1      -5.248   3.381  -0.976  0.00  0.00    +0.025 A 
ATOM      4  C   UNL     1      -4.316   2.712  -0.193  0.00  0.00    +0.031 A 
ATOM      5  C   UNL     1      -4.177   3.065   1.154  0.00  0.00    -0.018 A 
ATOM      6  C   UNL     1      -4.974   4.050   1.694  0.00  0.00    +0.034 A 
ATOM      7  C   UNL     1      -3.142   2.361   1.941  0.00  0.00    +0.049 C 
ATOM      8  C   UNL     1      -3.245   2.204   3.414  0.00  0.00    -0.023 C 
ATOM      9  C   UNL     1      -2.656   1.066   3.762  0.00  0.00    -0.030 C 
ATOM     10  C   UNL     1      -2.133   0.346   2.517  0.00  0.00    +0.033 C 
ATOM     11  C   UNL     1      -3.069   0.891   1.430  0.00  0.00    +0.029 C 
ATOM     12  C   UNL     1      -2.514   0.980   0.019  0.00  0.00    +0.105 C 
ATOM     13  N   UNL     1      -3.538   1.699  -0.768  0.00  0.00    -0.336 N 
ATOM     14  H   UNL     1      -3.674   1.465  -1.700  0.00  0.00    +0.147 HD
ENDROOT
BRANCH  12  15
ATOM     15  C   UNL     1      -1.219   1.751   0.017  0.00  0.00    -0.027 A 
ATOM     16  C   UNL     1      -1.230   3.120  -0.171  0.00  0.00    +0.008 A 
ATOM     17  C   UNL     1      -0.043   3.828  -0.167  0.00  0.00    +0.033 A 
ATOM     18  C   UNL     1       1.156   3.166   0.020  0.00  0.00    +0.126 A 
ATOM     19  C   UNL     1       1.168   1.796   0.203  0.00  0.00    +0.033 A 
ATOM     20  C   UNL     1      -0.019   1.088   0.199  0.00  0.00    +0.008 A 
BRANCH  18  21
ATOM     21  N   UNL     1       2.427   3.925   0.024  0.00  0.00    +0.056 N 
ATOM     22  O   UNL     1       2.417   5.132  -0.136  0.00  0.00    -0.126 OA
ATOM     23  O   UNL     1       3.483   3.341   0.189  0.00  0.00    -0.126 OA
ENDBRANCH  18  21
ENDBRANCH  12  15
BRANCH   1  24
ATOM     24  S   UNL     1      -6.919   5.965   1.607  0.00  0.00    +0.059 S 
ATOM     25  O   UNL     1      -6.222   6.466   2.740  0.00  0.00    -0.153 OA
ATOM     26  O   UNL     1      -7.327   6.800   0.532  0.00  0.00    -0.153 OA
BRANCH  24  27
ATOM     27  N   UNL     1      -8.287   5.229   2.180  0.00  0.00    -0.187 NA
ATOM     28  H   UNL     1      -9.149   5.430   1.783  0.00  0.00    +0.148 HD
BRANCH  27  29
ATOM     29  C   UNL     1      -8.197   4.274   3.288  0.00  0.00    +0.073 C 
ATOM     30  C   UNL     1      -8.107   2.853   2.729  0.00  0.00    +0.025 C 
BRANCH  29  32
ATOM     31  C   UNL     1      -9.463   5.779   4.828  0.00  0.00    +0.005 C 
ATOM     32  C   UNL     1      -9.440   4.397   4.171  0.00  0.00    +0.017 C 
ENDBRANCH  29  32
ENDBRANCH  27  29
ENDBRANCH  24  27
ENDBRANCH   1  24
TORSDOF 6
