REMARK  Name = ZINC02539733
REMARK  9 active torsions:
REMARK  status: ('A' for Active; 'I' for Inactive)
REMARK    1  A    between atoms: C_1  and  C_2
REMARK    2  A    between atoms: C_11  and  O_13
REMARK    3  A    between atoms: O_13  and  C_14
REMARK    4  A    between atoms: C_16  and  N_29
REMARK    5  A    between atoms: C_18  and  O_28
REMARK    6  A    between atoms: C_20  and  O_27
REMARK    7  A    between atoms: C_22  and  C_25
REMARK    8  A    between atoms: C_25  and  O_26
REMARK    9  A    between atoms: C_30  and  C_32
REMARK                            x       y       z     vdW  Elec       q    Type
REMARK                         _______ _______ _______ _____ _____    ______ ____
ROOT
ATOM      1  C   UNL     1       2.512  -2.666  -0.036  0.00  0.00    +0.331 C 
ATOM      2  C   UNL     1       2.338  -4.165  -0.292  0.00  0.00    +0.173 C 
ATOM      3  C   UNL     1       3.710  -4.845  -0.248  0.00  0.00    +0.172 C 
ATOM      4  C   UNL     1       4.366  -4.559   1.107  0.00  0.00    +0.176 C 
ATOM      5  C   UNL     1       4.461  -3.045   1.309  0.00  0.00    +0.179 C 
ATOM      6  O   UNL     1       3.155  -2.471   1.226  0.00  0.00    -0.332 OA
ENDROOT
BRANCH   2   7
ATOM      7  N   UNL     1       1.733  -4.369  -1.611  0.00  0.00    -0.304 N 
ATOM      8  C   UNL     1       0.394  -4.322  -1.752  0.00  0.00    +0.210 C 
ATOM      9  O   UNL     1      -0.311  -4.110  -0.788  0.00  0.00    -0.276 OA
ATOM     10  C   UNL     1      -0.229  -4.532  -3.108  0.00  0.00    +0.109 C 
ATOM     11  H   UNL     1       2.296  -4.538  -2.382  0.00  0.00    +0.149 HD
ENDBRANCH   2   7
BRANCH   4  12
ATOM     12  O   UNL     1       3.575  -5.133   2.150  0.00  0.00    -0.387 OA
ATOM     13  H   UNL     1       3.932  -4.990   3.038  0.00  0.00    +0.210 HD
ENDBRANCH   4  12
BRANCH   3  14
ATOM     14  O   UNL     1       3.550  -6.255  -0.415  0.00  0.00    -0.387 OA
ATOM     15  H   UNL     1       4.380  -6.750  -0.397  0.00  0.00    +0.210 HD
ENDBRANCH   3  14
BRANCH   1  16
ATOM     16  O   UNL     1       1.231  -2.033  -0.020  0.00  0.00    -0.461 OA
BRANCH  16  27
ATOM     17  C   UNL     1       2.445   4.356   0.002  0.00  0.00    +0.045 C 
ATOM     18  C   UNL     1       1.169   3.554   0.010  0.00  0.00    -0.033 A 
ATOM     19  C   UNL     1      -0.042   4.170   0.025  0.00  0.00    +0.096 A 
ATOM     20  C   UNL     1      -1.222   3.398   0.032  0.00  0.00    +0.337 A 
ATOM     21  O   UNL     1      -2.301   3.963   0.045  0.00  0.00    -0.245 OA
ATOM     22  O   UNL     1      -1.187   2.056   0.030  0.00  0.00    -0.422 OA
ATOM     23  C   UNL     1      -0.017   1.382   0.010  0.00  0.00    +0.143 A 
ATOM     24  C   UNL     1       1.200   2.090   0.002  0.00  0.00    +0.021 A 
ATOM     25  C   UNL     1       2.414   1.395  -0.013  0.00  0.00    +0.015 A 
ATOM     26  C   UNL     1       2.415   0.030  -0.021  0.00  0.00    +0.046 A 
ATOM     27  C   UNL     1       1.214  -0.676  -0.013  0.00  0.00    +0.127 A 
ATOM     28  C   UNL     1       0.002  -0.004   0.002  0.00  0.00    +0.092 A 
ENDBRANCH  16  27
ENDBRANCH   1  16
BRANCH   5  29
ATOM     29  C   UNL     1       5.060  -2.751   2.686  0.00  0.00    +0.190 C 
BRANCH  29  30
ATOM     30  O   UNL     1       5.258  -1.343   2.829  0.00  0.00    -0.392 OA
ATOM     31  H   UNL     1       5.636  -1.083   3.680  0.00  0.00    +0.210 HD
ENDBRANCH  29  30
ENDBRANCH   5  29
TORSDOF 7
