REMARK  Name = ZINC44931973
REMARK  6 active torsions:
REMARK  status: ('A' for Active; 'I' for Inactive)
REMARK    1  A    between atoms: C_1  and  C_2
REMARK    2  A    between atoms: C_3  and  C_21
REMARK    3  A    between atoms: N_4  and  C_13
REMARK    4  A    between atoms: C_7  and  N_12
REMARK    5  A    between atoms: C_9  and  C_11
REMARK    6  A    between atoms: C_13  and  C_20
REMARK                            x       y       z     vdW  Elec       q    Type
REMARK                         _______ _______ _______ _____ _____    ______ ____
ROOT
ATOM      1  C   UNL     1      -0.302   1.483  -0.018  0.00  0.00    +0.046 C 
ATOM      2  C   UNL     1      -0.122  -0.013  -0.011  0.00  0.00    -0.017 A 
ATOM      3  C   UNL     1      -0.033  -0.814  -1.085  0.00  0.00    +0.022 A 
ATOM      4  N   UNL     1       0.126  -2.115  -0.682  0.00  0.00    -0.321 N 
ATOM      5  C   UNL     1       0.143  -2.184   0.684  0.00  0.00    +0.147 A 
ATOM      6  C   UNL     1      -0.005  -0.870   1.167  0.00  0.00    +0.062 A 
ATOM      7  C   UNL     1      -0.013  -0.661   2.555  0.00  0.00    +0.129 A 
ATOM      8  N   UNL     1       0.122  -1.716   3.353  0.00  0.00    -0.217 NA
ATOM      9  C   UNL     1       0.262  -2.932   2.857  0.00  0.00    +0.130 A 
ATOM     10  N   UNL     1       0.268  -3.176   1.564  0.00  0.00    -0.214 NA
ATOM     11  C   UNL     1       0.412  -4.088   3.811  0.00  0.00    +0.088 C 
ATOM     12  C   UNL     1      -0.098  -0.353  -2.518  0.00  0.00    +0.064 C 
ENDROOT
BRANCH   4  13
ATOM     13  C   UNL     1       0.257  -3.263  -1.582  0.00  0.00    +0.065 C 
ATOM     14  C   UNL     1       0.874  -4.426  -0.807  0.00  0.00    +0.052 C 
ATOM     15  C   UNL     1       1.666  -5.355  -1.768  0.00  0.00    +0.168 C 
ATOM     16  S   UNL     1       2.439  -4.082  -2.860  0.00  0.00    -0.029 S 
ATOM     17  O   UNL     1       2.548  -4.601  -4.178  0.00  0.00    -0.174 OA
ATOM     18  O   UNL     1       3.588  -3.550  -2.217  0.00  0.00    -0.174 OA
ATOM     19  C   UNL     1       1.084  -2.836  -2.810  0.00  0.00    +0.194 C 
ATOM     20  C   UNL     1      -1.139  -3.678  -2.052  0.00  0.00    +0.036 C 
ENDBRANCH   4  13
BRANCH   7  21
ATOM     21  N   UNL     1      -0.159   0.611   3.079  0.00  0.00    -0.343 N 
ATOM     22  H   UNL     1      -0.257   1.372   2.485  0.00  0.00    +0.144 HD
ATOM     23  H   UNL     1      -0.163   0.742   4.040  0.00  0.00    +0.144 HD
ENDBRANCH   7  21
TORSDOF 2
