REMARK  Name = ZINC01512576
REMARK  7 active torsions:
REMARK  status: ('A' for Active; 'I' for Inactive)
REMARK    1  A    between atoms: C_1  and  O_2
REMARK    2  A    between atoms: O_2  and  C_3
REMARK    3  A    between atoms: C_12  and  N_16
REMARK    4  A    between atoms: N_16  and  C_17
REMARK    5  A    between atoms: C_17  and  C_18
REMARK    6  A    between atoms: C_18  and  C_19
REMARK    7  A    between atoms: C_22  and  O_25
REMARK                            x       y       z     vdW  Elec       q    Type
REMARK                         _______ _______ _______ _____ _____    ______ ____
ROOT
ATOM      1  C   UNL     1       1.155   2.119   0.003  0.00  0.00    +0.148 A 
ATOM      2  C   UNL     1       1.758   2.454  -1.200  0.00  0.00    +0.061 A 
ATOM      3  C   UNL     1       2.991   3.089  -1.188  0.00  0.00    +0.019 A 
ATOM      4  C   UNL     1       3.625   3.390  -0.009  0.00  0.00    +0.011 A 
ATOM      5  C   UNL     1       3.036   3.062   1.232  0.00  0.00    +0.005 A 
ATOM      6  C   UNL     1       1.787   2.425   1.194  0.00  0.00    +0.065 A 
ATOM      7  S   UNL     1       1.365   2.167   2.898  0.00  0.00    -0.065 S 
ATOM      8  C   UNL     1       2.796   2.888   3.658  0.00  0.00    +0.114 A 
ATOM      9  C   UNL     1       3.585   3.317   2.579  0.00  0.00    +0.055 A 
ATOM     10  C   UNL     1       4.811   3.941   2.925  0.00  0.00    +0.131 A 
ATOM     11  N   UNL     1       5.127   4.079   4.205  0.00  0.00    -0.220 NA
ATOM     12  C   UNL     1       4.337   3.651   5.171  0.00  0.00    +0.224 A 
ATOM     13  N   UNL     1       3.185   3.063   4.907  0.00  0.00    -0.228 NA
ATOM     14 BR   UNL     1       0.908   2.051  -2.840  0.00  0.00    -0.046 Br
ENDROOT
BRANCH   1  16
ATOM     15  C   UNL     1      -0.049   0.068  -0.009  0.00  0.00    +0.277 C 
ATOM     16  O   UNL     1      -0.055   1.496   0.011  0.00  0.00    -0.493 OA
ENDBRANCH   1  16
BRANCH  10  17
ATOM     17  N   UNL     1       5.665   4.401   1.939  0.00  0.00    -0.328 N 
ATOM     18  H   UNL     1       5.469   4.223   1.006  0.00  0.00    +0.147 HD
BRANCH  17  19
ATOM     19  C   UNL     1       6.866   5.156   2.304  0.00  0.00    +0.107 C 
BRANCH  19  20
ATOM     20  C   UNL     1       7.630   5.543   1.036  0.00  0.00    +0.054 C 
BRANCH  20  21
ATOM     21  C   UNL     1       8.866   6.320   1.412  0.00  0.00    -0.046 A 
ATOM     22  C   UNL     1       8.810   7.697   1.515  0.00  0.00    +0.007 A 
ATOM     23  C   UNL     1       9.940   8.411   1.864  0.00  0.00    +0.045 A 
ATOM     24  C   UNL     1      11.134   7.746   2.101  0.00  0.00    +0.117 A 
ATOM     25  C   UNL     1      11.189   6.364   1.992  0.00  0.00    +0.045 A 
ATOM     26  C   UNL     1      10.055   5.654   1.647  0.00  0.00    +0.007 A 
BRANCH  24  27
ATOM     27  O   UNL     1      12.248   8.446   2.440  0.00  0.00    -0.507 OA
ATOM     28  H   UNL     1      12.783   8.725   1.684  0.00  0.00    +0.292 HD
ENDBRANCH  24  27
ENDBRANCH  20  21
ENDBRANCH  19  20
ENDBRANCH  17  19
ENDBRANCH  10  17
TORSDOF 6
