REMARK  Name = ZINC64538794
REMARK  10 active torsions:
REMARK  status: ('A' for Active; 'I' for Inactive)
REMARK    1  A    between atoms: C_1  and  C_2
REMARK    2  A    between atoms: C_8  and  C_11
REMARK    3  A    between atoms: C_11  and  C_12
REMARK    4  A    between atoms: C_12  and  N_13
REMARK    5  A    between atoms: C_14  and  C_16
REMARK    6  A    between atoms: C_16  and  S_17
REMARK    7  A    between atoms: S_17  and  C_18
REMARK    8  A    between atoms: C_18  and  C_19
REMARK    9  A    between atoms: C_23  and  C_26
REMARK   10  A    between atoms: N_28  and  C_29
REMARK                            x       y       z     vdW  Elec       q    Type
REMARK                         _______ _______ _______ _____ _____    ______ ____
ROOT
ATOM      1  C   UNL     1      -2.527  -2.318   7.801  0.00  0.00    +0.164 C 
ENDROOT
BRANCH   1   3
ATOM      2  N   UNL     1      -1.365  -2.566   5.632  0.00  0.00    -0.314 N 
ATOM      3  C   UNL     1      -2.526  -2.569   6.316  0.00  0.00    +0.223 C 
ATOM      4  O   UNL     1      -3.571  -2.773   5.734  0.00  0.00    -0.275 OA
ATOM      5  H   UNL     1      -0.529  -2.402   6.097  0.00  0.00    +0.149 HD
BRANCH   2   6
ATOM      6  C   UNL     1      -1.364  -2.809   4.187  0.00  0.00    +0.108 C 
BRANCH   6   7
ATOM      7  C   UNL     1       0.072  -2.752   3.661  0.00  0.00    +0.052 C 
BRANCH   7  15
ATOM      8  C   UNL     1       0.009   1.576   0.062  0.00  0.00    +0.044 C 
ATOM      9  C   UNL     1       0.029   0.070   0.043  0.00  0.00    -0.050 A 
ATOM     10  C   UNL     1       0.034  -0.598  -1.190  0.00  0.00    +0.005 A 
ATOM     11  C   UNL     1       0.051  -1.944  -1.291  0.00  0.00    +0.026 A 
ATOM     12  C   UNL     1       0.064  -2.752  -0.121  0.00  0.00    +0.043 A 
ATOM     13  N   UNL     1       0.081  -4.053   0.041  0.00  0.00    -0.380 N 
ATOM     14  C   UNL     1       0.087  -4.345   1.479  0.00  0.00    +0.144 C 
ATOM     15  C   UNL     1       0.072  -3.002   2.175  0.00  0.00    -0.040 C 
ATOM     16  C   UNL     1       0.059  -2.071   1.194  0.00  0.00    -0.001 A 
ATOM     17  C   UNL     1       0.046  -0.604   1.216  0.00  0.00    +0.013 A 
ATOM     18  H   UNL     1       0.087  -4.712  -0.670  0.00  0.00    +0.160 HD
ENDBRANCH   7  15
ENDBRANCH   6   7
ENDBRANCH   2   6
ENDBRANCH   1   3
BRANCH   1  19
ATOM     19  S   UNL     1      -4.229  -2.386   8.425  0.00  0.00    -0.148 S 
BRANCH  19  20
ATOM     20  C   UNL     1      -4.058  -2.070  10.203  0.00  0.00    +0.109 C 
BRANCH  20  21
ATOM     21  C   UNL     1      -5.438  -2.099  10.862  0.00  0.00    +0.197 C 
ATOM     22  N   UNL     1      -6.373  -1.162  10.197  0.00  0.00    -0.176 NA
ATOM     23  N   UNL     1      -7.485  -1.524   9.869  0.00  0.00    -0.167 NA
ATOM     24  C   UNL     1      -7.934  -2.912  10.124  0.00  0.00    +0.272 C 
ATOM     25  S   UNL     1      -6.309  -3.696  10.530  0.00  0.00    -0.094 S 
BRANCH  24  26
ATOM     26  C   UNL     1      -8.883  -2.976  11.294  0.00  0.00    +0.254 C 
ATOM     27  O   UNL     1      -8.521  -3.468  12.341  0.00  0.00    -0.272 OA
ATOM     28  N   UNL     1     -10.133  -2.486  11.176  0.00  0.00    -0.283 N 
ATOM     29  H   UNL     1     -10.401  -2.033  10.361  0.00  0.00    +0.155 HD
BRANCH  28  30
ATOM     30  C   UNL     1     -11.043  -2.632  12.228  0.00  0.00    +0.036 A 
ATOM     31  C   UNL     1     -12.390  -2.840  11.958  0.00  0.00    +0.023 A 
ATOM     32  C   UNL     1     -13.287  -2.984  12.998  0.00  0.00    +0.005 A 
ATOM     33  C   UNL     1     -12.848  -2.921  14.307  0.00  0.00    +0.038 A 
ATOM     34  C   UNL     1     -11.506  -2.713  14.581  0.00  0.00    +0.125 A 
ATOM     35  C   UNL     1     -10.602  -2.574  13.543  0.00  0.00    +0.061 A 
ATOM     36  F   UNL     1     -11.079  -2.651  15.861  0.00  0.00    -0.205 F 
ENDBRANCH  28  30
ENDBRANCH  24  26
ENDBRANCH  20  21
ENDBRANCH  19  20
ENDBRANCH   1  19
TORSDOF 9
