REMARK  Name = ZINC54184760
REMARK  6 active torsions:
REMARK  status: ('A' for Active; 'I' for Inactive)
REMARK    1  A    between atoms: C_1  and  C_2
REMARK    2  A    between atoms: C_2  and  C_3
REMARK    3  A    between atoms: C_3  and  C_5
REMARK    4  A    between atoms: C_3  and  N_17
REMARK    5  A    between atoms: C_5  and  C_6
REMARK    6  A    between atoms: C_8  and  C_11
REMARK                            x       y       z     vdW  Elec       q    Type
REMARK                         _______ _______ _______ _____ _____    ______ ____
ROOT
ATOM      1  C   UNL     1       1.227  -2.500  -2.628  0.00  0.00    +0.171 A 
ATOM      2  N   UNL     1       0.560  -2.661  -3.771  0.00  0.00    -0.191 NA
ATOM      3  C   UNL     1       1.378  -3.091  -4.712  0.00  0.00    +0.265 A 
ATOM      4  O   UNL     1       2.605  -3.212  -4.170  0.00  0.00    -0.332 OA
ATOM      5  N   UNL     1       2.478  -2.816  -2.813  0.00  0.00    -0.061 NA
ENDROOT
BRANCH   3   6
ATOM      6  C   UNL     1       1.016  -3.385  -6.103  0.00  0.00    +0.078 A 
ATOM      7  C   UNL     1       1.817  -3.841  -7.136  0.00  0.00    +0.022 A 
ATOM      8  C   UNL     1       1.187  -4.027  -8.345  0.00  0.00    +0.024 A 
ATOM      9  C   UNL     1      -0.139  -3.760  -8.444  0.00  0.00    +0.056 A 
ATOM     10  S   UNL     1      -0.573  -3.255  -6.902  0.00  0.00    -0.077 S 
ATOM     11 BR   UNL     1      -1.247  -3.925  -9.967  0.00  0.00    -0.043 Br
ENDBRANCH   3   6
BRANCH   1  12
ATOM     12  C   UNL     1       0.630  -2.023  -1.329  0.00  0.00    +0.063 C 
BRANCH  12  13
ATOM     13  C   UNL     1       0.718  -0.497  -1.257  0.00  0.00    -0.068 C 
BRANCH  13  14
ATOM     14  N   UNL     1       2.129  -0.090  -1.209  0.00  0.00    +0.380 N 
ATOM     15  H   UNL     1       2.601  -0.415  -2.039  0.00  0.00    -0.090 HD
ATOM     16  H   UNL     1       2.187   0.916  -1.162  0.00  0.00    -0.090 HD
ATOM     17  H   UNL     1       2.567  -0.491  -0.394  0.00  0.00    -0.090 HD
ENDBRANCH  13  14
BRANCH  13  19
ATOM     18  C   UNL     1      -0.019   1.526   0.010  0.00  0.00    +0.002 C 
ATOM     19  C   UNL     1       0.002  -0.004   0.002  0.00  0.00    -0.019 C 
ENDBRANCH  13  19
ENDBRANCH  12  13
ENDBRANCH   1  12
TORSDOF 5
