REMARK  Name = ZINC12687913
REMARK  6 active torsions:
REMARK  status: ('A' for Active; 'I' for Inactive)
REMARK    1  A    between atoms: C_1  and  C_2
REMARK    2  A    between atoms: C_3  and  C_13
REMARK    3  A    between atoms: C_5  and  C_7
REMARK    4  A    between atoms: N_15  and  N_16
REMARK    5  A    between atoms: C_17  and  C_19
REMARK    6  A    between atoms: N_24  and  C_26
REMARK                            x       y       z     vdW  Elec       q    Type
REMARK                         _______ _______ _______ _____ _____    ______ ____
ROOT
ATOM      1  N   UNL     1      -2.385   1.142  -0.011  0.00  0.00    -0.234 N 
ATOM      2  C   UNL     1      -3.557   1.807   0.004  0.00  0.00    +0.234 C 
ATOM      3  O   UNL     1      -3.566   3.020   0.002  0.00  0.00    -0.274 OA
ATOM      4  H   UNL     1      -2.377   0.172  -0.010  0.00  0.00    +0.173 HD
ENDROOT
BRANCH   2   5
ATOM      5  C   UNL     1      -4.856   1.044   0.024  0.00  0.00    +0.103 C 
ATOM      6  C   UNL     1      -5.002   0.166  -1.240  0.00  0.00    +0.110 C 
ATOM      7  C   UNL     1      -5.774   1.035  -2.209  0.00  0.00    +0.221 C 
ATOM      8  O   UNL     1      -5.859   0.839  -3.402  0.00  0.00    -0.275 OA
ATOM      9  N   UNL     1      -6.352   2.057  -1.553  0.00  0.00    -0.271 N 
ATOM     10  C   UNL     1      -6.061   2.000  -0.116  0.00  0.00    +0.127 C 
BRANCH   9  11
ATOM     11  C   UNL     1      -7.131   3.048  -2.164  0.00  0.00    +0.040 A 
ATOM     12  C   UNL     1      -7.789   3.991  -1.386  0.00  0.00    +0.027 A 
ATOM     13  C   UNL     1      -8.554   4.971  -1.988  0.00  0.00    +0.051 A 
ATOM     14  C   UNL     1      -8.676   5.010  -3.369  0.00  0.00    +0.162 A 
ATOM     15  C   UNL     1      -8.020   4.066  -4.150  0.00  0.00    +0.164 A 
ATOM     16  C   UNL     1      -7.250   3.084  -3.546  0.00  0.00    +0.073 A 
ATOM     17  O   UNL     1      -8.121   4.093  -5.507  0.00  0.00    -0.485 OA
ATOM     18  C   UNL     1      -9.197   4.861  -6.058  0.00  0.00    +0.270 C 
ATOM     19  C   UNL     1      -9.236   6.217  -5.341  0.00  0.00    +0.270 C 
ATOM     20  O   UNL     1      -9.441   5.979  -3.944  0.00  0.00    -0.485 OA
ENDBRANCH   9  11
ENDBRANCH   2   5
BRANCH   1  23
ATOM     21  C   UNL     1      -0.005   1.187  -0.046  0.00  0.00    +0.269 C 
ATOM     22  O   UNL     1       0.004  -0.030  -0.043  0.00  0.00    -0.268 OA
ATOM     23  N   UNL     1      -1.177   1.852  -0.030  0.00  0.00    -0.230 N 
ATOM     24  H   UNL     1      -1.184   2.822  -0.032  0.00  0.00    +0.173 HD
BRANCH  21  27
ATOM     25  C   UNL     1       2.859  -0.020  -0.098  0.00  0.00    +0.067 C 
ATOM     26  C   UNL     1       2.565   1.458  -0.096  0.00  0.00    +0.058 A 
ATOM     27  C   UNL     1       1.259   1.929  -0.071  0.00  0.00    +0.098 A 
ATOM     28  S   UNL     1       1.547   3.693  -0.088  0.00  0.00    -0.062 S 
ATOM     29  C   UNL     1       3.282   3.640  -0.114  0.00  0.00    +0.109 A 
ATOM     30  N   UNL     1       3.530   2.337  -0.116  0.00  0.00    -0.243 NA
BRANCH  29  31
ATOM     31  C   UNL     1       4.242   4.763  -0.134  0.00  0.00    +0.007 A 
ATOM     32  C   UNL     1       5.615   4.512  -0.154  0.00  0.00    +0.010 A 
ATOM     33  C   UNL     1       6.505   5.566  -0.179  0.00  0.00    +0.001 A 
ATOM     34  C   UNL     1       6.040   6.869  -0.173  0.00  0.00    +0.000 A 
ATOM     35  C   UNL     1       4.681   7.125  -0.148  0.00  0.00    +0.001 A 
ATOM     36  C   UNL     1       3.780   6.080  -0.128  0.00  0.00    +0.010 A 
ENDBRANCH  29  31
ENDBRANCH  21  27
ENDBRANCH   1  23
TORSDOF 5
