REMARK  Name = ZINC30769854
REMARK  8 active torsions:
REMARK  status: ('A' for Active; 'I' for Inactive)
REMARK    1  A    between atoms: C_1  and  C_2
REMARK    2  A    between atoms: C_7  and  C_23
REMARK    3  A    between atoms: C_10  and  C_12
REMARK    4  A    between atoms: C_14  and  N_22
REMARK    5  A    between atoms: C_17  and  O_18
REMARK    6  A    between atoms: O_18  and  C_19
REMARK    7  A    between atoms: C_19  and  C_20
REMARK    8  A    between atoms: C_19  and  C_21
REMARK                            x       y       z     vdW  Elec       q    Type
REMARK                         _______ _______ _______ _____ _____    ______ ____
ROOT
ATOM      1  C   UNL     1       2.107   0.901   2.905  0.00  0.00    +0.080 A 
ATOM      2  C   UNL     1       2.761  -0.293   2.591  0.00  0.00    +0.039 A 
ATOM      3  C   UNL     1       4.029  -0.535   3.092  0.00  0.00    +0.025 A 
ATOM      4  C   UNL     1       4.650   0.406   3.906  0.00  0.00    +0.026 A 
ATOM      5  C   UNL     1       4.009   1.588   4.219  0.00  0.00    +0.048 A 
ATOM      6  C   UNL     1       2.741   1.846   3.720  0.00  0.00    +0.133 A 
ENDROOT
BRANCH   1  14
ATOM      7  C   UNL     1      -1.531   1.597   1.029  0.00  0.00    +0.028 C 
ATOM      8  C   UNL     1      -1.577   0.485   2.080  0.00  0.00    +0.074 C 
ATOM      9  C   UNL     1      -2.680   0.787   3.099  0.00  0.00    +0.022 C 
ATOM     10  C   UNL     1      -2.630  -0.251   4.222  0.00  0.00    +0.004 C 
ATOM     11  C   UNL     1      -1.278  -0.169   4.935  0.00  0.00    +0.022 C 
ATOM     12  C   UNL     1      -0.159  -0.482   3.937  0.00  0.00    +0.074 C 
ATOM     13  N   UNL     1      -0.288   0.417   2.781  0.00  0.00    -0.292 N 
ATOM     14  C   UNL     1       0.756   1.167   2.374  0.00  0.00    +0.251 C 
ATOM     15  O   UNL     1       0.584   2.062   1.570  0.00  0.00    -0.270 OA
ATOM     16  C   UNL     1       1.200  -0.270   4.607  0.00  0.00    +0.028 C 
ENDBRANCH   1  14
BRANCH   3  17
ATOM     17  N   UNL     1       4.686  -1.731   2.780  0.00  0.00    -0.358 N 
ATOM     18  H   UNL     1       4.254  -2.388   2.212  0.00  0.00    +0.142 HD
ATOM     19  H   UNL     1       5.574  -1.902   3.130  0.00  0.00    +0.142 HD
ENDBRANCH   3  17
BRANCH   6  20
ATOM     20  O   UNL     1       2.115   3.011   4.026  0.00  0.00    -0.489 OA
BRANCH  20  21
ATOM     21  C   UNL     1       2.797   3.903   4.910  0.00  0.00    +0.167 C 
ATOM     22  C   UNL     1       3.792   4.749   4.113  0.00  0.00    +0.051 C 
ATOM     23  C   UNL     1       1.781   4.819   5.594  0.00  0.00    +0.051 C 
ENDBRANCH  20  21
ENDBRANCH   6  20
TORSDOF 4
