REMARK  Name = ZINC37486791
REMARK  7 active torsions:
REMARK  status: ('A' for Active; 'I' for Inactive)
REMARK    1  A    between atoms: C_1  and  O_2
REMARK    2  A    between atoms: O_2  and  C_3
REMARK    3  A    between atoms: C_3  and  C_4
REMARK    4  A    between atoms: C_4  and  N_5
REMARK    5  A    between atoms: C_6  and  N_23
REMARK    6  A    between atoms: C_7  and  N_14
REMARK    7  A    between atoms: N_14  and  C_15
REMARK                            x       y       z     vdW  Elec       q    Type
REMARK                         _______ _______ _______ _____ _____    ______ ____
ROOT
ATOM      1  N   UNL     1      -0.529  -2.852   1.178  0.00  0.00    -0.278 N 
ATOM      2  C   UNL     1       0.844  -2.915   1.254  0.00  0.00    +0.127 A 
ATOM      3  C   UNL     1       1.440  -3.111   2.470  0.00  0.00    +0.131 A 
ATOM      4  C   UNL     1       0.632  -3.243   3.613  0.00  0.00    +0.277 A 
ATOM      5  O   UNL     1       1.140  -3.418   4.708  0.00  0.00    -0.266 OA
ATOM      6  N   UNL     1      -0.709  -3.175   3.491  0.00  0.00    -0.273 N 
ATOM      7  H   UNL     1      -1.268  -3.265   4.279  0.00  0.00    +0.173 HD
ATOM      8  C   UNL     1      -1.278  -2.976   2.289  0.00  0.00    +0.331 A 
ATOM      9  O   UNL     1      -2.490  -2.913   2.204  0.00  0.00    -0.246 OA
ENDROOT
BRANCH   2  10
ATOM     10  N   UNL     1       1.610  -2.783   0.118  0.00  0.00    -0.343 N 
ATOM     11  H   UNL     1       1.182  -2.644  -0.741  0.00  0.00    +0.144 HD
ATOM     12  H   UNL     1       2.577  -2.829   0.177  0.00  0.00    +0.144 HD
ENDBRANCH   2  10
BRANCH   3  13
ATOM     13  N   UNL     1       2.849  -3.181   2.576  0.00  0.00    -0.333 N 
ATOM     14  H   UNL     1       3.403  -3.007   1.799  0.00  0.00    +0.147 HD
BRANCH  13  15
ATOM     15  C   UNL     1       3.472  -3.515   3.859  0.00  0.00    +0.093 C 
ATOM     16  C   UNL     1       3.581  -2.251   4.728  0.00  0.00    +0.046 C 
ATOM     17  C   UNL     1       4.513  -2.519   5.934  0.00  0.00    +0.168 C 
ATOM     18  S   UNL     1       5.646  -3.817   5.289  0.00  0.00    -0.029 S 
ATOM     19  O   UNL     1       6.947  -3.263   5.142  0.00  0.00    -0.174 OA
ATOM     20  O   UNL     1       5.473  -5.002   6.053  0.00  0.00    -0.174 OA
ATOM     21  C   UNL     1       4.907  -4.064   3.620  0.00  0.00    +0.188 C 
ENDBRANCH  13  15
ENDBRANCH   3  13
BRANCH   1  22
ATOM     22  C   UNL     1      -1.177  -2.642  -0.118  0.00  0.00    +0.156 C 
BRANCH  22  23
ATOM     23  C   UNL     1      -1.342  -1.141  -0.369  0.00  0.00    +0.181 C 
BRANCH  23  25
ATOM     24  C   UNL     1      -0.096   0.875  -0.724  0.00  0.00    +0.194 C 
ATOM     25  O   UNL     1      -0.054  -0.534  -0.488  0.00  0.00    -0.381 OA
ENDBRANCH  23  25
ENDBRANCH  22  23
ENDBRANCH   1  22
TORSDOF 6
