REMARK  Name = ZINC13390267
REMARK  5 active torsions:
REMARK  status: ('A' for Active; 'I' for Inactive)
REMARK    1  A    between atoms: C_1  and  S_2
REMARK    2  A    between atoms: S_2  and  C_3
REMARK    3  A    between atoms: C_3  and  C_4
REMARK    4  A    between atoms: C_7  and  C_10
REMARK    5  A    between atoms: C_21  and  C_22
REMARK                            x       y       z     vdW  Elec       q    Type
REMARK                         _______ _______ _______ _____ _____    ______ ____
ROOT
ATOM      1  C   UNL     1       1.109   5.900   0.347  0.00  0.00    +0.251 C 
ATOM      2  O   UNL     1       2.107   5.262   0.077  0.00  0.00    -0.270 OA
ATOM      3  N   UNL     1      -0.022   5.262   0.710  0.00  0.00    -0.267 N 
ATOM      4  C   UNL     1      -1.191   6.021   1.175  0.00  0.00    +0.114 C 
ATOM      5  C   UNL     1      -1.744   5.313   2.419  0.00  0.00    +0.024 C 
ATOM      6  C   UNL     1      -2.217   3.915   2.022  0.00  0.00    +0.039 C 
ATOM      7  C   UNL     1      -1.135   3.186   1.270  0.00  0.00    -0.012 A 
ATOM      8  C   UNL     1      -0.101   3.864   0.650  0.00  0.00    +0.041 A 
ATOM      9  C   UNL     1       0.880   3.160  -0.041  0.00  0.00    +0.024 A 
ATOM     10  C   UNL     1       0.830   1.781  -0.114  0.00  0.00    +0.003 A 
ATOM     11  C   UNL     1      -0.195   1.093   0.502  0.00  0.00    +0.015 A 
ATOM     12  C   UNL     1      -1.187   1.790   1.194  0.00  0.00    +0.068 A 
ENDROOT
BRANCH   1  16
ATOM     13  C   UNL     1       1.181  10.142   0.145  0.00  0.00    -0.038 A 
ATOM     14  C   UNL     1       2.352   9.444   0.381  0.00  0.00    +0.005 A 
ATOM     15  C   UNL     1       2.335   8.066   0.447  0.00  0.00    +0.013 A 
ATOM     16  C   UNL     1       1.134   7.377   0.277  0.00  0.00    +0.037 A 
ATOM     17  C   UNL     1      -0.043   8.087   0.034  0.00  0.00    +0.013 A 
ATOM     18  C   UNL     1      -0.013   9.465  -0.025  0.00  0.00    +0.005 A 
BRANCH  13  19
ATOM     19  C   UNL     1       1.206  11.648   0.074  0.00  0.00    +0.104 C 
BRANCH  19  21
ATOM     20  C   UNL     1       1.506  13.979  -1.553  0.00  0.00    +0.084 C 
ATOM     21  S   UNL     1       1.505  12.167  -1.638  0.00  0.00    -0.159 S 
ENDBRANCH  19  21
ENDBRANCH  13  19
ENDBRANCH   1  16
BRANCH  12  22
ATOM     22  C   UNL     1      -2.287   1.054   1.849  0.00  0.00    +0.387 C 
ATOM     23  O   UNL     1      -3.208   1.663   2.355  0.00  0.00    -0.241 OA
ATOM     24  O   UNL     1      -2.269  -0.292   1.885  0.00  0.00    -0.241 OA
ENDBRANCH  12  22
TORSDOF 4
