REMARK  Name = ZINC00631016
REMARK  10 active torsions:
REMARK  status: ('A' for Active; 'I' for Inactive)
REMARK    1  A    between atoms: C_1  and  C_2
REMARK    2  A    between atoms: C_7  and  C_8
REMARK    3  A    between atoms: C_12  and  C_15
REMARK    4  A    between atoms: C_18  and  O_23
REMARK    5  A    between atoms: C_19  and  O_21
REMARK    6  A    between atoms: O_21  and  C_22
REMARK    7  A    between atoms: O_23  and  C_24
REMARK    8  A    between atoms: C_24  and  C_26
REMARK    9  A    between atoms: C_30  and  C_32
REMARK   10  A    between atoms: C_30  and  C_33
REMARK                            x       y       z     vdW  Elec       q    Type
REMARK                         _______ _______ _______ _____ _____    ______ ____
ROOT
ATOM      1  C   UNL     1       0.050   1.376   0.243  0.00  0.00    +0.044 C 
ATOM      2  C   UNL     1       0.073  -0.129   0.171  0.00  0.00    -0.046 A 
ATOM      3  C   UNL     1       0.045  -0.759  -1.062  0.00  0.00    +0.028 A 
ATOM      4  C   UNL     1       0.055  -2.143  -1.120  0.00  0.00    +0.050 A 
ATOM      5  C   UNL     1       0.068  -2.887   0.051  0.00  0.00    +0.053 A 
ATOM      6  C   UNL     1       0.122  -2.257   1.281  0.00  0.00    +0.028 A 
ATOM      7  C   UNL     1       0.128  -0.873   1.335  0.00  0.00    -0.046 A 
ATOM      8  C   UNL     1       0.188  -0.174   2.669  0.00  0.00    +0.044 C 
ATOM      9  N   UNL     1      -0.041  -4.267  -0.072  0.00  0.00    -0.316 N 
ATOM     10  C   UNL     1       0.885  -5.071  -0.651  0.00  0.00    +0.017 C 
ATOM     11  C   UNL     1       1.481  -4.823  -1.831  0.00  0.00    +0.036 C 
ATOM     12  C   UNL     1       1.236  -3.622  -2.712  0.00  0.00    +0.136 C 
ATOM     13  N   UNL     1       0.089  -2.823  -2.337  0.00  0.00    -0.331 N 
ATOM     14  C   UNL     1       2.446  -5.723  -2.343  0.00  0.00    +0.163 C 
ATOM     15  O   UNL     1       2.952  -5.487  -3.423  0.00  0.00    -0.292 OA
ATOM     16  C   UNL     1       2.866  -6.957  -1.602  0.00  0.00    +0.086 C 
ATOM     17  C   UNL     1       2.680  -6.714  -0.100  0.00  0.00    -0.023 C 
ATOM     18  C   UNL     1       1.219  -6.330   0.131  0.00  0.00    +0.058 C 
ATOM     19  C   UNL     1       3.593  -5.575   0.359  0.00  0.00    +0.011 C 
ATOM     20  C   UNL     1       3.010  -7.990   0.677  0.00  0.00    +0.011 C 
ATOM     21  H   UNL     1      -0.840  -4.687   0.284  0.00  0.00    +0.152 HD
ATOM     22  H   UNL     1      -0.668  -2.760  -2.940  0.00  0.00    +0.147 HD
ENDROOT
BRANCH  12  23
ATOM     23  C   UNL     1       2.460  -2.743  -2.670  0.00  0.00    -0.019 A 
ATOM     24  C   UNL     1       2.849  -2.159  -1.479  0.00  0.00    +0.009 A 
ATOM     25  C   UNL     1       3.971  -1.352  -1.435  0.00  0.00    +0.050 A 
ATOM     26  C   UNL     1       4.708  -1.127  -2.588  0.00  0.00    +0.173 A 
ATOM     27  C   UNL     1       4.316  -1.715  -3.786  0.00  0.00    +0.163 A 
ATOM     28  C   UNL     1       3.193  -2.527  -3.822  0.00  0.00    +0.055 A 
BRANCH  27  29
ATOM     29  O   UNL     1       5.035  -1.497  -4.919  0.00  0.00    -0.491 OA
ATOM     30  C   UNL     1       4.574  -2.133  -6.113  0.00  0.00    +0.277 C 
ENDBRANCH  27  29
BRANCH  26  31
ATOM     31  O   UNL     1       5.811  -0.333  -2.547  0.00  0.00    -0.422 OA
BRANCH  31  32
ATOM     32  C   UNL     1       5.666   0.964  -2.861  0.00  0.00    +0.309 C 
ATOM     33  O   UNL     1       4.566   1.414  -3.078  0.00  0.00    -0.251 OA
ATOM     34  C   UNL     1       6.876   1.858  -2.945  0.00  0.00    +0.136 C 
ENDBRANCH  31  32
ENDBRANCH  26  31
ENDBRANCH  12  23
TORSDOF 4
