REMARK  Name = ZINC39689457
REMARK  9 active torsions:
REMARK  status: ('A' for Active; 'I' for Inactive)
REMARK    1  A    between atoms: C_1  and  C_2
REMARK    2  A    between atoms: C_6  and  C_8
REMARK    3  A    between atoms: C_8  and  C_9
REMARK    4  A    between atoms: C_9  and  N_10
REMARK    5  A    between atoms: C_11  and  C_13
REMARK    6  A    between atoms: C_24  and  C_26
REMARK    7  A    between atoms: C_27  and  C_37
REMARK    8  A    between atoms: C_30  and  C_31
REMARK    9  A    between atoms: C_33  and  C_36
REMARK                            x       y       z     vdW  Elec       q    Type
REMARK                         _______ _______ _______ _____ _____    ______ ____
ROOT
ATOM      1  C   UNL     1       2.709  -4.908   6.063  0.00  0.00    +0.100 C 
ATOM      2  C   UNL     1       1.957  -6.249   5.911  0.00  0.00    +0.121 C 
ATOM      3  N   UNL     1       3.016  -7.240   5.607  0.00  0.00    -0.296 N 
ATOM      4  C   UNL     1       4.152  -6.843   6.473  0.00  0.00    +0.115 C 
ATOM      5  C   UNL     1       4.148  -5.302   6.434  0.00  0.00    -0.004 C 
ATOM      6  C   UNL     1       5.124  -4.799   5.375  0.00  0.00    -0.010 C 
ATOM      7  C   UNL     1       6.553  -5.153   5.795  0.00  0.00    -0.082 C 
ATOM      8  N   UNL     1       6.850  -4.537   7.094  0.00  0.00    +0.379 N 
ATOM      9  C   UNL     1       5.968  -5.095   8.126  0.00  0.00    -0.082 C 
ATOM     10  C   UNL     1       4.513  -4.739   7.804  0.00  0.00    -0.010 C 
ATOM     11  C   UNL     1       2.959  -8.270   4.739  0.00  0.00    +0.252 C 
ATOM     12  O   UNL     1       3.921  -9.001   4.600  0.00  0.00    -0.270 OA
ATOM     13  H   UNL     1       7.811  -4.721   7.340  0.00  0.00    -0.086 HD
ATOM     14  H   UNL     1       6.706  -3.541   7.033  0.00  0.00    -0.086 HD
ENDROOT
BRANCH  11  15
ATOM     15  C   UNL     1       1.733  -8.508   3.959  0.00  0.00    +0.108 A 
ATOM     16  C   UNL     1       1.432  -7.972   2.682  0.00  0.00    +0.093 A 
ATOM     17  N   UNL     1       0.263  -8.411   2.324  0.00  0.00    -0.082 NA
ATOM     18  O   UNL     1      -0.245  -9.247   3.345  0.00  0.00    -0.352 OA
ATOM     19  C   UNL     1       0.661  -9.305   4.334  0.00  0.00    +0.201 A 
ATOM     20  C   UNL     1       2.315  -7.052   1.879  0.00  0.00    +0.070 C 
BRANCH  19  21
ATOM     21  C   UNL     1       0.538 -10.072   5.592  0.00  0.00    +0.152 A 
ATOM     22  C   UNL     1      -0.557 -10.888   5.969  0.00  0.00    +0.079 A 
ATOM     23  C   UNL     1      -0.290 -11.412   7.178  0.00  0.00    +0.135 A 
ATOM     24  O   UNL     1       0.912 -10.965   7.574  0.00  0.00    -0.359 OA
ATOM     25  N   UNL     1       1.426 -10.123   6.558  0.00  0.00    -0.075 NA
ATOM     26  C   UNL     1      -1.186 -12.341   7.956  0.00  0.00    +0.089 C 
ENDBRANCH  19  21
ENDBRANCH  11  15
BRANCH   1  28
ATOM     27  N   UNL     1       2.839  -2.808   4.763  0.00  0.00    -0.315 N 
ATOM     28  C   UNL     1       2.692  -4.147   4.762  0.00  0.00    +0.218 C 
ATOM     29  O   UNL     1       2.547  -4.741   3.714  0.00  0.00    -0.275 OA
ATOM     30  H   UNL     1       2.955  -2.333   5.600  0.00  0.00    +0.149 HD
BRANCH  27  31
ATOM     31  C   UNL     1       2.823  -2.068   3.498  0.00  0.00    +0.109 C 
BRANCH  31  32
ATOM     32  C   UNL     1       3.008  -0.576   3.777  0.00  0.00    +0.054 C 
BRANCH  32  38
ATOM     33  C   UNL     1       5.441   1.343  -0.152  0.00  0.00    +0.044 C 
ATOM     34  C   UNL     1       4.156   1.103   0.597  0.00  0.00    -0.050 A 
ATOM     35  C   UNL     1       2.961   1.581   0.091  0.00  0.00    +0.003 A 
ATOM     36  C   UNL     1       1.782   1.362   0.778  0.00  0.00    +0.001 A 
ATOM     37  C   UNL     1       1.797   0.663   1.971  0.00  0.00    +0.004 A 
ATOM     38  C   UNL     1       2.991   0.185   2.477  0.00  0.00    -0.046 A 
ATOM     39  C   UNL     1       4.170   0.401   1.787  0.00  0.00    +0.007 A 
ENDBRANCH  32  38
ENDBRANCH  31  32
ENDBRANCH  27  31
ENDBRANCH   1  28
TORSDOF 6
