REMARK  Name = ZINC55356922
REMARK  6 active torsions:
REMARK  status: ('A' for Active; 'I' for Inactive)
REMARK    1  A    between atoms: C_4  and  C_7
REMARK    2  A    between atoms: N_10  and  C_12
REMARK    3  A    between atoms: C_12  and  C_13
REMARK    4  A    between atoms: N_15  and  N_16
REMARK    5  A    between atoms: C_17  and  C_19
REMARK    6  A    between atoms: C_20  and  C_21
REMARK                            x       y       z     vdW  Elec       q    Type
REMARK                         _______ _______ _______ _____ _____    ______ ____
ROOT
ATOM      1  C   UNL     1       5.986  -4.022   1.331  0.00  0.00    +0.252 C 
ATOM      2  O   UNL     1       5.659  -3.318   2.262  0.00  0.00    -0.272 OA
ATOM      3  N   UNL     1       6.550  -5.224   1.560  0.00  0.00    -0.233 N 
ATOM      4  H   UNL     1       6.811  -5.787   0.815  0.00  0.00    +0.173 HD
ENDROOT
BRANCH   3   5
ATOM      5  N   UNL     1       6.758  -5.661   2.875  0.00  0.00    -0.231 N 
ATOM      6  C   UNL     1       7.322  -6.864   3.104  0.00  0.00    +0.253 C 
ATOM      7  O   UNL     1       7.650  -7.570   2.169  0.00  0.00    -0.269 OA
ATOM      8  H   UNL     1       6.496  -5.098   3.620  0.00  0.00    +0.173 HD
BRANCH   6   9
ATOM      9  C   UNL     1       7.539  -7.319   4.476  0.00  0.00    +0.069 C 
ATOM     10  C   UNL     1       8.104  -8.525   4.706  0.00  0.00    +0.015 C 
BRANCH  10  11
ATOM     11  C   UNL     1       8.322  -8.983   6.083  0.00  0.00    +0.001 A 
ATOM     12  C   UNL     1       7.947  -8.189   7.163  0.00  0.00    +0.010 A 
ATOM     13  C   UNL     1       8.153  -8.622   8.464  0.00  0.00    +0.001 A 
ATOM     14  C   UNL     1       8.725  -9.828   8.736  0.00  0.00    +0.010 A 
ATOM     15  C   UNL     1       9.128 -10.680   7.695  0.00  0.00    +0.001 A 
ATOM     16  C   UNL     1       8.933 -10.286   6.349  0.00  0.00    +0.078 A 
ATOM     17  N   UNL     1       9.307 -11.090   5.356  0.00  0.00    -0.254 NA
ATOM     18  C   UNL     1       9.855 -12.259   5.596  0.00  0.00    +0.111 A 
ATOM     19  C   UNL     1      10.071 -12.713   6.894  0.00  0.00    +0.020 A 
ATOM     20  C   UNL     1       9.721 -11.930   7.958  0.00  0.00    +0.011 A 
ENDBRANCH  10  11
ENDBRANCH   6   9
ENDBRANCH   3   5
BRANCH   1  21
ATOM     21  C   UNL     1       5.762  -3.552  -0.084  0.00  0.00    +0.265 C 
BRANCH  21  25
ATOM     22  C   UNL     1       3.699  -0.690  -0.038  0.00  0.00    +0.205 A 
ATOM     23  N   UNL     1       4.921  -0.140  -0.042  0.00  0.00    -0.108 NA
ATOM     24  N   UNL     1       5.776  -1.106  -0.059  0.00  0.00    -0.045 NA
ATOM     25  N   UNL     1       5.141  -2.225  -0.065  0.00  0.00    -0.154 N 
ATOM     26  N   UNL     1       3.873  -1.996  -0.047  0.00  0.00    -0.130 NA
BRANCH  22  30
ATOM     27  C   UNL     1      -0.017   1.379   0.010  0.00  0.00    +0.000 A 
ATOM     28  C   UNL     1       1.169   2.092   0.002  0.00  0.00    +0.001 A 
ATOM     29  C   UNL     1       2.377   1.425  -0.013  0.00  0.00    +0.012 A 
ATOM     30  C   UNL     1       2.402   0.033  -0.021  0.00  0.00    +0.023 A 
ATOM     31  C   UNL     1       1.205  -0.680  -0.013  0.00  0.00    +0.012 A 
ATOM     32  C   UNL     1       0.002  -0.004   0.002  0.00  0.00    +0.001 A 
ENDBRANCH  22  30
ENDBRANCH  21  25
ENDBRANCH   1  21
TORSDOF 6
