REMARK  Name = ZINC12776621
REMARK  10 active torsions:
REMARK  status: ('A' for Active; 'I' for Inactive)
REMARK    1  A    between atoms: C_1  and  C_2
REMARK    2  A    between atoms: C_2  and  C_34
REMARK    3  A    between atoms: C_9  and  C_21
REMARK    4  A    between atoms: C_17  and  C_19
REMARK    5  A    between atoms: C_17  and  C_20
REMARK    6  A    between atoms: N_23  and  C_24
REMARK    7  A    between atoms: C_24  and  C_25
REMARK    8  A    between atoms: C_25  and  C_26
REMARK    9  A    between atoms: C_31  and  O_32
REMARK   10  A    between atoms: O_32  and  C_33
REMARK                            x       y       z     vdW  Elec       q    Type
REMARK                         _______ _______ _______ _____ _____    ______ ____
ROOT
ATOM      1  C   UNL     1       0.499   1.139  -3.321  0.00  0.00    +0.074 C 
ATOM      2  C   UNL     1      -0.354   0.706  -2.126  0.00  0.00    +0.166 C 
ATOM      3  O   UNL     1       0.352  -0.292  -1.364  0.00  0.00    -0.341 OA
ATOM      4  C   UNL     1       0.002  -0.004   0.002  0.00  0.00    +0.187 C 
ATOM      5  C   UNL     1      -0.019   1.545   0.011  0.00  0.00    +0.191 C 
ATOM      6  O   UNL     1      -0.610   1.837  -1.282  0.00  0.00    -0.340 OA
ATOM      7  C   UNL     1       1.386   2.140   0.000  0.00  0.00    +0.238 C 
ATOM      8  O   UNL     1       2.281   1.499   0.916  0.00  0.00    -0.333 OA
ATOM      9  C   UNL     1       2.394   0.116   0.628  0.00  0.00    +0.286 C 
ATOM     10  C   UNL     1       1.017  -0.507   0.987  0.00  0.00    +0.209 C 
ATOM     11  O   UNL     1       1.341  -1.898   0.958  0.00  0.00    -0.338 OA
ATOM     12  C   UNL     1       2.648  -1.948   1.583  0.00  0.00    +0.168 C 
ATOM     13  O   UNL     1       3.283  -0.659   1.424  0.00  0.00    -0.318 OA
ATOM     14  C   UNL     1       2.496  -2.268   3.071  0.00  0.00    +0.074 C 
ATOM     15  C   UNL     1       3.500  -3.025   0.908  0.00  0.00    +0.074 C 
ATOM     16  C   UNL     1      -1.681   0.129  -2.624  0.00  0.00    +0.074 C 
ENDROOT
BRANCH   7  17
ATOM     17  C   UNL     1       1.295   3.602   0.357  0.00  0.00    +0.245 C 
ATOM     18  O   UNL     1       1.798   4.008   1.383  0.00  0.00    -0.273 OA
ATOM     19  N   UNL     1       0.654   4.457  -0.464  0.00  0.00    -0.313 N 
ATOM     20  H   UNL     1       0.252   4.132  -1.284  0.00  0.00    +0.149 HD
BRANCH  19  21
ATOM     21  C   UNL     1       0.565   5.878  -0.117  0.00  0.00    +0.109 C 
BRANCH  21  22
ATOM     22  C   UNL     1      -0.207   6.622  -1.208  0.00  0.00    +0.057 C 
BRANCH  22  23
ATOM     23  C   UNL     1      -0.298   8.083  -0.851  0.00  0.00    -0.004 A 
ATOM     24  C   UNL     1      -1.416   8.567  -0.198  0.00  0.00    +0.007 A 
ATOM     25  C   UNL     1      -1.498   9.906   0.134  0.00  0.00    +0.000 A 
ATOM     26  C   UNL     1      -0.468  10.767  -0.195  0.00  0.00    +0.004 A 
ATOM     27  C   UNL     1       0.649  10.290  -0.852  0.00  0.00    +0.046 A 
ATOM     28  C   UNL     1       0.737   8.945  -1.182  0.00  0.00    +0.123 A 
BRANCH  28  29
ATOM     29  O   UNL     1       1.835   8.472  -1.829  0.00  0.00    -0.495 OA
ATOM     30  C   UNL     1       2.861   9.416  -2.139  0.00  0.00    +0.277 C 
ENDBRANCH  28  29
ENDBRANCH  22  23
ENDBRANCH  21  22
ENDBRANCH  19  21
ENDBRANCH   7  17
TORSDOF 5
