REMARK  Name = ZINC63007544
REMARK  6 active torsions:
REMARK  status: ('A' for Active; 'I' for Inactive)
REMARK    1  A    between atoms: C_1  and  O_2
REMARK    2  A    between atoms: O_2  and  C_3
REMARK    3  A    between atoms: C_8  and  N_10
REMARK    4  A    between atoms: C_11  and  C_13
REMARK    5  A    between atoms: C_16  and  N_20
REMARK    6  A    between atoms: N_20  and  N_21
REMARK                            x       y       z     vdW  Elec       q    Type
REMARK                         _______ _______ _______ _____ _____    ______ ____
ROOT
ATOM      1  C   UNL     1       0.435  -3.971  -2.362  0.00  0.00    +0.042 A 
ATOM      2  C   UNL     1      -0.880  -3.577  -2.626  0.00  0.00    +0.053 A 
ATOM      3  C   UNL     1      -1.553  -4.105  -3.706  0.00  0.00    +0.149 A 
ATOM      4  C   UNL     1      -0.924  -5.032  -4.535  0.00  0.00    +0.112 A 
ATOM      5  C   UNL     1       0.386  -5.427  -4.275  0.00  0.00    +0.149 A 
ATOM      6  C   UNL     1       1.066  -4.896  -3.199  0.00  0.00    +0.053 A 
ATOM      7  F   UNL     1       0.992  -6.326  -5.080  0.00  0.00    -0.203 F 
ATOM      8  F   UNL     1      -2.824  -3.725  -3.961  0.00  0.00    -0.203 F 
ENDROOT
BRANCH   1  10
ATOM      9  N   UNL     1       0.549  -2.516  -0.400  0.00  0.00    -0.306 N 
ATOM     10  C   UNL     1       1.158  -3.408  -1.207  0.00  0.00    +0.245 C 
ATOM     11  O   UNL     1       2.304  -3.748  -0.981  0.00  0.00    -0.270 OA
ATOM     12  H   UNL     1      -0.365  -2.245  -0.580  0.00  0.00    +0.149 HD
BRANCH   9  17
ATOM     13  C   UNL     1       0.673  -0.582   1.123  0.00  0.00    +0.138 C 
ATOM     14  C   UNL     1      -0.335  -0.898   2.255  0.00  0.00    +0.033 C 
ATOM     15  C   UNL     1       0.388  -2.008   3.058  0.00  0.00    +0.004 C 
ATOM     16  C   UNL     1       1.082  -2.864   1.979  0.00  0.00    +0.025 C 
ATOM     17  C   UNL     1       1.267  -1.956   0.747  0.00  0.00    +0.102 C 
BRANCH  13  19
ATOM     18  C   UNL     1      -0.017   1.425   0.010  0.00  0.00    +0.194 C 
ATOM     19  O   UNL     1       0.002  -0.004   0.002  0.00  0.00    -0.378 OA
ENDBRANCH  13  19
ENDBRANCH   9  17
ENDBRANCH   1  10
BRANCH   4  20
ATOM     20  N   UNL     1      -1.608  -5.565  -5.627  0.00  0.00    -0.278 N 
ATOM     21  H   UNL     1      -2.571  -5.468  -5.690  0.00  0.00    +0.166 HD
BRANCH  20  22
ATOM     22  N   UNL     1      -0.921  -6.223  -6.607  0.00  0.00    -0.256 NA
ATOM     23  H   UNL     1      -1.546  -6.551  -7.328  0.00  0.00    +0.140 HD
ATOM     24  H   UNL     1      -0.196  -5.639  -6.995  0.00  0.00    +0.140 HD
ENDBRANCH  20  22
ENDBRANCH   4  20
TORSDOF 5
