REMARK  Name = ZINC39639377
REMARK  9 active torsions:
REMARK  status: ('A' for Active; 'I' for Inactive)
REMARK    1  A    between atoms: C_1  and  C_2
REMARK    2  A    between atoms: C_5  and  C_8
REMARK    3  A    between atoms: C_8  and  C_10
REMARK    4  A    between atoms: C_8  and  N_11
REMARK    5  A    between atoms: C_12  and  C_14
REMARK    6  A    between atoms: C_25  and  C_27
REMARK    7  A    between atoms: C_28  and  C_38
REMARK    8  A    between atoms: C_31  and  C_32
REMARK    9  A    between atoms: C_34  and  C_37
REMARK                            x       y       z     vdW  Elec       q    Type
REMARK                         _______ _______ _______ _____ _____    ______ ____
ROOT
ATOM      1  C   UNL     1       2.460  -6.468   1.999  0.00  0.00    +0.100 C 
ATOM      2  C   UNL     1       3.759  -5.631   2.021  0.00  0.00    +0.121 C 
ATOM      3  N   UNL     1       4.829  -6.610   2.326  0.00  0.00    -0.296 N 
ATOM      4  C   UNL     1       4.453  -7.820   1.556  0.00  0.00    +0.115 C 
ATOM      5  C   UNL     1       2.920  -7.904   1.693  0.00  0.00    -0.004 C 
ATOM      6  C   UNL     1       2.300  -8.389   0.386  0.00  0.00    -0.010 C 
ATOM      7  C   UNL     1       2.725  -9.838   0.133  0.00  0.00    -0.082 C 
ATOM      8  N   UNL     1       2.284 -10.682   1.250  0.00  0.00    +0.379 N 
ATOM      9  C   UNL     1       2.957 -10.267   2.487  0.00  0.00    -0.082 C 
ATOM     10  C   UNL     1       2.542  -8.836   2.840  0.00  0.00    -0.010 C 
ATOM     11  C   UNL     1       5.902  -6.439   3.124  0.00  0.00    +0.252 C 
ATOM     12  O   UNL     1       6.699  -7.345   3.274  0.00  0.00    -0.270 OA
ATOM     13  H   UNL     1       1.286 -10.592   1.365  0.00  0.00    -0.086 HD
ATOM     14  H   UNL     1       2.512 -11.645   1.052  0.00  0.00    -0.086 HD
ENDROOT
BRANCH  11  15
ATOM     15  C   UNL     1       6.109  -5.154   3.813  0.00  0.00    +0.108 A 
ATOM     16  C   UNL     1       5.631  -4.804   5.101  0.00  0.00    +0.093 A 
ATOM     17  N   UNL     1       6.017  -3.591   5.361  0.00  0.00    -0.082 NA
ATOM     18  O   UNL     1       6.759  -3.101   4.260  0.00  0.00    -0.352 OA
ATOM     19  C   UNL     1       6.814  -4.063   3.326  0.00  0.00    +0.201 A 
ATOM     20  C   UNL     1       4.816  -5.687   6.011  0.00  0.00    +0.070 C 
BRANCH  19  21
ATOM     21  C   UNL     1       7.498  -3.975   2.017  0.00  0.00    +0.152 A 
ATOM     22  C   UNL     1       8.222  -2.860   1.526  0.00  0.00    +0.079 A 
ATOM     23  C   UNL     1       8.689  -3.173   0.305  0.00  0.00    +0.135 A 
ATOM     24  O   UNL     1       8.296  -4.421   0.010  0.00  0.00    -0.359 OA
ATOM     25  N   UNL     1       7.547  -4.918   1.105  0.00  0.00    -0.075 NA
ATOM     26  C   UNL     1       9.513  -2.275  -0.581  0.00  0.00    +0.089 C 
ENDBRANCH  19  21
ENDBRANCH  11  15
BRANCH   1  28
ATOM     27  N   UNL     1       0.201  -6.111   1.058  0.00  0.00    -0.308 N 
ATOM     28  C   UNL     1       1.534  -5.972   0.919  0.00  0.00    +0.219 C 
ATOM     29  O   UNL     1       1.989  -5.448  -0.076  0.00  0.00    -0.275 OA
ATOM     30  H   UNL     1      -0.163  -6.530   1.853  0.00  0.00    +0.149 HD
BRANCH  27  31
ATOM     31  C   UNL     1      -0.699  -5.628   0.007  0.00  0.00    +0.100 C 
ATOM     32  C   UNL     1      -0.848  -6.703  -1.071  0.00  0.00    +0.033 C 
BRANCH  31  37
ATOM     33  C   UNL     1      -5.879  -4.466   2.289  0.00  0.00    +0.044 C 
ATOM     34  C   UNL     1      -4.528  -4.769   1.694  0.00  0.00    -0.050 A 
ATOM     35  C   UNL     1      -3.991  -3.929   0.736  0.00  0.00    +0.004 A 
ATOM     36  C   UNL     1      -2.752  -4.207   0.190  0.00  0.00    +0.006 A 
ATOM     37  C   UNL     1      -2.050  -5.324   0.603  0.00  0.00    -0.027 A 
ATOM     38  C   UNL     1      -2.587  -6.163   1.562  0.00  0.00    +0.006 A 
ATOM     39  C   UNL     1      -3.824  -5.883   2.111  0.00  0.00    +0.004 A 
ENDBRANCH  31  37
ENDBRANCH  27  31
ENDBRANCH   1  28
TORSDOF 5
