REMARK  Name = ZINC38712276
REMARK  1 active torsions:
REMARK  status: ('A' for Active; 'I' for Inactive)
REMARK    1  A    between atoms: C_4  and  C_7
REMARK                            x       y       z     vdW  Elec       q    Type
REMARK                         _______ _______ _______ _____ _____    ______ ____
ROOT
ATOM      1  C   UNL     1       3.711  -0.707  -0.038  0.00  0.00    +0.047 C 
ATOM      2  C   UNL     1       3.791  -1.592  -1.285  0.00  0.00    +0.105 C 
ATOM      3  C   UNL     1       4.933  -2.559  -1.185  0.00  0.00    +0.219 C 
ATOM      4  O   UNL     1       5.349  -3.062  -2.207  0.00  0.00    -0.275 OA
ATOM      5  N   UNL     1       5.520  -2.898  -0.028  0.00  0.00    -0.273 N 
ATOM      6  C   UNL     1       5.149  -2.308   1.146  0.00  0.00    +0.117 C 
ATOM      7  N   UNL     1       5.931  -2.346   2.187  0.00  0.00    -0.205 NA
ATOM      8  C   UNL     1       5.652  -1.683   3.315  0.00  0.00    +0.206 C 
ATOM      9  N   UNL     1       4.582  -0.910   3.432  0.00  0.00    -0.147 NA
ATOM     10  C   UNL     1       3.686  -0.809   2.460  0.00  0.00    +0.250 C 
ATOM     11  O   UNL     1       2.741  -0.057   2.595  0.00  0.00    -0.273 OA
ATOM     12  C   UNL     1       3.817  -1.605   1.199  0.00  0.00    +0.148 C 
ATOM     13  N   UNL     1       6.497  -1.807   4.382  0.00  0.00    -0.329 N 
ATOM     14  H   UNL     1       6.218  -3.572  -0.025  0.00  0.00    +0.156 HD
ATOM     15  H   UNL     1       7.285  -2.369   4.314  0.00  0.00    +0.145 HD
ATOM     16  H   UNL     1       6.310  -1.333   5.208  0.00  0.00    +0.145 HD
ENDROOT
BRANCH   1  20
ATOM     17  C   UNL     1      -0.017   1.378   0.010  0.00  0.00    +0.000 A 
ATOM     18  C   UNL     1       1.171   2.086   0.002  0.00  0.00    +0.000 A 
ATOM     19  C   UNL     1       2.377   1.411  -0.013  0.00  0.00    +0.004 A 
ATOM     20  C   UNL     1       2.396   0.029  -0.020  0.00  0.00    -0.043 A 
ATOM     21  C   UNL     1       1.208  -0.679  -0.012  0.00  0.00    +0.004 A 
ATOM     22  C   UNL     1       0.002  -0.004   0.002  0.00  0.00    +0.000 A 
ENDBRANCH   1  20
TORSDOF 1
