REMARK  Name = ZINC50226854
REMARK  7 active torsions:
REMARK  status: ('A' for Active; 'I' for Inactive)
REMARK    1  A    between atoms: C_1  and  C_2
REMARK    2  A    between atoms: C_5  and  C_7
REMARK    3  A    between atoms: C_7  and  N_8
REMARK    4  A    between atoms: N_8  and  S_9
REMARK    5  A    between atoms: S_9  and  C_12
REMARK    6  A    between atoms: C_15  and  N_21
REMARK    7  A    between atoms: C_16  and  N_18
REMARK                            x       y       z     vdW  Elec       q    Type
REMARK                         _______ _______ _______ _____ _____    ______ ____
ROOT
ATOM      1  S   UNL     1       2.496  -6.317  -2.022  0.00  0.00    +0.059 S 
ATOM      2  O   UNL     1       2.594  -6.813  -3.350  0.00  0.00    -0.153 OA
ATOM      3  O   UNL     1       3.637  -6.096  -1.205  0.00  0.00    -0.153 OA
ENDROOT
BRANCH   1   4
ATOM      4  C   UNL     1       1.457  -7.436  -1.143  0.00  0.00    +0.108 A 
ATOM      5  C   UNL     1       1.548  -7.525   0.234  0.00  0.00    +0.030 A 
ATOM      6  C   UNL     1       0.735  -8.400   0.926  0.00  0.00    +0.027 A 
ATOM      7  C   UNL     1      -0.176  -9.192   0.238  0.00  0.00    +0.055 A 
ATOM      8  C   UNL     1      -0.265  -9.100  -1.145  0.00  0.00    +0.149 A 
ATOM      9  C   UNL     1       0.548  -8.219  -1.831  0.00  0.00    +0.063 A 
BRANCH   8  10
ATOM     10  N   UNL     1      -1.233  -9.942  -1.883  0.00  0.00    +0.058 N 
ATOM     11  O   UNL     1      -1.434 -11.081  -1.532  0.00  0.00    -0.126 OA
ATOM     12  O   UNL     1      -1.823  -9.490  -2.836  0.00  0.00    -0.126 OA
ENDBRANCH   8  10
BRANCH   7  13
ATOM     13  N   UNL     1      -1.000 -10.079   0.935  0.00  0.00    -0.356 N 
ATOM     14  H   UNL     1      -0.854 -10.234   1.881  0.00  0.00    +0.142 HD
ATOM     15  H   UNL     1      -1.718 -10.539   0.473  0.00  0.00    +0.142 HD
ENDBRANCH   7  13
ENDBRANCH   1   4
BRANCH   1  16
ATOM     16  N   UNL     1       1.693  -4.872  -2.114  0.00  0.00    -0.185 NA
ATOM     17  H   UNL     1       1.411  -4.528  -2.977  0.00  0.00    +0.148 HD
BRANCH  16  18
ATOM     18  C   UNL     1       1.407  -4.113  -0.894  0.00  0.00    +0.148 C 
BRANCH  18  23
ATOM     19  C   UNL     1       0.904   1.377  -2.194  0.00  0.00    +0.051 C 
ATOM     20  C   UNL     1       0.776  -0.090  -1.877  0.00  0.00    -0.013 A 
ATOM     21  C   UNL     1      -0.338  -0.861  -1.835  0.00  0.00    +0.011 A 
ATOM     22  C   UNL     1      -0.215  -2.200  -1.518  0.00  0.00    +0.013 A 
ATOM     23  C   UNL     1       1.016  -2.704  -1.258  0.00  0.00    +0.005 A 
ATOM     24  S   UNL     1       2.054  -1.267  -1.467  0.00  0.00    -0.097 S 
ENDBRANCH  18  23
ENDBRANCH  16  18
ENDBRANCH   1  16
TORSDOF 6
