REMARK  Name = ZINC12430268
REMARK  8 active torsions:
REMARK  status: ('A' for Active; 'I' for Inactive)
REMARK    1  A    between atoms: C_1  and  C_2
REMARK    2  A    between atoms: C_7  and  C_8
REMARK    3  A    between atoms: C_9  and  C_21
REMARK    4  A    between atoms: N_11  and  C_13
REMARK    5  A    between atoms: C_21  and  N_50
REMARK    6  A    between atoms: C_22  and  N_50
REMARK    7  A    between atoms: C_23  and  C_24
REMARK    8  A    between atoms: C_23  and  N_50
REMARK                            x       y       z     vdW  Elec       q    Type
REMARK                         _______ _______ _______ _____ _____    ______ ____
ROOT
ATOM      1  C   UNL     1       1.273  -2.184   0.186  0.00  0.00    +0.095 A 
ATOM      2  C   UNL     1       2.395  -2.971  -0.142  0.00  0.00    -0.018 A 
ATOM      3  C   UNL     1       1.975  -4.245  -0.304  0.00  0.00    +0.117 A 
ATOM      4  N   UNL     1       0.633  -4.271  -0.096  0.00  0.00    -0.236 N 
ATOM      5  N   UNL     1       0.216  -2.969   0.209  0.00  0.00    -0.166 NA
ENDROOT
BRANCH   4   6
ATOM      6  C   UNL     1      -0.191  -5.404  -0.172  0.00  0.00    +0.101 A 
ATOM      7  C   UNL     1       0.354  -6.640  -0.491  0.00  0.00    +0.033 A 
ATOM      8  C   UNL     1      -0.458  -7.755  -0.562  0.00  0.00    +0.040 A 
ATOM      9  C   UNL     1      -1.818  -7.639  -0.325  0.00  0.00    +0.126 A 
ATOM     10  C   UNL     1      -2.366  -6.407  -0.011  0.00  0.00    +0.078 A 
ATOM     11  C   UNL     1      -1.556  -5.289   0.065  0.00  0.00    +0.151 A 
ATOM     12  F   UNL     1      -2.091  -4.086   0.371  0.00  0.00    -0.203 F 
ATOM     13  F   UNL     1      -2.611  -8.730  -0.400  0.00  0.00    -0.205 F 
ENDBRANCH   4   6
BRANCH   1  20
ATOM     14  C   UNL     1      -0.083  -1.145   2.520  0.00  0.00    +0.044 C 
ATOM     15  C   UNL     1       0.630  -0.215   1.573  0.00  0.00    -0.041 A 
ATOM     16  C   UNL     1       0.640   1.144   1.816  0.00  0.00    +0.004 A 
ATOM     17  C   UNL     1       1.294   1.999   0.948  0.00  0.00    +0.000 A 
ATOM     18  C   UNL     1       1.942   1.498  -0.168  0.00  0.00    +0.001 A 
ATOM     19  C   UNL     1       1.939   0.142  -0.420  0.00  0.00    +0.010 A 
ATOM     20  C   UNL     1       1.281  -0.725   0.452  0.00  0.00    +0.005 A 
ENDBRANCH   1  20
BRANCH   2  21
ATOM     21  C   UNL     1       3.812  -2.480  -0.285  0.00  0.00    -0.039 C 
BRANCH  21  23
ATOM     22  C   UNL     1       4.510  -3.453   1.820  0.00  0.00    -0.095 C 
ATOM     23  N   UNL     1       4.355  -2.195   1.060  0.00  0.00    +0.385 N 
ATOM     24  H   UNL     1       3.701  -1.581   1.560  0.00  0.00    -0.081 HD
BRANCH  23  25
ATOM     25  C   UNL     1       5.660  -1.511   0.943  0.00  0.00    -0.001 C 
BRANCH  25  26
ATOM     26  C   UNL     1       6.085  -1.037   2.309  0.00  0.00    +0.115 A 
ATOM     27  N   UNL     1       7.237  -0.345   2.593  0.00  0.00    -0.295 N 
ATOM     28  H   UNL     1       7.913  -0.080   1.950  0.00  0.00    +0.172 HD
ATOM     29  C   UNL     1       7.268  -0.097   3.918  0.00  0.00    +0.341 A 
ATOM     30  O   UNL     1       8.144   0.497   4.520  0.00  0.00    -0.245 OA
ATOM     31  N   UNL     1       6.149  -0.628   4.453  0.00  0.00    -0.227 N 
ATOM     32  H   UNL     1       5.894  -0.608   5.389  0.00  0.00    +0.194 HD
ATOM     33  N   UNL     1       5.421  -1.211   3.406  0.00  0.00    -0.159 NA
ENDBRANCH  25  26
ENDBRANCH  23  25
ENDBRANCH  21  23
ENDBRANCH   2  21
TORSDOF 6
