REMARK  Name = ZINC08790150
REMARK  6 active torsions:
REMARK  status: ('A' for Active; 'I' for Inactive)
REMARK    1  A    between atoms: C_1  and  C_2
REMARK    2  A    between atoms: C_4  and  C_37
REMARK    3  A    between atoms: C_13  and  C_15
REMARK    4  A    between atoms: C_15  and  C_16
REMARK    5  A    between atoms: N_21  and  C_24
REMARK    6  A    between atoms: C_24  and  C_25
REMARK                            x       y       z     vdW  Elec       q    Type
REMARK                         _______ _______ _______ _____ _____    ______ ____
ROOT
ATOM      1  C   UNL     1      -6.610   0.324  -0.220  0.00  0.00    +0.044 C 
ATOM      2  C   UNL     1      -5.351   0.212   0.600  0.00  0.00    -0.050 A 
ATOM      3  C   UNL     1      -5.178  -0.855   1.463  0.00  0.00    +0.008 A 
ATOM      4  C   UNL     1      -4.028  -0.963   2.217  0.00  0.00    -0.029 A 
ATOM      5  C   UNL     1      -3.030   0.003   2.114  0.00  0.00    +0.039 A 
ATOM      6  C   UNL     1      -3.214   1.073   1.242  0.00  0.00    -0.027 A 
ATOM      7  C   UNL     1      -4.364   1.176   0.492  0.00  0.00    +0.008 A 
ATOM      8  C   UNL     1      -1.979   1.919   1.365  0.00  0.00    +0.050 C 
ATOM      9  C   UNL     1      -1.260   2.065   0.019  0.00  0.00    +0.088 C 
ATOM     10  C   UNL     1      -0.698   3.514   0.032  0.00  0.00    +0.073 C 
ATOM     11  C   UNL     1      -1.110   4.108   1.396  0.00  0.00    -0.049 C 
ATOM     12  C   UNL     1       0.799   3.307   0.013  0.00  0.00    +0.224 C 
ATOM     13  O   UNL     1       1.629   4.191   0.009  0.00  0.00    -0.275 OA
ATOM     14  N   UNL     1       1.067   1.996   0.003  0.00  0.00    -0.237 N 
ATOM     15  C   UNL     1      -0.014   1.208   0.009  0.00  0.00    +0.225 C 
ATOM     16  O   UNL     1       0.002  -0.004   0.002  0.00  0.00    -0.275 OA
ATOM     17  C   UNL     1      -1.118   1.212   2.375  0.00  0.00    +0.211 C 
ATOM     18  O   UNL     1      -0.025   1.562   2.767  0.00  0.00    -0.277 OA
ATOM     19  N   UNL     1      -1.797   0.113   2.760  0.00  0.00    -0.286 N 
ATOM     20  C   UNL     1      -3.851  -2.129   3.155  0.00  0.00    +0.045 C 
ATOM     21  H   UNL     1      -1.467  -0.526   3.410  0.00  0.00    +0.155 HD
ATOM     22  N   UNL     1      -2.276   3.279   1.785  0.00  0.00    +0.394 N 
ATOM     23  H   UNL     1      -2.411   3.314   2.802  0.00  0.00    -0.083 HD
ATOM     24  H   UNL     1      -3.123   3.619   1.315  0.00  0.00    -0.083 HD
ENDROOT
BRANCH  11  25
ATOM     25  C   UNL     1      -1.488   5.582   1.242  0.00  0.00    +0.080 C 
BRANCH  25  26
ATOM     26  C   UNL     1      -1.768   6.173   2.600  0.00  0.00    +0.209 C 
ATOM     27  O   UNL     1      -1.673   5.483   3.593  0.00  0.00    -0.276 OA
ATOM     28  N   UNL     1      -2.122   7.469   2.711  0.00  0.00    -0.329 N 
ATOM     29  H   UNL     1      -2.198   8.021   1.917  0.00  0.00    +0.145 HD
ATOM     30  H   UNL     1      -2.302   7.849   3.585  0.00  0.00    +0.145 HD
ENDBRANCH  25  26
ENDBRANCH  11  25
BRANCH  14  31
ATOM     31  C   UNL     1       2.433   1.466  -0.015  0.00  0.00    +0.151 C 
BRANCH  31  32
ATOM     32  C   UNL     1       2.886   1.294  -1.442  0.00  0.00    -0.026 A 
ATOM     33  C   UNL     1       2.666   0.096  -2.096  0.00  0.00    +0.009 A 
ATOM     34  C   UNL     1       3.076  -0.066  -3.406  0.00  0.00    +0.050 A 
ATOM     35  C   UNL     1       3.719   0.971  -4.064  0.00  0.00    +0.166 A 
ATOM     36  C   UNL     1       3.946   2.175  -3.404  0.00  0.00    +0.167 A 
ATOM     37  C   UNL     1       3.527   2.332  -2.092  0.00  0.00    +0.054 A 
ATOM     38  O   UNL     1       4.588   3.026  -4.256  0.00  0.00    -0.453 OA
ATOM     39  C   UNL     1       4.388   2.476  -5.572  0.00  0.00    +0.466 C 
ATOM     40  O   UNL     1       4.219   1.066  -5.330  0.00  0.00    -0.453 OA
ENDBRANCH  31  32
ENDBRANCH  14  31
TORSDOF 4
