REMARK  Name = ZINC11568840
REMARK  7 active torsions:
REMARK  status: ('A' for Active; 'I' for Inactive)
REMARK    1  A    between atoms: C_1  and  C_2
REMARK    2  A    between atoms: N_6  and  C_15
REMARK    3  A    between atoms: C_10  and  N_14
REMARK    4  A    between atoms: C_15  and  C_16
REMARK    5  A    between atoms: C_16  and  C_18
REMARK    6  A    between atoms: C_16  and  O_20
REMARK    7  A    between atoms: C_18  and  O_19
REMARK                            x       y       z     vdW  Elec       q    Type
REMARK                         _______ _______ _______ _____ _____    ______ ____
ROOT
ATOM      1  C   UNL     1       1.520   2.524  -1.465  0.00  0.00    +0.062 C 
ATOM      2  C   UNL     1       1.058   2.295  -0.024  0.00  0.00    +0.256 C 
ATOM      3  C   UNL     1      -0.179   1.434  -0.025  0.00  0.00    +0.260 C 
ATOM      4  O   UNL     1      -1.278   1.947  -0.061  0.00  0.00    -0.271 OA
ATOM      5  N   UNL     1      -0.060   0.089   0.010  0.00  0.00    -0.263 N 
ATOM      6  C   UNL     1       1.224  -0.478   0.081  0.00  0.00    +0.079 A 
ATOM      7  C   UNL     1       1.419  -1.820  -0.200  0.00  0.00    +0.029 A 
ATOM      8  C   UNL     1       2.688  -2.362  -0.124  0.00  0.00    +0.025 A 
ATOM      9  C   UNL     1       3.767  -1.564   0.233  0.00  0.00    +0.028 A 
ATOM     10  C   UNL     1       3.574  -0.217   0.515  0.00  0.00    +0.070 A 
ATOM     11  C   UNL     1       2.304   0.326   0.439  0.00  0.00    +0.145 A 
ATOM     12  O   UNL     1       2.097   1.643   0.710  0.00  0.00    -0.478 OA
ENDROOT
BRANCH   9  13
ATOM     13  N   UNL     1       5.050  -2.116   0.308  0.00  0.00    -0.358 N 
ATOM     14  H   UNL     1       5.186  -3.056   0.111  0.00  0.00    +0.142 HD
ATOM     15  H   UNL     1       5.804  -1.559   0.558  0.00  0.00    +0.142 HD
ENDBRANCH   9  13
BRANCH   5  16
ATOM     16  C   UNL     1      -1.249  -0.765  -0.027  0.00  0.00    +0.147 C 
BRANCH  16  17
ATOM     17  C   UNL     1      -1.648  -1.145   1.400  0.00  0.00    +0.157 C 
BRANCH  17  18
ATOM     18  O   UNL     1      -2.055   0.026   2.110  0.00  0.00    -0.388 OA
ATOM     19  H   UNL     1      -2.855   0.441   1.760  0.00  0.00    +0.210 HD
ENDBRANCH  17  18
BRANCH  17  20
ATOM     20  C   UNL     1      -2.808  -2.143   1.357  0.00  0.00    +0.188 C 
BRANCH  20  21
ATOM     21  O   UNL     1      -3.104  -2.587   2.682  0.00  0.00    -0.392 OA
ATOM     22  H   UNL     1      -3.830  -3.223   2.731  0.00  0.00    +0.210 HD
ENDBRANCH  20  21
ENDBRANCH  17  20
ENDBRANCH  16  17
ENDBRANCH   5  16
TORSDOF 6
