REMARK  Name = ZINC01738505
REMARK  5 active torsions:
REMARK  status: ('A' for Active; 'I' for Inactive)
REMARK    1  A    between atoms: C_1  and  C_2
REMARK    2  A    between atoms: C_5  and  N_23
REMARK    3  A    between atoms: C_7  and  N_8
REMARK    4  A    between atoms: C_9  and  O_11
REMARK    5  A    between atoms: O_11  and  C_12
REMARK                            x       y       z     vdW  Elec       q    Type
REMARK                         _______ _______ _______ _____ _____    ______ ____
ROOT
ATOM      1  N   UNL     1       2.356   3.889  -0.001  0.00  0.00    -0.251 N 
ATOM      2  C   UNL     1       2.336   5.233  -0.097  0.00  0.00    +0.410 C 
ATOM      3  O   UNL     1       1.277   5.828  -0.087  0.00  0.00    -0.226 OA
ATOM      4  H   UNL     1       3.201   3.420   0.073  0.00  0.00    +0.158 HD
ENDROOT
BRANCH   1  11
ATOM      5  C   UNL     1       2.316   1.325   1.233  0.00  0.00    +0.045 C 
ATOM      6  C   UNL     1       1.091   1.915   0.581  0.00  0.00    -0.029 A 
ATOM      7  C   UNL     1      -0.095   1.208   0.571  0.00  0.00    +0.007 A 
ATOM      8  C   UNL     1      -1.217   1.745  -0.032  0.00  0.00    +0.033 A 
ATOM      9  C   UNL     1      -1.158   2.997  -0.617  0.00  0.00    +0.128 A 
ATOM     10  C   UNL     1       0.025   3.709  -0.610  0.00  0.00    +0.056 A 
ATOM     11  C   UNL     1       1.155   3.169  -0.010  0.00  0.00    +0.042 A 
BRANCH   9  12
ATOM     12  N   UNL     1      -2.364   3.571  -1.256  0.00  0.00    +0.056 N 
ATOM     13  O   UNL     1      -2.311   4.672  -1.776  0.00  0.00    -0.126 OA
ATOM     14  O   UNL     1      -3.407   2.944  -1.262  0.00  0.00    -0.126 OA
ENDBRANCH   9  12
ENDBRANCH   1  11
BRANCH   2  15
ATOM     15  O   UNL     1       3.492   5.918  -0.203  0.00  0.00    -0.410 OA
BRANCH  15  16
ATOM     16  C   UNL     1       3.410   7.269  -0.189  0.00  0.00    +0.151 A 
ATOM     17  C   UNL     1       3.459   7.988  -1.350  0.00  0.00    +0.139 A 
ATOM     18  C   UNL     1       3.370   9.389  -1.305  0.00  0.00    +0.341 A 
ATOM     19  O   UNL     1       3.415  10.019  -2.347  0.00  0.00    -0.245 OA
ATOM     20  O   UNL     1       3.238  10.053  -0.146  0.00  0.00    -0.422 OA
ATOM     21  C   UNL     1       3.183   9.408   1.039  0.00  0.00    +0.143 A 
ATOM     22  C   UNL     1       3.259   8.006   1.075  0.00  0.00    +0.060 A 
ATOM     23  C   UNL     1       3.196   7.334   2.297  0.00  0.00    +0.015 A 
ATOM     24  C   UNL     1       3.054   8.054   3.463  0.00  0.00    +0.001 A 
ATOM     25  C   UNL     1       2.973   9.438   3.426  0.00  0.00    +0.004 A 
ATOM     26  C   UNL     1       3.045  10.114   2.226  0.00  0.00    +0.047 A 
ENDBRANCH  15  16
ENDBRANCH   2  15
TORSDOF 4
