REMARK  Name = ZINC40359777
REMARK  7 active torsions:
REMARK  status: ('A' for Active; 'I' for Inactive)
REMARK    1  A    between atoms: C_1  and  C_2
REMARK    2  A    between atoms: C_2  and  N_3
REMARK    3  A    between atoms: C_5  and  C_16
REMARK    4  A    between atoms: C_10  and  C_15
REMARK    5  A    between atoms: N_18  and  C_19
REMARK    6  A    between atoms: C_21  and  C_30
REMARK    7  A    between atoms: C_26  and  C_29
REMARK                            x       y       z     vdW  Elec       q    Type
REMARK                         _______ _______ _______ _____ _____    ______ ____
ROOT
ATOM      1  C   UNL     1      -1.044  -2.046   3.220  0.00  0.00    +0.253 C 
ATOM      2  O   UNL     1       0.065  -1.994   3.716  0.00  0.00    -0.270 OA
ATOM      3  N   UNL     1      -2.079  -2.531   3.933  0.00  0.00    -0.281 N 
ATOM      4  H   UNL     1      -2.968  -2.553   3.545  0.00  0.00    +0.155 HD
ENDROOT
BRANCH   1   7
ATOM      5  N   UNL     1      -0.351  -0.746  -0.219  0.00  0.00    -0.346 N 
ATOM      6  C   UNL     1      -0.206  -1.183   1.053  0.00  0.00    +0.103 A 
ATOM      7  C   UNL     1      -1.255  -1.579   1.843  0.00  0.00    +0.100 A 
ATOM      8  C   UNL     1      -2.601  -1.520   1.260  0.00  0.00    +0.202 A 
ATOM      9  O   UNL     1      -3.585  -1.856   1.897  0.00  0.00    -0.286 OA
ATOM     10  C   UNL     1      -2.719  -1.036  -0.129  0.00  0.00    +0.046 A 
ATOM     11  C   UNL     1      -1.564  -0.648  -0.859  0.00  0.00    +0.057 A 
ATOM     12  C   UNL     1      -1.778  -0.205  -2.156  0.00  0.00    -0.008 A 
ATOM     13  C   UNL     1      -3.063  -0.155  -2.690  0.00  0.00    +0.046 A 
ATOM     14  C   UNL     1      -4.171  -0.540  -1.961  0.00  0.00    +0.021 A 
ATOM     15  C   UNL     1      -3.999  -0.978  -0.683  0.00  0.00    +0.015 A 
ATOM     16 CL   UNL     1      -3.261   0.410  -4.322  0.00  0.00    -0.083 Cl
ATOM     17  C   UNL     1      -0.713   0.261  -3.119  0.00  0.00    +0.047 C 
BRANCH   5  19
ATOM     18  C   UNL     1       1.225   1.089  -0.584  0.00  0.00    +0.027 C 
ATOM     19  C   UNL     1       0.940  -0.396  -0.819  0.00  0.00    +0.118 C 
ENDBRANCH   5  19
ENDBRANCH   1   7
BRANCH   3  20
ATOM     20  C   UNL     1      -1.874  -3.001   5.225  0.00  0.00    +0.045 A 
ATOM     21  C   UNL     1      -0.718  -2.692   5.922  0.00  0.00    +0.047 A 
ATOM     22  C   UNL     1      -0.541  -3.176   7.212  0.00  0.00    +0.041 A 
ATOM     23  N   UNL     1      -1.444  -3.926   7.799  0.00  0.00    -0.252 NA
ATOM     24  C   UNL     1      -2.583  -4.264   7.186  0.00  0.00    +0.073 A 
ATOM     25  C   UNL     1      -2.841  -3.806   5.871  0.00  0.00    +0.022 A 
ATOM     26  C   UNL     1      -4.040  -4.159   5.235  0.00  0.00    +0.015 A 
ATOM     27  C   UNL     1      -4.947  -4.936   5.891  0.00  0.00    -0.050 A 
ATOM     28  C   UNL     1      -4.699  -5.384   7.186  0.00  0.00    +0.005 A 
ATOM     29  C   UNL     1      -3.541  -5.069   7.828  0.00  0.00    +0.028 A 
ATOM     30  C   UNL     1      -6.235  -5.314   5.206  0.00  0.00    +0.044 C 
ATOM     31  C   UNL     1       0.722  -2.832   7.957  0.00  0.00    +0.065 C 
ENDBRANCH   3  20
TORSDOF 3
