REMARK  Name = ZINC41108147
REMARK  5 active torsions:
REMARK  status: ('A' for Active; 'I' for Inactive)
REMARK    1  A    between atoms: C_1  and  C_2
REMARK    2  A    between atoms: C_7  and  C_8
REMARK    3  A    between atoms: C_14  and  C_15
REMARK    4  A    between atoms: C_18  and  S_20
REMARK    5  A    between atoms: S_20  and  C_21
REMARK                            x       y       z     vdW  Elec       q    Type
REMARK                         _______ _______ _______ _____ _____    ______ ____
ROOT
ATOM      1  C   UNL     1       0.824  -0.120   2.654  0.00  0.00    +0.130 C 
ATOM      2  N   UNL     1       0.904   1.186   2.743  0.00  0.00    -0.164 NA
ATOM      3  N   UNL     1       0.621   1.837   3.924  0.00  0.00    -0.152 N 
ATOM      4  C   UNL     1       0.584   3.236   4.107  0.00  0.00    +0.153 C 
ATOM      5  N   UNL     1       0.398   4.085   3.127  0.00  0.00    -0.283 NA
ATOM      6  C   UNL     1       0.776   3.651   5.520  0.00  0.00    +0.084 C 
ATOM      7  C   UNL     1       1.427   4.836   5.853  0.00  0.00    +0.063 C 
ATOM      8  C   UNL     1       0.241   2.741   6.554  0.00  0.00    +0.273 C 
ATOM      9  O   UNL     1      -0.068   3.159   7.659  0.00  0.00    -0.268 OA
ATOM     10  N   UNL     1       0.102   1.435   6.243  0.00  0.00    -0.152 NA
ATOM     11  C   UNL     1       0.320   1.046   5.013  0.00  0.00    +0.181 C 
ATOM     12  S   UNL     1       0.325  -0.581   4.308  0.00  0.00    -0.033 S 
ATOM     13  H   UNL     1       0.277   3.760   2.221  0.00  0.00    +0.188 HD
ENDROOT
BRANCH   1  20
ATOM     14  C   UNL     1       1.623   1.064   0.139  0.00  0.00    +0.044 C 
ATOM     15  C   UNL     1       1.462  -0.429   0.266  0.00  0.00    -0.041 A 
ATOM     16  C   UNL     1       1.701  -1.245  -0.821  0.00  0.00    +0.004 A 
ATOM     17  C   UNL     1       1.553  -2.616  -0.706  0.00  0.00    +0.000 A 
ATOM     18  C   UNL     1       1.165  -3.177   0.498  0.00  0.00    +0.001 A 
ATOM     19  C   UNL     1       0.923  -2.372   1.592  0.00  0.00    +0.011 A 
ATOM     20  C   UNL     1       1.076  -0.989   1.484  0.00  0.00    +0.012 A 
ENDBRANCH   1  20
BRANCH   7  21
ATOM     21  C   UNL     1       1.748   5.106   7.186  0.00  0.00    +0.130 A 
ATOM     22  C   UNL     1       1.749   6.359   7.789  0.00  0.00    +0.050 A 
ATOM     23  C   UNL     1       2.127   6.168   9.114  0.00  0.00    +0.057 A 
ATOM     24  C   UNL     1       2.343   4.815   9.283  0.00  0.00    +0.162 A 
ATOM     25  O   UNL     1       2.107   4.192   8.118  0.00  0.00    -0.449 OA
BRANCH  24  26
ATOM     26  S   UNL     1       2.842   4.035  10.782  0.00  0.00    -0.085 S 
BRANCH  26  27
ATOM     27  C   UNL     1       3.173   2.319  10.294  0.00  0.00    +0.054 C 
ATOM     28  C   UNL     1       1.848   1.583  10.087  0.00  0.00    +0.014 C 
ATOM     29  C   UNL     1       2.128   0.136   9.675  0.00  0.00    +0.001 C 
ATOM     30  C   UNL     1       2.931  -0.561  10.775  0.00  0.00    +0.000 C 
ATOM     31  C   UNL     1       4.256   0.175  10.983  0.00  0.00    +0.001 C 
ATOM     32  C   UNL     1       3.977   1.622  11.395  0.00  0.00    +0.014 C 
ENDBRANCH  26  27
ENDBRANCH  24  26
ENDBRANCH   7  21
TORSDOF 4
