REMARK  Name = ZINC64900624
REMARK  7 active torsions:
REMARK  status: ('A' for Active; 'I' for Inactive)
REMARK    1  A    between atoms: C_1  and  C_2
REMARK    2  A    between atoms: C_5  and  S_9
REMARK    3  A    between atoms: C_7  and  C_8
REMARK    4  A    between atoms: S_9  and  C_12
REMARK    5  A    between atoms: C_12  and  C_17
REMARK    6  A    between atoms: N_19  and  N_20
REMARK    7  A    between atoms: N_23  and  C_24
REMARK                            x       y       z     vdW  Elec       q    Type
REMARK                         _______ _______ _______ _____ _____    ______ ____
ROOT
ATOM      1  C   UNL     1       2.139  -5.162   0.013  0.00  0.00    +0.169 C 
ATOM      2  C   UNL     1       2.746  -4.660  -1.313  0.00  0.00    +0.039 C 
ATOM      3  C   UNL     1       3.819  -5.720  -1.666  0.00  0.00    +0.003 C 
ATOM      4  C   UNL     1       3.145  -7.045  -1.231  0.00  0.00    +0.003 C 
ATOM      5  C   UNL     1       2.392  -6.679   0.065  0.00  0.00    +0.039 C 
ENDROOT
BRANCH   1   6
ATOM      6  C   UNL     1       2.812  -4.486   1.179  0.00  0.00    +0.257 C 
ATOM      7  O   UNL     1       3.827  -3.846   1.006  0.00  0.00    -0.272 OA
ATOM      8  N   UNL     1       2.285  -4.592   2.415  0.00  0.00    -0.231 N 
ATOM      9  H   UNL     1       1.515  -5.163   2.567  0.00  0.00    +0.173 HD
BRANCH   8  10
ATOM     10  N   UNL     1       2.848  -3.878   3.481  0.00  0.00    -0.218 N 
ATOM     11  C   UNL     1       2.390  -4.064   4.734  0.00  0.00    +0.316 C 
ATOM     12  O   UNL     1       2.814  -3.379   5.645  0.00  0.00    -0.251 OA
ATOM     13  N   UNL     1       1.461  -5.010   4.978  0.00  0.00    -0.295 N 
ATOM     14  H   UNL     1       3.568  -3.249   3.316  0.00  0.00    +0.174 HD
ATOM     15  H   UNL     1       1.177  -5.605   4.268  0.00  0.00    +0.151 HD
BRANCH  13  16
ATOM     16  C   UNL     1       0.881  -5.138   6.317  0.00  0.00    +0.075 C 
ATOM     17  C   UNL     1       0.817  -6.540   6.928  0.00  0.00    +0.024 C 
ATOM     18  C   UNL     1      -0.463  -5.859   6.439  0.00  0.00    +0.024 C 
ENDBRANCH  13  16
ENDBRANCH   8  10
ENDBRANCH   1   6
BRANCH   1  19
ATOM     19  S   UNL     1       0.356  -4.828   0.045  0.00  0.00    +0.011 S 
ATOM     20  O   UNL     1      -0.205  -5.284   1.269  0.00  0.00    -0.168 OA
ATOM     21  O   UNL     1      -0.232  -5.186  -1.198  0.00  0.00    -0.168 OA
BRANCH  19  26
ATOM     22  C   UNL     1      -0.095   1.183   0.290  0.00  0.00    +0.044 C 
ATOM     23  C   UNL     1       0.018  -0.318   0.229  0.00  0.00    -0.047 A 
ATOM     24  C   UNL     1      -0.032  -0.966  -0.992  0.00  0.00    +0.005 A 
ATOM     25  C   UNL     1       0.071  -2.343  -1.048  0.00  0.00    +0.027 A 
ATOM     26  C   UNL     1       0.225  -3.073   0.117  0.00  0.00    +0.090 A 
ATOM     27  C   UNL     1       0.277  -2.425   1.336  0.00  0.00    +0.030 A 
ATOM     28  C   UNL     1       0.178  -1.047   1.392  0.00  0.00    -0.046 A 
ATOM     29  C   UNL     1       0.239  -0.340   2.722  0.00  0.00    +0.044 C 
ENDBRANCH  19  26
ENDBRANCH   1  19
TORSDOF 5
