REMARK  Name = ZINC66859822
REMARK  7 active torsions:
REMARK  status: ('A' for Active; 'I' for Inactive)
REMARK    1  A    between atoms: C_10  and  C_11
REMARK    2  A    between atoms: C_10  and  O_26
REMARK    3  A    between atoms: C_11  and  N_12
REMARK    4  A    between atoms: N_12  and  C_13
REMARK    5  A    between atoms: C_16  and  S_22
REMARK    6  A    between atoms: C_18  and  N_19
REMARK    7  A    between atoms: S_22  and  N_25
REMARK                            x       y       z     vdW  Elec       q    Type
REMARK                         _______ _______ _______ _____ _____    ______ ____
ROOT
ATOM      1  N   UNL     1       4.802   1.459  -0.583  0.00  0.00    -0.339 N 
ATOM      2  H   UNL     1       4.485   1.738   0.290  0.00  0.00    +0.146 HD
ENDROOT
BRANCH   1   3
ATOM      3  C   UNL     1       5.478   2.365  -1.403  0.00  0.00    +0.058 A 
ATOM      4  C   UNL     1       6.033   1.938  -2.603  0.00  0.00    +0.027 A 
ATOM      5  C   UNL     1       6.699   2.837  -3.412  0.00  0.00    +0.030 A 
ATOM      6  C   UNL     1       6.815   4.161  -3.029  0.00  0.00    +0.107 A 
ATOM      7  C   UNL     1       6.264   4.589  -1.835  0.00  0.00    +0.063 A 
ATOM      8  C   UNL     1       5.591   3.697  -1.024  0.00  0.00    +0.149 A 
BRANCH   8   9
ATOM      9  N   UNL     1       4.996   4.157   0.251  0.00  0.00    +0.058 N 
ATOM     10  O   UNL     1       3.939   3.703   0.624  0.00  0.00    -0.126 OA
ATOM     11  O   UNL     1       5.567   4.987   0.919  0.00  0.00    -0.126 OA
ENDBRANCH   8   9
BRANCH   6  12
ATOM     12  S   UNL     1       7.666   5.305  -4.064  0.00  0.00    +0.056 S 
ATOM     13  O   UNL     1       8.107   6.362  -3.224  0.00  0.00    -0.153 OA
ATOM     14  O   UNL     1       8.560   4.542  -4.862  0.00  0.00    -0.153 OA
BRANCH  12  15
ATOM     15  N   UNL     1       6.548   5.956  -5.097  0.00  0.00    -0.204 NA
ATOM     16  H   UNL     1       5.620   5.679  -5.045  0.00  0.00    +0.144 HD
ATOM     17  H   UNL     1       6.821   6.616  -5.754  0.00  0.00    +0.144 HD
ENDBRANCH  12  15
ENDBRANCH   6  12
ENDBRANCH   1   3
BRANCH   1  18
ATOM     18  C   UNL     1       4.573   0.086  -1.041  0.00  0.00    +0.141 C 
BRANCH  18  28
ATOM     19  C   UNL     1       3.537  -4.770  -1.238  0.00  0.00    +0.000 A 
ATOM     20  C   UNL     1       3.308  -3.725  -2.114  0.00  0.00    +0.000 A 
ATOM     21  C   UNL     1       3.423  -2.424  -1.672  0.00  0.00    +0.007 A 
ATOM     22  C   UNL     1       3.770  -2.153  -0.355  0.00  0.00    -0.011 A 
ATOM     23  C   UNL     1       4.003  -3.193   0.516  0.00  0.00    -0.041 A 
ATOM     24  C   UNL     1       3.882  -4.503   0.071  0.00  0.00    +0.004 A 
ATOM     25  C   UNL     1       4.398  -2.974   1.953  0.00  0.00    +0.035 C 
ATOM     26  C   UNL     1       4.071  -1.548   2.389  0.00  0.00    +0.008 C 
ATOM     27  C   UNL     1       4.665  -0.579   1.360  0.00  0.00    +0.041 C 
ATOM     28  C   UNL     1       3.871  -0.709   0.062  0.00  0.00    +0.106 C 
BRANCH  28  29
ATOM     29  O   UNL     1       2.557  -0.182   0.258  0.00  0.00    -0.382 OA
ATOM     30  H   UNL     1       1.998  -0.215  -0.531  0.00  0.00    +0.211 HD
ENDBRANCH  28  29
ENDBRANCH  18  28
ENDBRANCH   1  18
TORSDOF 7
