REMARK  Name = ZINC06104747
REMARK  7 active torsions:
REMARK  status: ('A' for Active; 'I' for Inactive)
REMARK    1  A    between atoms: C_1  and  C_2
REMARK    2  A    between atoms: C_5  and  N_9
REMARK    3  A    between atoms: C_13  and  S_14
REMARK    4  A    between atoms: S_14  and  C_15
REMARK    5  A    between atoms: C_15  and  C_16
REMARK    6  A    between atoms: N_21  and  C_22
REMARK    7  A    between atoms: C_28  and  C_30
REMARK                            x       y       z     vdW  Elec       q    Type
REMARK                         _______ _______ _______ _____ _____    ______ ____
ROOT
ATOM      1  C   UNL     1      -1.812   5.008   2.795  0.00  0.00    +0.173 C 
ENDROOT
BRANCH   1   2
ATOM      2  C   UNL     1      -1.182   5.747   3.947  0.00  0.00    +0.231 C 
ATOM      3  O   UNL     1      -0.059   5.466   4.307  0.00  0.00    -0.274 OA
ATOM      4  N   UNL     1      -1.867   6.722   4.577  0.00  0.00    -0.239 N 
ATOM      5  C   UNL     1      -1.304   7.383   5.607  0.00  0.00    +0.306 C 
ATOM      6  O   UNL     1      -0.178   7.101   5.968  0.00  0.00    -0.252 OA
ATOM      7  N   UNL     1      -1.989   8.358   6.238  0.00  0.00    -0.296 N 
ATOM      8  H   UNL     1      -2.765   6.947   4.289  0.00  0.00    +0.159 HD
ATOM      9  H   UNL     1      -2.887   8.583   5.950  0.00  0.00    +0.151 HD
BRANCH   7  10
ATOM     10  C   UNL     1      -1.377   9.077   7.358  0.00  0.00    +0.077 C 
ATOM     11  C   UNL     1      -0.523  10.227   6.820  0.00  0.00    +0.022 C 
ATOM     12  C   UNL     1       0.116  10.978   7.990  0.00  0.00    +0.002 C 
ATOM     13  C   UNL     1      -0.981  11.538   8.897  0.00  0.00    +0.000 C 
ATOM     14  C   UNL     1      -1.835  10.388   9.435  0.00  0.00    +0.005 C 
ATOM     15  C   UNL     1      -2.474   9.637   8.265  0.00  0.00    +0.006 C 
ATOM     16  C   UNL     1      -3.328   8.487   8.803  0.00  0.00    +0.009 C 
ENDBRANCH   7  10
ENDBRANCH   1   2
BRANCH   1  17
ATOM     17  S   UNL     1      -0.650   3.770   2.165  0.00  0.00    -0.076 S 
BRANCH  17  22
ATOM     18  N   UNL     1      -1.240   2.070   0.019  0.00  0.00    -0.277 N 
ATOM     19  C   UNL     1      -2.309   1.867  -0.813  0.00  0.00    +0.230 A 
ATOM     20  N   UNL     1      -3.237   2.713  -0.464  0.00  0.00    -0.137 NA
ATOM     21  N   UNL     1      -2.833   3.432   0.522  0.00  0.00    -0.122 NA
ATOM     22  C   UNL     1      -1.617   3.077   0.865  0.00  0.00    +0.196 A 
BRANCH  18  27
ATOM     23  C   UNL     1       3.710  -0.709  -0.037  0.00  0.00    +0.045 C 
ATOM     24  C   UNL     1       2.396   0.029  -0.020  0.00  0.00    -0.032 A 
ATOM     25  C   UNL     1       1.208  -0.677  -0.013  0.00  0.00    +0.007 A 
ATOM     26  C   UNL     1       0.002  -0.004   0.002  0.00  0.00    +0.026 A 
ATOM     27  C   UNL     1      -0.017   1.384   0.010  0.00  0.00    +0.051 A 
ATOM     28  C   UNL     1       1.177   2.092   0.002  0.00  0.00    +0.046 A 
ATOM     29  C   UNL     1       2.381   1.413  -0.013  0.00  0.00    +0.046 A 
ATOM     30 CL   UNL     1       3.875   2.297  -0.022  0.00  0.00    -0.083 Cl
ENDBRANCH  18  27
ENDBRANCH  17  22
ENDBRANCH   1  17
TORSDOF 5
