REMARK  Name = ZINC44784257
REMARK  6 active torsions:
REMARK  status: ('A' for Active; 'I' for Inactive)
REMARK    1  A    between atoms: C_1  and  C_2
REMARK    2  A    between atoms: C_5  and  C_20
REMARK    3  A    between atoms: C_6  and  N_8
REMARK    4  A    between atoms: C_9  and  C_11
REMARK    5  A    between atoms: C_11  and  C_16
REMARK    6  A    between atoms: N_17  and  O_18
REMARK                            x       y       z     vdW  Elec       q    Type
REMARK                         _______ _______ _______ _____ _____    ______ ____
ROOT
ATOM      1  N   UNL     1      -0.153  -2.375   2.441  0.00  0.00    -0.284 N 
ATOM      2  C   UNL     1      -0.086  -1.920   3.708  0.00  0.00    +0.231 C 
ATOM      3  O   UNL     1      -0.295  -0.749   3.944  0.00  0.00    -0.274 OA
ATOM      4  H   UNL     1      -0.014  -3.316   2.255  0.00  0.00    +0.155 HD
ENDROOT
BRANCH   1  10
ATOM      5  C   UNL     1      -1.986   1.918   0.896  0.00  0.00    +0.044 C 
ATOM      6  C   UNL     1      -1.311   0.600   0.616  0.00  0.00    -0.049 A 
ATOM      7  C   UNL     1      -0.958   0.266  -0.679  0.00  0.00    +0.004 A 
ATOM      8  C   UNL     1      -0.338  -0.942  -0.941  0.00  0.00    +0.005 A 
ATOM      9  C   UNL     1      -0.070  -1.819   0.092  0.00  0.00    -0.029 A 
ATOM     10  C   UNL     1      -0.423  -1.487   1.393  0.00  0.00    +0.037 A 
ATOM     11  C   UNL     1      -1.041  -0.271   1.653  0.00  0.00    +0.027 A 
ATOM     12  C   UNL     1       0.605  -3.136  -0.194  0.00  0.00    +0.045 C 
ENDBRANCH   1  10
BRANCH   2  13
ATOM     13  C   UNL     1       0.248  -2.868   4.831  0.00  0.00    +0.105 C 
ATOM     14  C   UNL     1       1.601  -3.556   4.557  0.00  0.00    +0.024 C 
ATOM     15  C   UNL     1       2.628  -2.698   5.337  0.00  0.00    +0.001 C 
ATOM     16  C   UNL     1       1.856  -2.329   6.628  0.00  0.00    +0.001 C 
ATOM     17  C   UNL     1       0.410  -2.088   6.148  0.00  0.00    +0.024 C 
BRANCH  13  18
ATOM     18  C   UNL     1      -0.839  -3.902   4.974  0.00  0.00    +0.147 C 
ATOM     19  N   UNL     1      -1.566  -3.932   6.042  0.00  0.00    -0.076 NA
ATOM     20  N   UNL     1      -1.057  -4.815   3.967  0.00  0.00    -0.343 N 
ATOM     21  H   UNL     1      -0.447  -4.862   3.214  0.00  0.00    +0.144 HD
ATOM     22  H   UNL     1      -1.821  -5.412   4.010  0.00  0.00    +0.144 HD
BRANCH  19  23
ATOM     23  O   UNL     1      -2.587  -4.904   6.176  0.00  0.00    -0.408 OA
ATOM     24  H   UNL     1      -3.077  -4.847   7.008  0.00  0.00    +0.328 HD
ENDBRANCH  19  23
ENDBRANCH  13  18
ENDBRANCH   2  13
TORSDOF 4
