REMARK  Name = ZINC41581408
REMARK  5 active torsions:
REMARK  status: ('A' for Active; 'I' for Inactive)
REMARK    1  A    between atoms: C_1  and  C_2
REMARK    2  A    between atoms: C_2  and  C_3
REMARK    3  A    between atoms: N_7  and  C_15
REMARK    4  A    between atoms: C_15  and  C_16
REMARK    5  A    between atoms: C_19  and  C_21
REMARK                            x       y       z     vdW  Elec       q    Type
REMARK                         _______ _______ _______ _____ _____    ______ ____
ROOT
ATOM      1  C   UNL     1       0.723  -0.511   1.226  0.00  0.00    +0.137 C 
ATOM      2  C   UNL     1       0.651  -2.015   1.282  0.00  0.00    +0.233 C 
ATOM      3  O   UNL     1      -0.199  -2.526   1.980  0.00  0.00    -0.274 OA
ATOM      4  N   UNL     1       1.474  -2.808   0.604  0.00  0.00    -0.262 N 
ATOM      5  C   UNL     1       2.575  -2.413  -0.150  0.00  0.00    +0.050 A 
ATOM      6  C   UNL     1       3.123  -3.304  -1.068  0.00  0.00    +0.024 A 
ATOM      7  C   UNL     1       4.209  -2.932  -1.835  0.00  0.00    +0.002 A 
ATOM      8  C   UNL     1       4.764  -1.673  -1.701  0.00  0.00    +0.001 A 
ATOM      9  C   UNL     1       4.232  -0.779  -0.790  0.00  0.00    +0.016 A 
ATOM     10  C   UNL     1       3.145  -1.148  -0.015  0.00  0.00    +0.030 A 
ATOM     11  S   UNL     1       2.472  -0.014   1.169  0.00  0.00    -0.111 S 
ENDROOT
BRANCH   1  13
ATOM     12  C   UNL     1      -0.021   1.522  -0.022  0.00  0.00    +0.005 C 
ATOM     13  C   UNL     1       0.004  -0.008  -0.027  0.00  0.00    +0.020 C 
ENDBRANCH   1  13
BRANCH   4  14
ATOM     14  C   UNL     1       1.193  -4.245   0.655  0.00  0.00    +0.188 C 
BRANCH  14  15
ATOM     15  C   UNL     1       2.038  -4.884   1.727  0.00  0.00    +0.124 A 
ATOM     16  C   UNL     1       1.644  -5.124   2.999  0.00  0.00    +0.047 A 
ATOM     17  C   UNL     1       2.723  -5.726   3.660  0.00  0.00    +0.057 A 
ATOM     18  C   UNL     1       3.743  -5.825   2.738  0.00  0.00    +0.216 A 
ATOM     19  O   UNL     1       3.296  -5.312   1.572  0.00  0.00    -0.451 OA
BRANCH  18  20
ATOM     20  C   UNL     1       5.069  -6.391   2.978  0.00  0.00    +0.421 C 
ATOM     21  O   UNL     1       5.355  -6.833   4.084  0.00  0.00    -0.237 OA
ATOM     22  O   UNL     1       5.894  -6.423   2.073  0.00  0.00    -0.237 OA
ENDBRANCH  18  20
ENDBRANCH  14  15
ENDBRANCH   4  14
TORSDOF 4
