REMARK  Name = ZINC64653041
REMARK  8 active torsions:
REMARK  status: ('A' for Active; 'I' for Inactive)
REMARK    1  A    between atoms: C_1  and  C_2
REMARK    2  A    between atoms: C_2  and  C_3
REMARK    3  A    between atoms: C_2  and  C_4
REMARK    4  A    between atoms: C_6  and  C_9
REMARK    5  A    between atoms: C_9  and  S_10
REMARK    6  A    between atoms: S_10  and  C_11
REMARK    7  A    between atoms: C_14  and  C_17
REMARK    8  A    between atoms: N_15  and  N_16
REMARK                            x       y       z     vdW  Elec       q    Type
REMARK                         _______ _______ _______ _____ _____    ______ ____
ROOT
ATOM      1  C   UNL     1      -5.184  -4.989  -1.882  0.00  0.00    +0.209 A 
ATOM      2  N   UNL     1      -5.947  -4.453  -2.808  0.00  0.00    -0.121 NA
ATOM      3  N   UNL     1      -6.668  -5.359  -3.365  0.00  0.00    -0.127 NA
ATOM      4  C   UNL     1      -6.411  -6.529  -2.828  0.00  0.00    +0.182 A 
ATOM      5  N   UNL     1      -5.448  -6.329  -1.865  0.00  0.00    -0.224 N 
ENDROOT
BRANCH   4   6
ATOM      6  C   UNL     1      -7.033  -7.820  -3.193  0.00  0.00    +0.022 A 
ATOM      7  C   UNL     1      -6.910  -8.922  -2.345  0.00  0.00    +0.012 A 
ATOM      8  C   UNL     1      -7.494 -10.123  -2.691  0.00  0.00    +0.002 A 
ATOM      9  C   UNL     1      -8.200 -10.238  -3.875  0.00  0.00    +0.015 A 
ATOM     10  C   UNL     1      -8.325  -9.149  -4.721  0.00  0.00    +0.019 A 
ATOM     11  C   UNL     1      -7.751  -7.939  -4.383  0.00  0.00    +0.027 A 
ATOM     12 BR   UNL     1      -9.292  -9.316  -6.337  0.00  0.00    -0.050 Br
ENDBRANCH   4   6
BRANCH   5  13
ATOM     13  N   UNL     1      -4.878  -7.273  -1.060  0.00  0.00    -0.295 N 
ATOM     14  H   UNL     1      -5.401  -7.382  -0.204  0.00  0.00    +0.163 HD
ATOM     15  H   UNL     1      -4.787  -8.154  -1.543  0.00  0.00    +0.163 HD
ENDBRANCH   5  13
BRANCH   1  16
ATOM     16  S   UNL     1      -4.030  -4.139  -0.857  0.00  0.00    -0.077 S 
BRANCH  16  17
ATOM     17  C   UNL     1      -4.169  -2.408  -1.382  0.00  0.00    +0.157 C 
BRANCH  17  20
ATOM     18  C   UNL     1      -1.412  -0.526   0.013  0.00  0.00    +0.230 A 
ATOM     19  N   UNL     1      -1.953  -1.285  -0.899  0.00  0.00    -0.195 NA
ATOM     20  C   UNL     1      -3.221  -1.560  -0.574  0.00  0.00    +0.182 A 
ATOM     21  N   UNL     1      -3.503  -0.976   0.555  0.00  0.00    -0.060 NA
ATOM     22  O   UNL     1      -2.326  -0.294   0.963  0.00  0.00    -0.338 OA
BRANCH  18  24
ATOM     23  C   UNL     1      -0.019   1.526   0.010  0.00  0.00    +0.017 C 
ATOM     24  C   UNL     1       0.002  -0.004   0.002  0.00  0.00    +0.072 C 
ATOM     25  C   UNL     1       0.742  -0.511   1.242  0.00  0.00    +0.017 C 
ENDBRANCH  18  24
ENDBRANCH  17  20
ENDBRANCH  16  17
ENDBRANCH   1  16
TORSDOF 6
