REMARK  Name = ZINC16684919
REMARK  6 active torsions:
REMARK  status: ('A' for Active; 'I' for Inactive)
REMARK    1  A    between atoms: C_1  and  C_2
REMARK    2  A    between atoms: C_15  and  C_17
REMARK    3  A    between atoms: C_17  and  S_18
REMARK    4  A    between atoms: S_18  and  C_19
REMARK    5  A    between atoms: N_25  and  C_26
REMARK    6  A    between atoms: C_26  and  C_27
REMARK                            x       y       z     vdW  Elec       q    Type
REMARK                         _______ _______ _______ _____ _____    ______ ____
ROOT
ATOM      1  C   UNL     1      -1.447  -2.674   1.411  0.00  0.00    +0.029 C 
ATOM      2  C   UNL     1      -1.153  -2.157   0.002  0.00  0.00    +0.087 C 
ATOM      3  C   UNL     1      -2.224  -2.673  -0.962  0.00  0.00    +0.118 C 
ATOM      4  C   UNL     1      -2.194  -1.881  -2.242  0.00  0.00    +0.219 C 
ATOM      5  O   UNL     1      -1.712  -2.370  -3.242  0.00  0.00    -0.275 OA
ATOM      6  N   UNL     1      -2.699  -0.627  -2.286  0.00  0.00    -0.284 N 
ATOM      7  C   UNL     1      -3.179  -0.012  -1.124  0.00  0.00    +0.055 A 
ATOM      8  C   UNL     1      -4.417   0.608  -1.105  0.00  0.00    +0.025 A 
ATOM      9  C   UNL     1      -4.853   1.237   0.064  0.00  0.00    +0.002 A 
ATOM     10  C   UNL     1      -4.054   1.243   1.194  0.00  0.00    +0.002 A 
ATOM     11  C   UNL     1      -2.823   0.614   1.181  0.00  0.00    +0.025 A 
ATOM     12  C   UNL     1      -2.386  -0.024   0.030  0.00  0.00    +0.058 A 
ATOM     13  N   UNL     1      -1.156  -0.694   0.009  0.00  0.00    -0.266 N 
ATOM     14  C   UNL     1       0.002  -0.004   0.002  0.00  0.00    +0.230 C 
ATOM     15  O   UNL     1       1.061  -0.596  -0.011  0.00  0.00    -0.274 OA
ATOM     16  H   UNL     1      -2.735  -0.082  -3.241  0.00  0.00    +0.155 HD
ENDROOT
BRANCH  14  17
ATOM     17  C   UNL     1      -0.018   1.503   0.010  0.00  0.00    +0.173 C 
BRANCH  17  18
ATOM     18  S   UNL     1       1.680   2.129  -0.003  0.00  0.00    -0.077 S 
BRANCH  18  19
ATOM     19  C   UNL     1       1.366   3.863   0.010  0.00  0.00    +0.193 A 
ATOM     20  N   UNL     1       0.191   4.422   0.018  0.00  0.00    -0.145 NA
ATOM     21  N   UNL     1       0.371   5.812   0.030  0.00  0.00    -0.226 N 
ATOM     22  H   UNL     1      -0.503   6.480   0.045  0.00  0.00    +0.194 HD
ATOM     23  C   UNL     1       1.700   6.047   0.018  0.00  0.00    +0.345 A 
ATOM     24  O   UNL     1       2.237   7.140   0.019  0.00  0.00    -0.245 OA
ATOM     25  N   UNL     1       2.324   4.852   0.006  0.00  0.00    -0.266 N 
BRANCH  25  26
ATOM     26  C   UNL     1       3.773   4.642  -0.008  0.00  0.00    +0.164 C 
BRANCH  26  27
ATOM     27  C   UNL     1       4.258   4.577  -1.434  0.00  0.00    -0.028 A 
ATOM     28  C   UNL     1       4.314   3.362  -2.090  0.00  0.00    +0.005 A 
ATOM     29  C   UNL     1       4.753   3.303  -3.399  0.00  0.00    +0.000 A 
ATOM     30  C   UNL     1       5.147   4.458  -4.049  0.00  0.00    +0.000 A 
ATOM     31  C   UNL     1       5.095   5.673  -3.391  0.00  0.00    +0.000 A 
ATOM     32  C   UNL     1       4.651   5.732  -2.083  0.00  0.00    +0.005 A 
ENDBRANCH  26  27
ENDBRANCH  25  26
ENDBRANCH  18  19
ENDBRANCH  17  18
ENDBRANCH  14  17
TORSDOF 5
