REMARK  Name = ZINC63494728
REMARK  9 active torsions:
REMARK  status: ('A' for Active; 'I' for Inactive)
REMARK    1  A    between atoms: C_4  and  C_7
REMARK    2  A    between atoms: C_7  and  C_8
REMARK    3  A    between atoms: C_8  and  N_9
REMARK    4  A    between atoms: C_14  and  C_25
REMARK    5  A    between atoms: C_25  and  C_26
REMARK    6  A    between atoms: C_26  and  C_27
REMARK    7  A    between atoms: N_29  and  C_30
REMARK    8  A    between atoms: C_30  and  C_31
REMARK    9  A    between atoms: C_31  and  C_32
REMARK                            x       y       z     vdW  Elec       q    Type
REMARK                         _______ _______ _______ _____ _____    ______ ____
ROOT
ATOM      1  N   UNL     1       5.220  -1.815   1.529  0.00  0.00    -0.265 N 
ATOM      2  C   UNL     1       5.382  -3.246   1.281  0.00  0.00    +0.253 C 
ATOM      3  N   UNL     1       4.452  -3.729   0.242  0.00  0.00    -0.219 NA
ATOM      4  N   UNL     1       5.200  -4.825  -0.404  0.00  0.00    -0.234 NA
ATOM      5  C   UNL     1       6.591  -4.301  -0.466  0.00  0.00    +0.159 C 
ATOM      6  N   UNL     1       6.743  -3.470   0.744  0.00  0.00    -0.281 N 
ATOM      7  C   UNL     1       7.859  -2.885   1.312  0.00  0.00    +0.046 A 
ATOM      8  C   UNL     1       9.116  -3.449   1.317  0.00  0.00    +0.024 A 
ATOM      9  C   UNL     1      10.161  -2.782   1.931  0.00  0.00    +0.002 A 
ATOM     10  C   UNL     1       9.949  -1.555   2.541  0.00  0.00    +0.001 A 
ATOM     11  C   UNL     1       8.698  -0.974   2.539  0.00  0.00    +0.015 A 
ATOM     12  C   UNL     1       7.638  -1.628   1.919  0.00  0.00    +0.058 A 
ATOM     13  C   UNL     1       6.287  -1.045   1.841  0.00  0.00    +0.251 C 
ATOM     14  O   UNL     1       6.130   0.140   2.064  0.00  0.00    -0.270 OA
ATOM     15  H   UNL     1       4.238  -2.998  -0.420  0.00  0.00    +0.144 HD
ATOM     16  H   UNL     1       4.842  -5.011  -1.329  0.00  0.00    +0.143 HD
ENDROOT
BRANCH   1  17
ATOM     17  C   UNL     1       3.890  -1.207   1.433  0.00  0.00    +0.116 C 
BRANCH  17  18
ATOM     18  C   UNL     1       3.209  -1.251   2.803  0.00  0.00    +0.054 C 
BRANCH  18  22
ATOM     19  C   UNL     1      -0.575   0.717   2.577  0.00  0.00    +0.000 A 
ATOM     20  C   UNL     1      -0.484  -0.638   2.320  0.00  0.00    +0.000 A 
ATOM     21  C   UNL     1       0.740  -1.275   2.392  0.00  0.00    +0.004 A 
ATOM     22  C   UNL     1       1.875  -0.556   2.722  0.00  0.00    -0.046 A 
ATOM     23  C   UNL     1       1.784   0.799   2.979  0.00  0.00    +0.004 A 
ATOM     24  C   UNL     1       0.559   1.435   2.907  0.00  0.00    +0.000 A 
ENDBRANCH  18  22
ENDBRANCH  17  18
ENDBRANCH   1  17
BRANCH   5  25
ATOM     25  C   UNL     1       7.595  -5.455  -0.437  0.00  0.00    +0.049 C 
BRANCH  25  26
ATOM     26  C   UNL     1       7.340  -6.383  -1.626  0.00  0.00    +0.099 C 
BRANCH  26  27
ATOM     27  C   UNL     1       8.329  -7.519  -1.597  0.00  0.00    +0.213 C 
ATOM     28  O   UNL     1       9.157  -7.581  -0.713  0.00  0.00    -0.276 OA
ATOM     29  N   UNL     1       8.294  -8.467  -2.555  0.00  0.00    -0.315 N 
ATOM     30  H   UNL     1       7.632  -8.418  -3.262  0.00  0.00    +0.149 HD
BRANCH  29  31
ATOM     31  C   UNL     1       9.256  -9.572  -2.527  0.00  0.00    +0.108 C 
BRANCH  31  32
ATOM     32  C   UNL     1       9.000 -10.501  -3.716  0.00  0.00    +0.052 C 
BRANCH  32  33
ATOM     33  C   UNL     1       9.990 -11.637  -3.687  0.00  0.00    -0.040 C 
ATOM     34  C   UNL     1       9.801 -12.867  -3.156  0.00  0.00    -0.001 A 
ATOM     35  C   UNL     1       8.662 -13.490  -2.472  0.00  0.00    +0.010 A 
ATOM     36  C   UNL     1       8.774 -14.767  -2.042  0.00  0.00    +0.001 A 
ATOM     37  C   UNL     1       9.947 -15.509  -2.233  0.00  0.00    +0.002 A 
ATOM     38  C   UNL     1      11.035 -15.005  -2.853  0.00  0.00    +0.026 A 
ATOM     39  C   UNL     1      11.029 -13.671  -3.346  0.00  0.00    +0.043 A 
ATOM     40  N   UNL     1      11.941 -12.967  -3.970  0.00  0.00    -0.380 N 
ATOM     41  C   UNL     1      11.393 -11.636  -4.253  0.00  0.00    +0.144 C 
ATOM     42  H   UNL     1      12.829 -13.275  -4.209  0.00  0.00    +0.160 HD
ENDBRANCH  32  33
ENDBRANCH  31  32
ENDBRANCH  29  31
ENDBRANCH  26  27
ENDBRANCH  25  26
ENDBRANCH   5  25
TORSDOF 9
