REMARK  Name = ZINC66000041
REMARK  9 active torsions:
REMARK  status: ('A' for Active; 'I' for Inactive)
REMARK    1  A    between atoms: C_1  and  O_2
REMARK    2  A    between atoms: O_2  and  C_3
REMARK    3  A    between atoms: C_6  and  C_11
REMARK    4  A    between atoms: C_7  and  O_9
REMARK    5  A    between atoms: O_9  and  C_10
REMARK    6  A    between atoms: C_14  and  S_17
REMARK    7  A    between atoms: S_17  and  C_18
REMARK    8  A    between atoms: C_18  and  C_19
REMARK    9  A    between atoms: C_21  and  N_24
REMARK                            x       y       z     vdW  Elec       q    Type
REMARK                         _______ _______ _______ _____ _____    ______ ____
ROOT
ATOM      1  C   UNL     1      -4.971  -2.611   0.036  0.00  0.00    +0.186 A 
ATOM      2  N   UNL     1      -6.168  -2.006   0.046  0.00  0.00    -0.201 NA
ATOM      3  H   UNL     1      -6.992  -4.990   0.048  0.00  0.00    +0.191 HD
ATOM      4  C   UNL     1      -7.122  -2.912   0.052  0.00  0.00    +0.185 A 
ATOM      5  N   UNL     1      -6.540  -4.132   0.045  0.00  0.00    -0.253 N 
ATOM      6  N   UNL     1      -5.153  -3.912   0.030  0.00  0.00    -0.151 NA
ENDROOT
BRANCH   1  10
ATOM      7  C   UNL     1      -1.200  -0.637   0.010  0.00  0.00    +0.124 A 
ATOM      8  C   UNL     1      -2.374   0.105   0.020  0.00  0.00    +0.046 A 
ATOM      9  C   UNL     1      -3.597  -0.531   0.028  0.00  0.00    +0.019 A 
ATOM     10  C   UNL     1      -3.657  -1.924   0.027  0.00  0.00    +0.063 A 
ATOM     11  C   UNL     1      -2.475  -2.671   0.017  0.00  0.00    +0.134 A 
ATOM     12  C   UNL     1      -1.251  -2.023   0.003  0.00  0.00    +0.092 A 
BRANCH   7  14
ATOM     13  C   UNL     1      -0.017   1.425   0.010  0.00  0.00    +0.277 C 
ATOM     14  O   UNL     1       0.002  -0.004   0.002  0.00  0.00    -0.495 OA
ENDBRANCH   7  14
BRANCH  11  15
ATOM     15  O   UNL     1      -2.527  -4.028   0.016  0.00  0.00    -0.494 OA
ATOM     16  C   UNL     1      -1.280  -4.725   0.006  0.00  0.00    +0.277 C 
ENDBRANCH  11  15
ENDBRANCH   1  10
BRANCH   4  17
ATOM     17  S   UNL     1      -8.854  -2.591   0.066  0.00  0.00    -0.082 S 
BRANCH  17  18
ATOM     18  C   UNL     1      -8.965  -0.780   0.070  0.00  0.00    +0.113 C 
BRANCH  18  19
ATOM     19  C   UNL     1     -10.414  -0.366   0.082  0.00  0.00    -0.028 A 
ATOM     20  C   UNL     1     -11.099  -0.176  -1.103  0.00  0.00    +0.045 A 
ATOM     21  C   UNL     1     -12.402   0.196  -1.057  0.00  0.00    +0.164 A 
ATOM     22  S   UNL     1     -12.697   0.289   0.701  0.00  0.00    -0.073 S 
ATOM     23  C   UNL     1     -11.066  -0.179   1.256  0.00  0.00    +0.052 A 
BRANCH  21  24
ATOM     24  N   UNL     1     -13.337   0.458  -2.174  0.00  0.00    +0.063 N 
ATOM     25  O   UNL     1     -12.960   0.344  -3.317  0.00  0.00    -0.126 OA
ATOM     26  O   UNL     1     -14.478   0.784  -1.944  0.00  0.00    -0.126 OA
ENDBRANCH  21  24
ENDBRANCH  18  19
ENDBRANCH  17  18
ENDBRANCH   4  17
TORSDOF 7
