REMARK  Name = ZINC20215698
REMARK  7 active torsions:
REMARK  status: ('A' for Active; 'I' for Inactive)
REMARK    1  A    between atoms: C_1  and  N_2
REMARK    2  A    between atoms: N_2  and  C_3
REMARK    3  A    between atoms: N_2  and  C_4
REMARK    4  A    between atoms: C_7  and  C_10
REMARK    5  A    between atoms: C_14  and  C_17
REMARK    6  A    between atoms: C_17  and  S_18
REMARK    7  A    between atoms: S_18  and  C_19
REMARK                            x       y       z     vdW  Elec       q    Type
REMARK                         _______ _______ _______ _____ _____    ______ ____
ROOT
ATOM      1  C   UNL     1       2.449  -3.424   1.560  0.00  0.00    +0.094 C 
ATOM      2  N   UNL     1       3.586  -3.438   0.612  0.00  0.00    +0.401 N 
ATOM      3  C   UNL     1       3.559  -2.077   0.007  0.00  0.00    -0.046 C 
ATOM      4  C   UNL     1       2.037  -1.799  -0.058  0.00  0.00    +0.110 C 
ATOM      5  O   UNL     1       1.521  -2.417   1.136  0.00  0.00    -0.388 OA
ATOM      6  H   UNL     1       4.519  -3.631   1.162  0.00  0.00    -0.081 HD
ATOM      7  H   UNL     1       3.430  -4.229  -0.136  0.00  0.00    -0.081 HD
ENDROOT
BRANCH   1  11
ATOM      8  C   UNL     1       0.531  -7.243   1.565  0.00  0.00    +0.029 A 
ATOM      9  C   UNL     1      -0.224  -6.085   1.702  0.00  0.00    +0.023 A 
ATOM     10  C   UNL     1       0.399  -4.852   1.700  0.00  0.00    +0.006 A 
ATOM     11  C   UNL     1       1.773  -4.771   1.561  0.00  0.00    -0.036 A 
ATOM     12  C   UNL     1       2.526  -5.921   1.418  0.00  0.00    +0.006 A 
ATOM     13  C   UNL     1       1.910  -7.157   1.425  0.00  0.00    +0.023 A 
BRANCH   8  15
ATOM     14  C   UNL     1      -1.559  -8.576   1.593  0.00  0.00    +0.129 C 
ATOM     15  N   UNL     1      -0.096  -8.491   1.566  0.00  0.00    -0.336 N 
ATOM     16  C   UNL     1       0.708  -9.715   1.540  0.00  0.00    +0.129 C 
ENDBRANCH   8  15
ENDBRANCH   1  11
BRANCH   4  17
ATOM     17  C   UNL     1       1.764  -0.294  -0.043  0.00  0.00    +0.107 C 
BRANCH  17  18
ATOM     18  S   UNL     1      -0.022  -0.004   0.002  0.00  0.00    -0.082 S 
BRANCH  18  19
ATOM     19  C   UNL     1      -0.046   1.758   0.012  0.00  0.00    +0.211 A 
ATOM     20  N   UNL     1      -1.211   2.392   0.038  0.00  0.00    -0.201 NA
ATOM     21  C   UNL     1      -1.227   3.722   0.051  0.00  0.00    +0.162 A 
ATOM     22  C   UNL     1       0.006   4.406   0.025  0.00  0.00    +0.137 A 
ATOM     23  C   UNL     1      -0.318   5.843   0.041  0.00  0.00    +0.029 A 
ATOM     24  C   UNL     1       0.455   7.002   0.029  0.00  0.00    +0.012 A 
ATOM     25  C   UNL     1      -0.159   8.235   0.050  0.00  0.00    +0.001 A 
ATOM     26  C   UNL     1      -1.542   8.326   0.083  0.00  0.00    +0.002 A 
ATOM     27  C   UNL     1      -2.319   7.187   0.096  0.00  0.00    +0.026 A 
ATOM     28  C   UNL     1      -1.718   5.933   0.075  0.00  0.00    +0.050 A 
ATOM     29  N   UNL     1      -2.239   4.649   0.080  0.00  0.00    -0.338 N 
ATOM     30  H   UNL     1      -3.288   4.318   0.104  0.00  0.00    +0.167 HD
ATOM     31  N   UNL     1       1.135   3.714  -0.006  0.00  0.00    -0.143 NA
ATOM     32  N   UNL     1       1.103   2.425  -0.012  0.00  0.00    -0.122 NA
ENDBRANCH  18  19
ENDBRANCH  17  18
ENDBRANCH   4  17
TORSDOF 5
