REMARK  Name = ZINC67099925
REMARK  6 active torsions:
REMARK  status: ('A' for Active; 'I' for Inactive)
REMARK    1  A    between atoms: C_1  and  C_2
REMARK    2  A    between atoms: C_5  and  C_20
REMARK    3  A    between atoms: C_7  and  O_8
REMARK    4  A    between atoms: O_8  and  C_9
REMARK    5  A    between atoms: C_9  and  C_10
REMARK    6  A    between atoms: C_12  and  C_15
REMARK                            x       y       z     vdW  Elec       q    Type
REMARK                         _______ _______ _______ _____ _____    ______ ____
ROOT
ATOM      1  C   UNL     1      -0.018   1.503   0.010  0.00  0.00    +0.047 C 
ATOM      2  C   UNL     1       0.002  -0.004   0.002  0.00  0.00    -0.009 A 
ATOM      3  C   UNL     1       0.006  -0.686  -1.201  0.00  0.00    +0.007 A 
ATOM      4  C   UNL     1       0.025  -2.066  -1.216  0.00  0.00    +0.013 A 
ATOM      5  C   UNL     1       0.041  -2.776  -0.015  0.00  0.00    +0.040 A 
ATOM      6  C   UNL     1       0.037  -2.087   1.198  0.00  0.00    +0.059 A 
ATOM      7  C   UNL     1       0.023  -0.702   1.202  0.00  0.00    +0.125 A 
ENDROOT
BRANCH   5   8
ATOM      8  C   UNL     1       0.061  -4.255  -0.027  0.00  0.00    +0.242 C 
ATOM      9  O   UNL     1       0.074  -4.872   1.020  0.00  0.00    -0.270 OA
ATOM     10  N   UNL     1       0.064  -4.919  -1.200  0.00  0.00    -0.325 N 
ATOM     11  H   UNL     1       0.053  -4.427  -2.036  0.00  0.00    +0.145 HD
ATOM     12  H   UNL     1       0.077  -5.889  -1.209  0.00  0.00    +0.145 HD
ENDBRANCH   5   8
BRANCH   7  13
ATOM     13  O   UNL     1       0.025  -0.026   2.381  0.00  0.00    -0.484 OA
BRANCH  13  14
ATOM     14  C   UNL     1       0.047  -0.808   3.577  0.00  0.00    +0.308 C 
BRANCH  14  15
ATOM     15  C   UNL     1       0.046   0.106   4.775  0.00  0.00    +0.209 A 
ATOM     16  N   UNL     1       1.133   0.595   5.376  0.00  0.00    -0.188 NA
ATOM     17  C   UNL     1       0.781   1.358   6.389  0.00  0.00    +0.262 A 
ATOM     18  O   UNL     1      -0.563   1.370   6.452  0.00  0.00    -0.333 OA
ATOM     19  N   UNL     1      -1.016   0.551   5.385  0.00  0.00    -0.057 NA
BRANCH  17  20
ATOM     20  C   UNL     1       1.698   2.074   7.295  0.00  0.00    +0.077 A 
ATOM     21  C   UNL     1       1.334   2.927   8.435  0.00  0.00    +0.054 A 
ATOM     22  C   UNL     1       2.493   3.359   8.958  0.00  0.00    +0.195 A 
ATOM     23  O   UNL     1       3.512   2.852   8.248  0.00  0.00    -0.470 OA
ATOM     24  C   UNL     1       3.061   2.078   7.254  0.00  0.00    +0.208 A 
ENDBRANCH  17  20
ENDBRANCH  14  15
ENDBRANCH  13  14
ENDBRANCH   7  13
TORSDOF 5
