REMARK  Name = ZINC48611096
REMARK  8 active torsions:
REMARK  status: ('A' for Active; 'I' for Inactive)
REMARK    1  A    between atoms: C_1  and  C_2
REMARK    2  A    between atoms: C_2  and  C_3
REMARK    3  A    between atoms: C_3  and  C_4
REMARK    4  A    between atoms: C_5  and  N_14
REMARK    5  A    between atoms: N_8  and  C_11
REMARK    6  A    between atoms: N_9  and  C_10
REMARK    7  A    between atoms: C_11  and  C_12
REMARK    8  A    between atoms: C_11  and  C_13
REMARK                            x       y       z     vdW  Elec       q    Type
REMARK                         _______ _______ _______ _____ _____    ______ ____
ROOT
ATOM      1  C   UNL     1      -1.413  -2.041   0.005  0.00  0.00    +0.062 A 
ATOM      2  C   UNL     1      -1.493  -2.836   1.093  0.00  0.00    +0.112 A 
ATOM      3  C   UNL     1      -1.437  -4.221   0.624  0.00  0.00    +0.288 A 
ATOM      4  O   UNL     1      -1.481  -5.222   1.316  0.00  0.00    -0.264 OA
ATOM      5  N   UNL     1      -1.325  -4.178  -0.720  0.00  0.00    -0.246 N 
ATOM      6  N   UNL     1      -1.315  -2.834  -1.111  0.00  0.00    -0.286 N 
ATOM      7  C   UNL     1      -1.214  -2.352  -2.491  0.00  0.00    +0.170 C 
ENDROOT
BRANCH   5   8
ATOM      8  C   UNL     1      -1.236  -5.335  -1.613  0.00  0.00    +0.103 C 
ATOM      9  C   UNL     1      -2.408  -5.312  -2.596  0.00  0.00    +0.032 C 
ATOM     10  C   UNL     1       0.082  -5.280  -2.389  0.00  0.00    +0.032 C 
ENDBRANCH   5   8
BRANCH   2  11
ATOM     11  N   UNL     1      -1.609  -2.410   2.433  0.00  0.00    -0.352 N 
ATOM     12  H   UNL     1      -1.638  -1.463   2.641  0.00  0.00    +0.143 HD
ATOM     13  H   UNL     1      -1.660  -3.064   3.147  0.00  0.00    +0.143 HD
ENDBRANCH   2  11
BRANCH   1  14
ATOM     14  C   UNL     1      -1.433  -0.534   0.013  0.00  0.00    +0.057 C 
BRANCH  14  16
ATOM     15  C   UNL     1      -0.019   1.526   0.010  0.00  0.00    +0.004 C 
ATOM     16  C   UNL     1       0.002  -0.004   0.002  0.00  0.00    +0.003 C 
ENDBRANCH  14  16
ENDBRANCH   1  14
TORSDOF 4
