REMARK  Name = ZINC16013044
REMARK  4 active torsions:
REMARK  status: ('A' for Active; 'I' for Inactive)
REMARK    1  A    between atoms: C_1  and  C_2
REMARK    2  A    between atoms: C_2  and  C_3
REMARK    3  A    between atoms: N_22  and  C_25
REMARK    4  A    between atoms: C_28  and  C_32
REMARK                            x       y       z     vdW  Elec       q    Type
REMARK                         _______ _______ _______ _____ _____    ______ ____
ROOT
ATOM      1  C   UNL     1       2.502   0.125   0.378  0.00  0.00    -0.047 A 
ATOM      2  C   UNL     1       1.320  -0.588   0.468  0.00  0.00    +0.005 A 
ATOM      3  C   UNL     1       0.108   0.069   0.449  0.00  0.00    +0.024 A 
ATOM      4  C   UNL     1       0.064   1.458   0.340  0.00  0.00    +0.036 A 
ATOM      5  C   UNL     1       1.260   2.164   0.250  0.00  0.00    -0.027 A 
ATOM      6  C   UNL     1       2.468   1.504   0.268  0.00  0.00    +0.008 A 
ATOM      7  C   UNL     1       0.875   3.613   0.146  0.00  0.00    +0.053 C 
ATOM      8  C   UNL     1       1.404   4.240  -1.149  0.00  0.00    +0.089 C 
ATOM      9  C   UNL     1       1.789   5.692  -0.756  0.00  0.00    +0.074 C 
ATOM     10  C   UNL     1       1.453   5.806   0.743  0.00  0.00    -0.054 C 
ATOM     11  N   UNL     1       1.446   4.401   1.251  0.00  0.00    +0.395 N 
ATOM     12  C   UNL     1       2.908   4.085   1.432  0.00  0.00    -0.076 C 
ATOM     13  C   UNL     1       3.553   5.390   1.941  0.00  0.00    -0.020 C 
ATOM     14  C   UNL     1       2.609   6.515   1.472  0.00  0.00    -0.016 C 
ATOM     15  C   UNL     1       3.305   5.698  -0.941  0.00  0.00    +0.228 C 
ATOM     16  O   UNL     1       4.030   6.648  -0.736  0.00  0.00    -0.275 OA
ATOM     17  N   UNL     1       3.708   4.496  -1.370  0.00  0.00    -0.209 N 
ATOM     18  C   UNL     1       2.724   3.602  -1.523  0.00  0.00    +0.229 C 
ATOM     19  O   UNL     1       2.868   2.460  -1.901  0.00  0.00    -0.275 OA
ATOM     20  C   UNL     1      -0.629   3.621   0.185  0.00  0.00    +0.212 C 
ATOM     21  O   UNL     1      -1.350   4.594   0.126  0.00  0.00    -0.277 OA
ATOM     22  N   UNL     1      -1.020   2.336   0.294  0.00  0.00    -0.286 N 
ATOM     23  H   UNL     1      -2.047   1.946   0.346  0.00  0.00    +0.155 HD
ATOM     24  H   UNL     1       0.871   4.209   2.169  0.00  0.00    -0.079 HD
ENDROOT
BRANCH  17  25
ATOM     25  C   UNL     1       5.051   4.198  -1.638  0.00  0.00    +0.058 A 
ATOM     26  C   UNL     1       5.865   3.692  -0.634  0.00  0.00    +0.025 A 
ATOM     27  C   UNL     1       7.187   3.395  -0.902  0.00  0.00    +0.005 A 
ATOM     28  C   UNL     1       7.703   3.610  -2.166  0.00  0.00    -0.049 A 
ATOM     29  C   UNL     1       6.897   4.119  -3.168  0.00  0.00    +0.020 A 
ATOM     30  C   UNL     1       5.572   4.413  -2.907  0.00  0.00    +0.040 A 
ATOM     31 BR   UNL     1       4.470   5.109  -4.277  0.00  0.00    -0.048 Br
ATOM     32  C   UNL     1       9.148   3.291  -2.453  0.00  0.00    +0.044 C 
ENDBRANCH  17  25
BRANCH   1  34
ATOM     33  C   UNL     1       4.231  -0.958  -1.033  0.00  0.00    +0.009 C 
ATOM     34  C   UNL     1       3.824  -0.599   0.398  0.00  0.00    +0.032 C 
ENDBRANCH   1  34
TORSDOF 2
