REMARK  Name = ZINC65102251
REMARK  11 active torsions:
REMARK  status: ('A' for Active; 'I' for Inactive)
REMARK    1  A    between atoms: C_1  and  C_2
REMARK    2  A    between atoms: C_4  and  C_26
REMARK    3  A    between atoms: N_6  and  C_8
REMARK    4  A    between atoms: C_8  and  C_9
REMARK    5  A    between atoms: C_9  and  C_10
REMARK    6  A    between atoms: C_10  and  C_11
REMARK    7  A    between atoms: C_11  and  N_12
REMARK    8  A    between atoms: C_13  and  C_15
REMARK    9  A    between atoms: C_15  and  N_16
REMARK   10  A    between atoms: N_19  and  C_20
REMARK   11  A    between atoms: C_20  and  C_21
REMARK                            x       y       z     vdW  Elec       q    Type
REMARK                         _______ _______ _______ _____ _____    ______ ____
ROOT
ATOM      1  N   UNL     1       1.016  -2.661   7.388  0.00  0.00    -0.314 N 
ATOM      2  C   UNL     1       0.442  -2.428   8.585  0.00  0.00    +0.230 C 
ATOM      3  O   UNL     1      -0.605  -1.819   8.647  0.00  0.00    -0.274 OA
ATOM      4  H   UNL     1       1.853  -3.148   7.339  0.00  0.00    +0.149 HD
ENDROOT
BRANCH   1   5
ATOM      5  C   UNL     1       0.375  -2.178   6.162  0.00  0.00    +0.104 C 
BRANCH   5   6
ATOM      6  C   UNL     1       1.226  -2.573   4.954  0.00  0.00    +0.017 C 
BRANCH   6   7
ATOM      7  C   UNL     1       0.557  -2.069   3.673  0.00  0.00    -0.017 C 
BRANCH   7   8
ATOM      8  C   UNL     1       1.408  -2.463   2.464  0.00  0.00    -0.079 C 
BRANCH   8  14
ATOM      9  C   UNL     1      -0.019   1.526   0.010  0.00  0.00    +0.005 C 
ATOM     10  C   UNL     1       0.002  -0.004   0.002  0.00  0.00    -0.031 C 
ATOM     11  C   UNL     1       0.724  -0.499  -1.255  0.00  0.00    +0.003 C 
ATOM     12  C   UNL     1       0.808  -2.027  -1.215  0.00  0.00    -0.031 C 
ATOM     13  C   UNL     1       1.518  -2.460   0.070  0.00  0.00    -0.076 C 
ATOM     14  N   UNL     1       0.765  -1.980   1.235  0.00  0.00    +0.380 N 
ATOM     15  C   UNL     1       0.742  -0.512   1.241  0.00  0.00    -0.076 C 
ATOM     16  C   UNL     1       1.595  -2.527  -2.428  0.00  0.00    +0.005 C 
ATOM     17  H   UNL     1      -0.180  -2.330   1.191  0.00  0.00    -0.082 HD
ENDBRANCH   8  14
ENDBRANCH   7   8
ENDBRANCH   6   7
ENDBRANCH   5   6
ENDBRANCH   1   5
BRANCH   2  18
ATOM     18  C   UNL     1       1.101  -2.924   9.847  0.00  0.00    +0.201 C 
BRANCH  18  19
ATOM     19  N   UNL     1       0.286  -2.546  11.004  0.00  0.00    -0.291 N 
ATOM     20  C   UNL     1       0.682  -2.886  12.247  0.00  0.00    +0.300 C 
ATOM     21  O   UNL     1       1.716  -3.507  12.407  0.00  0.00    -0.253 OA
ATOM     22  N   UNL     1      -0.067  -2.539  13.312  0.00  0.00    -0.299 N 
ATOM     23  H   UNL     1      -0.538  -2.051  10.877  0.00  0.00    +0.151 HD
ATOM     24  H   UNL     1      -0.892  -2.044  13.184  0.00  0.00    +0.150 HD
BRANCH  22  25
ATOM     25  C   UNL     1       0.363  -2.909  14.662  0.00  0.00    +0.109 C 
BRANCH  25  26
ATOM     26  C   UNL     1      -0.658  -2.398  15.681  0.00  0.00    +0.006 C 
ATOM     27  C   UNL     1      -0.632  -0.856  15.727  0.00  0.00    +0.005 C 
ATOM     28  C   UNL     1      -0.852  -0.517  17.222  0.00  0.00    +0.000 C 
ATOM     29  C   UNL     1      -0.045  -1.624  17.946  0.00  0.00    +0.000 C 
ATOM     30  C   UNL     1      -0.284  -2.886  17.092  0.00  0.00    +0.005 C 
ENDBRANCH  25  26
ENDBRANCH  22  25
ENDBRANCH  18  19
ENDBRANCH   2  18
TORSDOF 9
