REMARK  Name = ZINC63323749
REMARK  11 active torsions:
REMARK  status: ('A' for Active; 'I' for Inactive)
REMARK    1  A    between atoms: C_1  and  C_2
REMARK    2  A    between atoms: C_2  and  O_3
REMARK    3  A    between atoms: O_3  and  C_4
REMARK    4  A    between atoms: C_8  and  C_10
REMARK    5  A    between atoms: C_10  and  C_11
REMARK    6  A    between atoms: C_10  and  N_12
REMARK    7  A    between atoms: N_15  and  N_16
REMARK    8  A    between atoms: C_17  and  C_19
REMARK    9  A    between atoms: C_19  and  O_20
REMARK   10  A    between atoms: O_20  and  C_21
REMARK   11  A    between atoms: C_25  and  C_27
REMARK                            x       y       z     vdW  Elec       q    Type
REMARK                         _______ _______ _______ _____ _____    ______ ____
ROOT
ATOM      1  N   UNL     1       3.081  -5.448   3.338  0.00  0.00    -0.292 N 
ATOM      2  C   UNL     1       4.158  -5.813   4.062  0.00  0.00    +0.316 C 
ATOM      3  O   UNL     1       4.460  -5.187   5.060  0.00  0.00    -0.251 OA
ATOM      4  N   UNL     1       4.900  -6.871   3.680  0.00  0.00    -0.218 N 
ATOM      5  H   UNL     1       2.840  -5.947   2.542  0.00  0.00    +0.151 HD
ATOM      6  H   UNL     1       5.675  -7.134   4.201  0.00  0.00    +0.174 HD
ENDROOT
BRANCH   4   7
ATOM      7  N   UNL     1       4.551  -7.592   2.530  0.00  0.00    -0.230 N 
ATOM      8  C   UNL     1       5.293  -8.651   2.148  0.00  0.00    +0.267 C 
ATOM      9  O   UNL     1       6.262  -8.979   2.799  0.00  0.00    -0.271 OA
ATOM     10  H   UNL     1       3.776  -7.330   2.009  0.00  0.00    +0.173 HD
BRANCH   8  11
ATOM     11  C   UNL     1       4.918  -9.426   0.911  0.00  0.00    +0.326 C 
BRANCH  11  12
ATOM     12  O   UNL     1       5.849 -10.493   0.718  0.00  0.00    -0.483 OA
BRANCH  12  13
ATOM     13  C   UNL     1       5.653 -11.295  -0.362  0.00  0.00    +0.121 A 
ATOM     14  C   UNL     1       4.590 -11.056  -1.220  0.00  0.00    +0.045 A 
ATOM     15  C   UNL     1       4.393 -11.873  -2.317  0.00  0.00    +0.004 A 
ATOM     16  C   UNL     1       5.254 -12.927  -2.560  0.00  0.00    +0.003 A 
ATOM     17  C   UNL     1       6.314 -13.166  -1.706  0.00  0.00    -0.047 A 
ATOM     18  C   UNL     1       6.519 -12.349  -0.610  0.00  0.00    +0.049 A 
ATOM     19  C   UNL     1       7.251 -14.316  -1.973  0.00  0.00    +0.044 C 
ENDBRANCH  12  13
ENDBRANCH  11  12
ENDBRANCH   8  11
ENDBRANCH   4   7
BRANCH   1  20
ATOM     20  C   UNL     1       2.275  -4.298   3.754  0.00  0.00    +0.102 C 
ATOM     21  C   UNL     1       1.243  -4.746   4.791  0.00  0.00    +0.033 C 
BRANCH  20  26
ATOM     22  C   UNL     1       0.802  -1.824   1.306  0.00  0.00    +0.121 A 
ATOM     23  C   UNL     1       0.260  -2.673   0.351  0.00  0.00    +0.045 A 
ATOM     24  C   UNL     1       0.372  -4.041   0.501  0.00  0.00    +0.004 A 
ATOM     25  C   UNL     1       1.024  -4.566   1.602  0.00  0.00    +0.006 A 
ATOM     26  C   UNL     1       1.565  -3.723   2.555  0.00  0.00    -0.024 A 
ATOM     27  C   UNL     1       1.460  -2.353   2.406  0.00  0.00    +0.051 A 
BRANCH  22  28
ATOM     28  O   UNL     1       0.693  -0.477   1.160  0.00  0.00    -0.492 OA
BRANCH  28  30
ATOM     29  C   UNL     1      -0.019   1.526   0.010  0.00  0.00    +0.048 C 
ATOM     30  C   UNL     1       0.002  -0.004   0.002  0.00  0.00    +0.225 C 
ENDBRANCH  28  30
ENDBRANCH  22  28
ENDBRANCH  20  26
ENDBRANCH   1  20
TORSDOF 8
