REMARK  Name = ZINC66836667
REMARK  4 active torsions:
REMARK  status: ('A' for Active; 'I' for Inactive)
REMARK    1  A    between atoms: C_1  and  C_2
REMARK    2  A    between atoms: C_2  and  C_4
REMARK    3  A    between atoms: C_2  and  N_16
REMARK    4  A    between atoms: C_17  and  C_19
REMARK                            x       y       z     vdW  Elec       q    Type
REMARK                         _______ _______ _______ _____ _____    ______ ____
ROOT
ATOM      1  C   UNL     1       0.597  -0.491  -1.294  0.00  0.00    +0.236 C 
ATOM      2  O   UNL     1       1.547  -1.244  -1.280  0.00  0.00    -0.274 OA
ATOM      3  N   UNL     1       0.076  -0.085  -2.469  0.00  0.00    -0.298 N 
ATOM      4  C   UNL     1       0.539  -0.609  -3.706  0.00  0.00    +0.109 C 
ATOM      5  C   UNL     1       1.818   0.091  -4.273  0.00  0.00    +0.038 C 
ATOM      6  C   UNL     1       1.688   1.617  -3.961  0.00  0.00    +0.111 C 
ATOM      7  N   UNL     1       0.371   2.138  -4.088  0.00  0.00    -0.284 N 
ATOM      8  C   UNL     1      -0.439   2.235  -2.846  0.00  0.00    +0.128 C 
ATOM      9  C   UNL     1      -1.011   0.925  -2.528  0.00  0.00    +0.127 C 
ATOM     10  C   UNL     1      -0.120   2.527  -5.281  0.00  0.00    +0.300 C 
ATOM     11  O   UNL     1       0.567   2.436  -6.280  0.00  0.00    -0.253 OA
ATOM     12  N   UNL     1      -1.373   3.016  -5.367  0.00  0.00    -0.313 N 
ATOM     13  H   UNL     1      -1.921   3.089  -4.570  0.00  0.00    +0.146 HD
ATOM     14  H   UNL     1      -1.726   3.296  -6.226  0.00  0.00    +0.146 HD
ENDROOT
BRANCH   1  16
ATOM     15  C   UNL     1       0.655   1.312   0.408  0.00  0.00    +0.038 C 
ATOM     16  C   UNL     1      -0.002  -0.009   0.002  0.00  0.00    +0.156 C 
BRANCH  16  17
ATOM     17  N   UNL     1       0.227  -1.010   1.048  0.00  0.00    -0.304 N 
ATOM     18  C   UNL     1      -0.600  -1.074   2.111  0.00  0.00    +0.217 C 
ATOM     19  O   UNL     1      -1.532  -0.304   2.202  0.00  0.00    -0.275 OA
ATOM     20  H   UNL     1       0.972  -1.626   0.975  0.00  0.00    +0.149 HD
BRANCH  18  21
ATOM     21  C   UNL     1      -0.364  -2.103   3.186  0.00  0.00    +0.079 C 
ATOM     22  C   UNL     1      -0.448  -3.507   2.579  0.00  0.00    +0.041 C 
ATOM     23  C   UNL     1      -0.286  -4.546   3.692  0.00  0.00    +0.160 C 
ATOM     24  O   UNL     1      -1.295  -4.341   4.683  0.00  0.00    -0.380 OA
ATOM     25  C   UNL     1      -1.236  -3.063   5.319  0.00  0.00    +0.160 C 
ATOM     26  C   UNL     1      -1.436  -1.964   4.272  0.00  0.00    +0.041 C 
ENDBRANCH  18  21
ENDBRANCH  16  17
ENDBRANCH   1  16
TORSDOF 3
