REMARK  Name = ZINC04652746
REMARK  4 active torsions:
REMARK  status: ('A' for Active; 'I' for Inactive)
REMARK    1  A    between atoms: C_6  and  N_10
REMARK    2  A    between atoms: C_7  and  C_8
REMARK    3  A    between atoms: C_11  and  C_13
REMARK    4  A    between atoms: C_19  and  C_21
REMARK                            x       y       z     vdW  Elec       q    Type
REMARK                         _______ _______ _______ _____ _____    ______ ____
ROOT
ATOM      1  N   UNL     1       0.010   0.998   0.303  0.00  0.00    -0.279 N 
ATOM      2  C   UNL     1       1.147   1.655   0.000  0.00  0.00    +0.222 C 
ATOM      3  O   UNL     1       1.111   2.840  -0.259  0.00  0.00    -0.275 OA
ATOM      4  H   UNL     1       0.039   0.050   0.511  0.00  0.00    +0.155 HD
ENDROOT
BRANCH   1  10
ATOM      5  C   UNL     1      -5.561   3.491   0.939  0.00  0.00    +0.010 C 
ATOM      6  C   UNL     1      -5.100   2.032   0.745  0.00  0.00    +0.037 C 
ATOM      7  C   UNL     1      -3.587   2.107   0.531  0.00  0.00    -0.018 A 
ATOM      8  C   UNL     1      -3.265   3.373   0.206  0.00  0.00    -0.004 A 
ATOM      9  S   UNL     1      -1.503   3.345  -0.021  0.00  0.00    -0.077 S 
ATOM     10  C   UNL     1      -1.202   1.674   0.313  0.00  0.00    +0.090 A 
ATOM     11  C   UNL     1      -2.463   1.174   0.585  0.00  0.00    +0.084 A 
ATOM     12  C   UNL     1      -4.472   4.270   0.169  0.00  0.00    +0.043 C 
BRANCH  11  13
ATOM     13  C   UNL     1      -2.659  -0.206   0.913  0.00  0.00    +0.102 C 
ATOM     14  N   UNL     1      -2.814  -1.301   1.173  0.00  0.00    -0.191 NA
ENDBRANCH  11  13
ENDBRANCH   1  10
BRANCH   2  15
ATOM     15  C   UNL     1       2.462   0.920  -0.017  0.00  0.00    +0.094 C 
ATOM     16  C   UNL     1       3.559   1.815   0.563  0.00  0.00    +0.060 C 
ATOM     17  C   UNL     1       3.862   2.940  -0.383  0.00  0.00    +0.015 C 
ATOM     18  C   UNL     1       3.520   2.949  -1.633  0.00  0.00    -0.011 C 
ATOM     19  C   UNL     1       2.765   1.840  -2.306  0.00  0.00    +0.044 C 
ATOM     20  C   UNL     1       2.837   0.566  -1.461  0.00  0.00    +0.118 C 
ATOM     21 CL   UNL     1       4.723   4.315   0.235  0.00  0.00    -0.089 Cl
BRANCH  20  22
ATOM     22  C   UNL     1       1.868  -0.454  -2.001  0.00  0.00    +0.360 C 
ATOM     23  O   UNL     1       0.968  -0.860  -1.304  0.00  0.00    -0.246 OA
ATOM     24  O   UNL     1       2.004  -0.913  -3.255  0.00  0.00    -0.246 OA
ENDBRANCH  20  22
ENDBRANCH   2  15
TORSDOF 4
