REMARK  Name = ZINC39710438
REMARK  10 active torsions:
REMARK  status: ('A' for Active; 'I' for Inactive)
REMARK    1  A    between atoms: C_1  and  C_2
REMARK    2  A    between atoms: C_2  and  C_3
REMARK    3  A    between atoms: C_10  and  C_15
REMARK    4  A    between atoms: C_15  and  C_17
REMARK    5  A    between atoms: C_15  and  N_27
REMARK    6  A    between atoms: N_22  and  C_23
REMARK    7  A    between atoms: C_23  and  C_24
REMARK    8  A    between atoms: C_23  and  C_25
REMARK    9  A    between atoms: C_23  and  C_26
REMARK   10  A    between atoms: N_30  and  C_33
REMARK                            x       y       z     vdW  Elec       q    Type
REMARK                         _______ _______ _______ _____ _____    ______ ____
ROOT
ATOM      1  C   UNL     1       0.235  -3.464   6.373  0.00  0.00    +0.115 C 
ENDROOT
BRANCH   1   9
ATOM      2  C   UNL     1      -0.398  -1.615   0.875  0.00  0.00    -0.047 A 
ATOM      3  C   UNL     1       0.884  -2.045   0.532  0.00  0.00    +0.005 A 
ATOM      4  C   UNL     1       1.804  -2.420   1.459  0.00  0.00    +0.024 A 
ATOM      5  C   UNL     1       1.490  -2.388   2.830  0.00  0.00    +0.040 A 
ATOM      6  N   UNL     1       2.400  -2.758   3.731  0.00  0.00    -0.284 N 
ATOM      7  C   UNL     1       2.171  -2.753   5.033  0.00  0.00    +0.226 C 
ATOM      8  O   UNL     1       3.041  -3.101   5.808  0.00  0.00    -0.275 OA
ATOM      9  C   UNL     1       0.822  -2.311   5.556  0.00  0.00    +0.119 C 
ATOM     10  C   UNL     1      -0.217  -1.889   4.535  0.00  0.00    -0.003 C 
ATOM     11  C   UNL     1       0.142  -1.939   3.221  0.00  0.00    -0.007 A 
ATOM     12  C   UNL     1      -0.797  -1.544   2.171  0.00  0.00    +0.013 A 
ATOM     13  H   UNL     1       3.271  -3.045   3.416  0.00  0.00    +0.155 HD
BRANCH   2  15
ATOM     14  C   UNL     1      -1.203   0.277  -0.512  0.00  0.00    +0.009 C 
ATOM     15  C   UNL     1      -1.359  -1.216  -0.216  0.00  0.00    +0.032 C 
ENDBRANCH   2  15
ENDBRANCH   1   9
BRANCH   1  16
ATOM     16  N   UNL     1       0.249  -4.692   5.567  0.00  0.00    -0.299 NA
ATOM     17  C   UNL     1       1.582  -5.313   5.578  0.00  0.00    +0.066 C 
ATOM     18  C   UNL     1       1.539  -6.618   4.779  0.00  0.00    -0.064 C 
ATOM     19  N   UNL     1       1.124  -6.334   3.400  0.00  0.00    +0.379 N 
ATOM     20  C   UNL     1      -0.218  -5.737   3.404  0.00  0.00    -0.064 C 
ATOM     21  C   UNL     1      -0.191  -4.425   4.191  0.00  0.00    +0.066 C 
ATOM     22  C   UNL     1       1.101  -7.584   2.628  0.00  0.00    -0.096 C 
ATOM     23  H   UNL     1       1.776  -5.691   2.977  0.00  0.00    -0.082 HD
ENDBRANCH   1  16
BRANCH   1  24
ATOM     24  C   UNL     1       1.073  -3.672   7.636  0.00  0.00    +0.236 C 
ATOM     25  N   UNL     1       0.657  -4.898   8.331  0.00  0.00    -0.148 NA
ATOM     26  N   UNL     1       0.250  -4.600   9.456  0.00  0.00    -0.069 NA
ATOM     27  N   UNL     1       0.310  -3.230   9.709  0.00  0.00    -0.179 N 
ATOM     28  N   UNL     1       0.819  -2.588   8.608  0.00  0.00    -0.179 NA
ATOM     29  H   UNL     1       0.035  -2.799  10.534  0.00  0.00    +0.191 HD
BRANCH  28  30
ATOM     30  C   UNL     1       2.061  -1.875   8.938  0.00  0.00    +0.035 C 
ATOM     31  C   UNL     1       2.463  -0.980   7.764  0.00  0.00    +0.029 C 
ATOM     32  C   UNL     1       1.839  -1.015  10.184  0.00  0.00    +0.029 C 
ATOM     33  C   UNL     1       3.173  -2.890   9.211  0.00  0.00    +0.029 C 
ENDBRANCH  28  30
ENDBRANCH   1  24
TORSDOF 5
