REMARK  Name = ZINC08283377
REMARK  8 active torsions:
REMARK  status: ('A' for Active; 'I' for Inactive)
REMARK    1  A    between atoms: C_1  and  C_2
REMARK    2  A    between atoms: C_5  and  C_8
REMARK    3  A    between atoms: C_11  and  S_14
REMARK    4  A    between atoms: N_12  and  N_13
REMARK    5  A    between atoms: S_14  and  C_15
REMARK    6  A    between atoms: C_15  and  C_17
REMARK    7  A    between atoms: C_15  and  C_18
REMARK    8  A    between atoms: N_20  and  C_21
REMARK                            x       y       z     vdW  Elec       q    Type
REMARK                         _______ _______ _______ _____ _____    ______ ____
ROOT
ATOM      1  S   UNL     1      -3.053   7.888  -2.079  0.00  0.00    -0.072 S 
ENDROOT
BRANCH   1   5
ATOM      2  C   UNL     1      -3.959  11.646  -1.515  0.00  0.00    +0.182 A 
ATOM      3  N   UNL     1      -2.822  11.525  -0.871  0.00  0.00    -0.127 NA
ATOM      4  N   UNL     1      -2.393  10.317  -0.963  0.00  0.00    -0.121 NA
ATOM      5  C   UNL     1      -3.225   9.595  -1.680  0.00  0.00    +0.209 A 
ATOM      6  N   UNL     1      -4.253  10.414  -2.053  0.00  0.00    -0.224 N 
BRANCH   2  11
ATOM      7  C   UNL     1      -7.123  16.430  -1.995  0.00  0.00    +0.044 C 
ATOM      8  C   UNL     1      -6.294  15.177  -1.869  0.00  0.00    -0.050 A 
ATOM      9  C   UNL     1      -6.861  13.945  -2.147  0.00  0.00    +0.004 A 
ATOM     10  C   UNL     1      -6.108  12.795  -2.034  0.00  0.00    +0.012 A 
ATOM     11  C   UNL     1      -4.772  12.875  -1.638  0.00  0.00    +0.021 A 
ATOM     12  C   UNL     1      -4.208  14.120  -1.354  0.00  0.00    +0.012 A 
ATOM     13  C   UNL     1      -4.970  15.263  -1.477  0.00  0.00    +0.004 A 
ENDBRANCH   2  11
BRANCH   6  14
ATOM     14  N   UNL     1      -5.344  10.080  -2.803  0.00  0.00    -0.295 N 
ATOM     15  H   UNL     1      -6.130   9.849  -2.215  0.00  0.00    +0.163 HD
ATOM     16  H   UNL     1      -5.580  10.820  -3.448  0.00  0.00    +0.163 HD
ENDBRANCH   6  14
ENDBRANCH   1   5
BRANCH   1  17
ATOM     17  C   UNL     1      -1.485   7.528  -1.248  0.00  0.00    +0.137 C 
ATOM     18  C   UNL     1      -0.361   8.325  -1.913  0.00  0.00    +0.029 C 
BRANCH  17  19
ATOM     19  C   UNL     1      -1.187   6.055  -1.354  0.00  0.00    +0.227 C 
ATOM     20  O   UNL     1      -1.657   5.405  -2.264  0.00  0.00    -0.275 OA
ATOM     21  N   UNL     1      -0.398   5.459  -0.438  0.00  0.00    -0.309 N 
ATOM     22  H   UNL     1      -0.022   5.979   0.290  0.00  0.00    +0.149 HD
BRANCH  21  23
ATOM     23  C   UNL     1      -0.108   4.027  -0.541  0.00  0.00    +0.035 C 
ATOM     24  C   UNL     1       0.591   3.743  -1.872  0.00  0.00    +0.029 C 
ATOM     25  C   UNL     1       0.894   2.247  -1.980  0.00  0.00    -0.008 C 
ATOM     26  C   UNL     1       1.805   1.826  -0.825  0.00  0.00    +0.007 C 
ATOM     27  C   UNL     1       1.106   2.111   0.506  0.00  0.00    -0.008 C 
ATOM     28  C   UNL     1       0.803   3.607   0.614  0.00  0.00    +0.029 C 
ATOM     29  C   UNL     1      -0.202   1.319   0.574  0.00  0.00    +0.007 C 
ATOM     30  C   UNL     1      -1.113   1.740  -0.581  0.00  0.00    -0.008 C 
ATOM     31  C   UNL     1      -0.414   1.456  -1.912  0.00  0.00    +0.007 C 
ATOM     32  C   UNL     1      -1.416   3.236  -0.473  0.00  0.00    +0.029 C 
ENDBRANCH  21  23
ENDBRANCH  17  19
ENDBRANCH   1  17
TORSDOF 6
