REMARK  Name = ZINC13051413
REMARK  10 active torsions:
REMARK  status: ('A' for Active; 'I' for Inactive)
REMARK    1  A    between atoms: C_1  and  C_2
REMARK    2  A    between atoms: C_2  and  C_4
REMARK    3  A    between atoms: C_2  and  O_33
REMARK    4  A    between atoms: C_4  and  N_5
REMARK    5  A    between atoms: C_11  and  C_31
REMARK    6  A    between atoms: C_15  and  S_16
REMARK    7  A    between atoms: S_16  and  C_17
REMARK    8  A    between atoms: C_17  and  C_19
REMARK    9  A    between atoms: C_17  and  C_20
REMARK   10  A    between atoms: N_22  and  C_23
REMARK                            x       y       z     vdW  Elec       q    Type
REMARK                         _______ _______ _______ _____ _____    ______ ____
ROOT
ATOM      1  N   UNL     1       1.319   1.543   2.405  0.00  0.00    -0.285 N 
ATOM      2  C   UNL     1       0.396   0.717   2.949  0.00  0.00    +0.262 A 
ATOM      3  O   UNL     1       0.153  -0.369   2.456  0.00  0.00    -0.267 OA
ATOM      4  C   UNL     1      -0.303   1.180   4.158  0.00  0.00    +0.065 A 
ATOM      5  C   UNL     1      -1.270   0.398   4.789  0.00  0.00    +0.016 A 
ATOM      6  C   UNL     1      -1.897   0.863   5.909  0.00  0.00    +0.016 A 
ATOM      7  C   UNL     1      -1.577   2.122   6.434  0.00  0.00    +0.065 A 
ATOM      8  C   UNL     1      -0.618   2.918   5.822  0.00  0.00    +0.043 A 
ATOM      9  C   UNL     1       0.030   2.452   4.674  0.00  0.00    +0.080 A 
ATOM     10  N   UNL     1       0.972   3.193   4.045  0.00  0.00    -0.223 NA
ATOM     11  C   UNL     1       1.585   2.757   2.972  0.00  0.00    +0.173 A 
ENDROOT
BRANCH   7  12
ATOM     12  C   UNL     1      -2.268   2.607   7.650  0.00  0.00    +0.387 C 
ATOM     13  O   UNL     1      -1.994   3.698   8.108  0.00  0.00    -0.241 OA
ATOM     14  O   UNL     1      -3.199   1.839   8.247  0.00  0.00    -0.241 OA
ENDBRANCH   7  12
BRANCH   1  15
ATOM     15  C   UNL     1       2.045   1.130   1.201  0.00  0.00    +0.158 C 
BRANCH  15  17
ATOM     16  C   UNL     1       2.032   1.155  -1.298  0.00  0.00    +0.039 C 
ATOM     17  C   UNL     1       1.275   1.587  -0.040  0.00  0.00    +0.131 C 
BRANCH  17  18
ATOM     18  O   UNL     1      -0.025   0.994  -0.040  0.00  0.00    -0.390 OA
ATOM     19  H   UNL     1      -0.016   0.026  -0.050  0.00  0.00    +0.210 HD
ENDBRANCH  17  18
ENDBRANCH  15  17
ENDBRANCH   1  15
BRANCH  11  20
ATOM     20  S   UNL     1       2.803   3.786   2.223  0.00  0.00    -0.075 S 
BRANCH  20  21
ATOM     21  C   UNL     1       2.746   5.207   3.342  0.00  0.00    +0.137 C 
ATOM     22  C   UNL     1       3.222   4.780   4.732  0.00  0.00    +0.029 C 
BRANCH  21  23
ATOM     23  C   UNL     1       3.644   6.297   2.817  0.00  0.00    +0.230 C 
ATOM     24  O   UNL     1       4.521   6.029   2.023  0.00  0.00    -0.274 OA
ATOM     25  N   UNL     1       3.473   7.568   3.229  0.00  0.00    -0.283 N 
ATOM     26  H   UNL     1       2.732   7.793   3.813  0.00  0.00    +0.155 HD
BRANCH  25  27
ATOM     27  C   UNL     1       4.365   8.565   2.814  0.00  0.00    +0.052 A 
ATOM     28  C   UNL     1       4.924   8.514   1.545  0.00  0.00    +0.026 A 
ATOM     29  C   UNL     1       5.803   9.498   1.138  0.00  0.00    +0.022 A 
ATOM     30  C   UNL     1       6.127  10.536   1.994  0.00  0.00    +0.042 A 
ATOM     31  C   UNL     1       5.572  10.590   3.260  0.00  0.00    +0.041 A 
ATOM     32  C   UNL     1       4.688   9.610   3.671  0.00  0.00    +0.064 A 
ATOM     33 CL   UNL     1       3.986   9.682   5.257  0.00  0.00    -0.082 Cl
ATOM     34 CL   UNL     1       7.232  11.771   1.479  0.00  0.00    -0.083 Cl
ENDBRANCH  25  27
ENDBRANCH  21  23
ENDBRANCH  20  21
ENDBRANCH  11  20
TORSDOF 8
