REMARK  Name = ZINC64704164
REMARK  15 active torsions:
REMARK  status: ('A' for Active; 'I' for Inactive)
REMARK    1  A    between atoms: C_1  and  C_2
REMARK    2  A    between atoms: C_5  and  C_8
REMARK    3  A    between atoms: C_9  and  N_32
REMARK    4  A    between atoms: N_16  and  C_17
REMARK    5  A    between atoms: N_16  and  C_18
REMARK    6  A    between atoms: C_18  and  C_19
REMARK    7  A    between atoms: N_21  and  C_22
REMARK    8  A    between atoms: C_22  and  C_23
REMARK    9  A    between atoms: C_23  and  C_24
REMARK   10  A    between atoms: C_24  and  C_26
REMARK   11  A    between atoms: C_24  and  N_27
REMARK   12  A    between atoms: N_32  and  C_33
REMARK   13  A    between atoms: C_33  and  C_34
REMARK   14  A    between atoms: C_33  and  C_35
REMARK   15  A    between atoms: C_33  and  C_36
REMARK                            x       y       z     vdW  Elec       q    Type
REMARK                         _______ _______ _______ _____ _____    ______ ____
ROOT
ATOM      1  C   UNL     1       0.039  -6.979  -0.577  0.00  0.00    +0.114 A 
ATOM      2  C   UNL     1       0.720  -7.677   0.375  0.00  0.00    +0.150 A 
ATOM      3  N   UNL     1       0.502  -9.026   0.142  0.00  0.00    -0.190 N 
ATOM      4  C   UNL     1      -0.315  -9.075  -0.960  0.00  0.00    +0.199 A 
ATOM      5  N   UNL     1      -0.591  -7.877  -1.379  0.00  0.00    -0.218 NA
ATOM      6  S   UNL     1      -0.543 -10.824  -1.190  0.00  0.00    -0.013 S 
ATOM      7  C   UNL     1       0.454 -11.376   0.184  0.00  0.00    +0.184 A 
ATOM      8  N   UNL     1       0.870 -10.249   0.695  0.00  0.00    -0.140 NA
ATOM      9  N   UNL     1       0.719 -12.671   0.603  0.00  0.00    -0.302 N 
ATOM     10  C   UNL     1       1.574 -12.903   1.770  0.00  0.00    +0.132 C 
ENDROOT
BRANCH   1  15
ATOM     11  C   UNL     1      -0.156  -1.249  -1.095  0.00  0.00    +0.044 C 
ATOM     12  C   UNL     1      -0.105  -2.749  -0.959  0.00  0.00    -0.050 A 
ATOM     13  C   UNL     1      -0.118  -3.544  -2.092  0.00  0.00    +0.004 A 
ATOM     14  C   UNL     1      -0.071  -4.918  -1.974  0.00  0.00    +0.010 A 
ATOM     15  C   UNL     1      -0.011  -5.505  -0.710  0.00  0.00    +0.004 A 
ATOM     16  C   UNL     1       0.002  -4.698   0.428  0.00  0.00    +0.010 A 
ATOM     17  C   UNL     1      -0.040  -3.325   0.297  0.00  0.00    +0.004 A 
ENDBRANCH   1  15
BRANCH   2  18
ATOM     18  N   UNL     1       1.497  -7.131   1.401  0.00  0.00    -0.323 N 
ATOM     19  H   UNL     1       1.656  -6.175   1.433  0.00  0.00    +0.148 HD
BRANCH  18  20
ATOM     20  C   UNL     1       2.072  -8.004   2.428  0.00  0.00    +0.025 C 
ATOM     21  C   UNL     1       3.067  -8.968   1.778  0.00  0.00    +0.031 C 
ATOM     22  C   UNL     1       2.795  -7.153   3.474  0.00  0.00    +0.031 C 
ATOM     23  C   UNL     1       0.955  -8.802   3.103  0.00  0.00    +0.031 C 
ENDBRANCH  18  20
ENDBRANCH   2  18
BRANCH   9  24
ATOM     24  C   UNL     1       0.144 -13.806  -0.122  0.00  0.00    +0.202 C 
BRANCH  24  25
ATOM     25  C   UNL     1       1.089 -14.235  -1.215  0.00  0.00    +0.230 C 
ATOM     26  O   UNL     1       2.139 -13.650  -1.373  0.00  0.00    -0.274 OA
ATOM     27  N   UNL     1       0.767 -15.270  -2.017  0.00  0.00    -0.314 N 
ATOM     28  H   UNL     1      -0.073 -15.738  -1.891  0.00  0.00    +0.149 HD
BRANCH  27  29
ATOM     29  C   UNL     1       1.685 -15.686  -3.079  0.00  0.00    +0.102 C 
BRANCH  29  30
ATOM     30  C   UNL     1       1.085 -16.872  -3.837  0.00  0.00    +0.003 C 
BRANCH  30  31
ATOM     31  C   UNL     1       2.094 -17.384  -4.867  0.00  0.00    -0.070 C 
ATOM     32  C   UNL     1       2.310 -16.317  -5.942  0.00  0.00    -0.013 C 
BRANCH  31  33
ATOM     33  N   UNL     1       1.579 -18.610  -5.490  0.00  0.00    +0.381 N 
ATOM     34  C   UNL     1       2.542 -19.113  -6.504  0.00  0.00    -0.079 C 
ATOM     35  C   UNL     1       2.168 -20.611  -6.635  0.00  0.00    -0.020 C 
ATOM     36  C   UNL     1       1.814 -21.007  -5.184  0.00  0.00    -0.020 C 
ATOM     37  C   UNL     1       1.460 -19.684  -4.480  0.00  0.00    -0.079 C 
ATOM     38  H   UNL     1       0.682 -18.434  -5.917  0.00  0.00    -0.081 HD
ENDBRANCH  31  33
ENDBRANCH  30  31
ENDBRANCH  29  30
ENDBRANCH  27  29
ENDBRANCH  24  25
ENDBRANCH   9  24
TORSDOF 9
