REMARK  Name = ZINC07961978
REMARK  10 active torsions:
REMARK  status: ('A' for Active; 'I' for Inactive)
REMARK    1  A    between atoms: C_1  and  C_2
REMARK    2  A    between atoms: C_6  and  O_9
REMARK    3  A    between atoms: C_7  and  C_8
REMARK    4  A    between atoms: O_9  and  C_10
REMARK    5  A    between atoms: C_10  and  C_12
REMARK    6  A    between atoms: C_10  and  C_13
REMARK    7  A    between atoms: N_15  and  N_16
REMARK    8  A    between atoms: C_17  and  C_19
REMARK    9  A    between atoms: C_23  and  C_32
REMARK   10  A    between atoms: N_24  and  C_26
REMARK                            x       y       z     vdW  Elec       q    Type
REMARK                         _______ _______ _______ _____ _____    ______ ____
ROOT
ATOM      1  N   UNL     1      -2.051  -6.241   4.808  0.00  0.00    -0.229 N 
ATOM      2  C   UNL     1      -2.041  -7.584   4.927  0.00  0.00    +0.284 C 
ATOM      3  O   UNL     1      -1.401  -8.258   4.144  0.00  0.00    -0.267 OA
ATOM      4  H   UNL     1      -2.562  -5.703   5.433  0.00  0.00    +0.173 HD
ENDROOT
BRANCH   2   5
ATOM      5  C   UNL     1      -2.807  -8.235   6.008  0.00  0.00    +0.194 A 
ATOM      6  C   UNL     1      -2.801  -9.699   6.154  0.00  0.00    +0.213 A 
ATOM      7  O   UNL     1      -2.167 -10.412   5.392  0.00  0.00    -0.285 OA
ATOM      8  C   UNL     1      -3.562 -10.248   7.219  0.00  0.00    +0.076 A 
ATOM      9  C   UNL     1      -4.237  -9.391   8.021  0.00  0.00    +0.044 A 
ATOM     10  N   UNL     1      -4.184  -8.053   7.808  0.00  0.00    -0.236 N 
ATOM     11  N   UNL     1      -3.505  -7.517   6.863  0.00  0.00    -0.158 NA
ATOM     12  C   UNL     1      -5.058  -9.931   9.163  0.00  0.00    +0.066 C 
BRANCH  10  13
ATOM     13  C   UNL     1      -4.902  -7.215   8.668  0.00  0.00    +0.066 A 
ATOM     14  C   UNL     1      -4.676  -7.263  10.038  0.00  0.00    +0.028 A 
ATOM     15  C   UNL     1      -5.386  -6.435  10.883  0.00  0.00    +0.002 A 
ATOM     16  C   UNL     1      -6.323  -5.557  10.368  0.00  0.00    +0.000 A 
ATOM     17  C   UNL     1      -6.551  -5.507   9.005  0.00  0.00    +0.002 A 
ATOM     18  C   UNL     1      -5.839  -6.328   8.153  0.00  0.00    +0.028 A 
ENDBRANCH  10  13
ENDBRANCH   2   5
BRANCH   1  21
ATOM     19  C   UNL     1      -1.334  -4.281   3.664  0.00  0.00    +0.270 C 
ATOM     20  O   UNL     1      -1.973  -3.608   4.445  0.00  0.00    -0.270 OA
ATOM     21  N   UNL     1      -1.324  -5.623   3.783  0.00  0.00    -0.231 N 
ATOM     22  H   UNL     1      -0.813  -6.162   3.158  0.00  0.00    +0.173 HD
BRANCH  19  23
ATOM     23  C   UNL     1      -0.552  -3.616   2.560  0.00  0.00    +0.257 C 
ATOM     24  C   UNL     1       0.931  -3.963   2.706  0.00  0.00    +0.062 C 
BRANCH  23  25
ATOM     25  O   UNL     1      -0.721  -2.199   2.644  0.00  0.00    -0.480 OA
BRANCH  25  31
ATOM     26  C   UNL     1      -0.854   2.083   0.305  0.00  0.00    +0.044 C 
ATOM     27  C   UNL     1      -0.586   0.600   0.324  0.00  0.00    -0.044 A 
ATOM     28  C   UNL     1      -0.147  -0.037  -0.822  0.00  0.00    +0.004 A 
ATOM     29  C   UNL     1       0.100  -1.397  -0.809  0.00  0.00    +0.004 A 
ATOM     30  C   UNL     1      -0.091  -2.124   0.351  0.00  0.00    +0.046 A 
ATOM     31  C   UNL     1      -0.531  -1.487   1.502  0.00  0.00    +0.125 A 
ATOM     32  C   UNL     1      -0.773  -0.121   1.487  0.00  0.00    -0.006 A 
ATOM     33  C   UNL     1      -1.245   0.575   2.738  0.00  0.00    +0.048 C 
ENDBRANCH  25  31
ENDBRANCH  23  25
ENDBRANCH  19  23
ENDBRANCH   1  21
TORSDOF 6
