REMARK  Name = ZINC28057260
REMARK  4 active torsions:
REMARK  status: ('A' for Active; 'I' for Inactive)
REMARK    1  A    between atoms: C_1  and  C_2
REMARK    2  A    between atoms: C_2  and  C_3
REMARK    3  A    between atoms: C_6  and  C_9
REMARK    4  A    between atoms: C_26  and  C_28
REMARK                            x       y       z     vdW  Elec       q    Type
REMARK                         _______ _______ _______ _____ _____    ______ ____
ROOT
ATOM      1  C   UNL     1       1.279  -2.544   2.550  0.00  0.00    +0.234 C 
ATOM      2  C   UNL     1       2.158  -2.810   1.349  0.00  0.00    +0.026 C 
ATOM      3  C   UNL     1       3.319  -3.446   1.522  0.00  0.00    +0.050 C 
ATOM      4  C   UNL     1       3.687  -3.885   2.889  0.00  0.00    +0.038 A 
ATOM      5  C   UNL     1       4.991  -4.236   3.213  0.00  0.00    +0.013 A 
ATOM      6  C   UNL     1       5.287  -4.641   4.501  0.00  0.00    +0.001 A 
ATOM      7  C   UNL     1       4.293  -4.697   5.462  0.00  0.00    +0.004 A 
ATOM      8  C   UNL     1       2.991  -4.348   5.147  0.00  0.00    +0.046 A 
ATOM      9  C   UNL     1       2.681  -3.941   3.863  0.00  0.00    +0.131 A 
ATOM     10  O   UNL     1       1.418  -3.586   3.515  0.00  0.00    -0.479 OA
ATOM     11  N   UNL     1       4.188  -3.718   0.458  0.00  0.00    -0.282 N 
ATOM     12  C   UNL     1       3.690  -3.561  -0.825  0.00  0.00    +0.240 A 
ATOM     13  N   UNL     1       4.156  -3.942  -1.979  0.00  0.00    -0.092 NA
ATOM     14  N   UNL     1       3.352  -3.588  -2.923  0.00  0.00    -0.021 NA
ATOM     15  N   UNL     1       2.331  -2.962  -2.434  0.00  0.00    -0.042 NA
ATOM     16  N   UNL     1       2.518  -2.918  -1.051  0.00  0.00    -0.201 N 
ATOM     17  C   UNL     1       1.693  -2.332  -0.004  0.00  0.00    +0.177 C 
ATOM     18  H   UNL     1       5.220  -4.041   0.660  0.00  0.00    +0.155 HD
ENDROOT
BRANCH  17  19
ATOM     19  C   UNL     1       1.797  -0.830  -0.067  0.00  0.00    +0.017 A 
ATOM     20  C   UNL     1       3.024  -0.215   0.097  0.00  0.00    +0.009 A 
ATOM     21  C   UNL     1       3.120   1.162   0.041  0.00  0.00    +0.001 A 
ATOM     22  C   UNL     1       1.990   1.927  -0.181  0.00  0.00    +0.003 A 
ATOM     23  C   UNL     1       0.762   1.314  -0.345  0.00  0.00    +0.039 A 
ATOM     24  C   UNL     1       0.665  -0.066  -0.288  0.00  0.00    +0.129 A 
ATOM     25  F   UNL     1      -0.535  -0.666  -0.448  0.00  0.00    -0.205 F 
ENDBRANCH  17  19
BRANCH   1  29
ATOM     26  C   UNL     1       2.402   1.177   4.322  0.00  0.00    -0.048 A 
ATOM     27  C   UNL     1       1.231   1.084   3.594  0.00  0.00    +0.004 A 
ATOM     28  C   UNL     1       0.868  -0.120   3.020  0.00  0.00    +0.008 A 
ATOM     29  C   UNL     1       1.675  -1.231   3.175  0.00  0.00    -0.003 A 
ATOM     30  C   UNL     1       2.844  -1.139   3.907  0.00  0.00    +0.008 A 
ATOM     31  C   UNL     1       3.210   0.066   4.477  0.00  0.00    +0.004 A 
BRANCH  26  33
ATOM     32  C   UNL     1       2.216   2.579   6.358  0.00  0.00    +0.009 C 
ATOM     33  C   UNL     1       2.799   2.490   4.947  0.00  0.00    +0.032 C 
ENDBRANCH  26  33
ENDBRANCH   1  29
TORSDOF 3
