REMARK  Name = ZINC39606783
REMARK  9 active torsions:
REMARK  status: ('A' for Active; 'I' for Inactive)
REMARK    1  A    between atoms: C_1  and  C_2
REMARK    2  A    between atoms: C_2  and  C_3
REMARK    3  A    between atoms: C_3  and  C_5
REMARK    4  A    between atoms: C_3  and  C_6
REMARK    5  A    between atoms: C_6  and  N_7
REMARK    6  A    between atoms: C_8  and  C_10
REMARK    7  A    between atoms: C_21  and  C_23
REMARK    8  A    between atoms: C_25  and  C_29
REMARK    9  A    between atoms: N_26  and  C_28
REMARK                            x       y       z     vdW  Elec       q    Type
REMARK                         _______ _______ _______ _____ _____    ______ ____
ROOT
ATOM      1  C   UNL     1      -4.424  -4.392   0.513  0.00  0.00    +0.100 C 
ATOM      2  C   UNL     1      -5.275  -3.950  -0.699  0.00  0.00    +0.121 C 
ATOM      3  N   UNL     1      -5.214  -5.095  -1.637  0.00  0.00    -0.295 N 
ATOM      4  C   UNL     1      -5.295  -6.291  -0.764  0.00  0.00    +0.115 C 
ATOM      5  C   UNL     1      -4.442  -5.929   0.469  0.00  0.00    -0.004 C 
ATOM      6  C   UNL     1      -3.025  -6.470   0.306  0.00  0.00    -0.010 C 
ATOM      7  C   UNL     1      -3.063  -8.001   0.321  0.00  0.00    -0.082 C 
ATOM      8  N   UNL     1      -3.644  -8.465   1.587  0.00  0.00    +0.379 N 
ATOM      9  C   UNL     1      -5.038  -8.018   1.693  0.00  0.00    -0.082 C 
ATOM     10  C   UNL     1      -5.083  -6.487   1.735  0.00  0.00    -0.010 C 
ATOM     11  C   UNL     1      -5.109  -5.058  -2.980  0.00  0.00    +0.267 C 
ATOM     12  O   UNL     1      -5.071  -6.094  -3.616  0.00  0.00    -0.268 OA
ATOM     13  H   UNL     1      -3.612  -9.473   1.621  0.00  0.00    -0.086 HD
ATOM     14  H   UNL     1      -3.112  -8.088   2.357  0.00  0.00    -0.086 HD
ENDROOT
BRANCH  11  15
ATOM     15  C   UNL     1      -5.040  -3.759  -3.680  0.00  0.00    +0.147 A 
ATOM     16  C   UNL     1      -4.935  -3.560  -5.077  0.00  0.00    +0.057 A 
ATOM     17  C   UNL     1      -4.904  -2.217  -5.250  0.00  0.00    +0.037 A 
ATOM     18  N   UNL     1      -4.987  -1.655  -4.025  0.00  0.00    -0.271 N 
ATOM     19  N   UNL     1      -5.071  -2.565  -3.122  0.00  0.00    -0.167 NA
ATOM     20  C   UNL     1      -4.986  -0.213  -3.764  0.00  0.00    +0.172 C 
ATOM     21  C   UNL     1      -4.798  -1.487  -6.564  0.00  0.00    +0.065 C 
ENDBRANCH  11  15
BRANCH   1  23
ATOM     22  N   UNL     1      -2.278  -3.634   1.481  0.00  0.00    -0.315 N 
ATOM     23  C   UNL     1      -3.013  -3.880   0.379  0.00  0.00    +0.218 C 
ATOM     24  O   UNL     1      -2.539  -3.689  -0.721  0.00  0.00    -0.275 OA
ATOM     25  H   UNL     1      -2.657  -3.786   2.361  0.00  0.00    +0.149 HD
BRANCH  22  26
ATOM     26  C   UNL     1      -0.906  -3.136   1.351  0.00  0.00    +0.107 C 
BRANCH  26  27
ATOM     27  C   UNL     1      -0.300  -2.941   2.742  0.00  0.00    +0.003 C 
ATOM     28  C   UNL     1      -1.062  -1.839   3.481  0.00  0.00    +0.009 C 
BRANCH  27  30
ATOM     29  C   UNL     1       1.810  -2.468   3.994  0.00  0.00    +0.004 C 
ATOM     30  C   UNL     1       1.171  -2.541   2.606  0.00  0.00    +0.001 C 
ENDBRANCH  27  30
ENDBRANCH  26  27
ENDBRANCH  22  26
ENDBRANCH   1  23
TORSDOF 5
