REMARK  Name = ZINC16037333
REMARK  12 active torsions:
REMARK  status: ('A' for Active; 'I' for Inactive)
REMARK    1  A    between atoms: C_1  and  C_2
REMARK    2  A    between atoms: C_2  and  C_3
REMARK    3  A    between atoms: C_2  and  C_4
REMARK    4  A    between atoms: C_2  and  O_5
REMARK    5  A    between atoms: O_5  and  C_6
REMARK    6  A    between atoms: C_15  and  C_27
REMARK    7  A    between atoms: C_17  and  C_23
REMARK    8  A    between atoms: C_17  and  C_25
REMARK    9  A    between atoms: C_18  and  N_22
REMARK   10  A    between atoms: C_19  and  C_20
REMARK   11  A    between atoms: C_30  and  O_33
REMARK   12  A    between atoms: O_33  and  C_34
REMARK                            x       y       z     vdW  Elec       q    Type
REMARK                         _______ _______ _______ _____ _____    ______ ____
ROOT
ATOM      1  C   UNL     1      -1.776   2.694  -1.387  0.00  0.00    +0.404 C 
ATOM      2  O   UNL     1      -1.851   3.830  -1.809  0.00  0.00    -0.226 OA
ATOM      3  N   UNL     1      -0.886   2.391  -0.421  0.00  0.00    -0.263 N 
ATOM      4  C   UNL     1      -0.769   1.023   0.110  0.00  0.00    +0.138 C 
ATOM      5  C   UNL     1       0.668   0.601  -0.053  0.00  0.00    -0.003 C 
ATOM      6  C   UNL     1       1.644   1.488  -0.087  0.00  0.00    -0.026 C 
ATOM      7  C   UNL     1       1.451   2.965   0.078  0.00  0.00    +0.048 C 
ATOM      8  C   UNL     1       0.007   3.409   0.142  0.00  0.00    +0.120 C 
ATOM      9  C   UNL     1       2.218   3.679  -1.037  0.00  0.00    +0.068 C 
ATOM     10  C   UNL     1       3.710   3.387  -0.876  0.00  0.00    +0.188 C 
ATOM     11  C   UNL     1       3.974   1.918  -0.733  0.00  0.00    +0.054 C 
ATOM     12  C   UNL     1       3.030   1.020  -0.357  0.00  0.00    +0.074 C 
ENDROOT
BRANCH   9  13
ATOM     13  C   UNL     1       1.746   3.175  -2.376  0.00  0.00    -0.041 A 
ATOM     14  C   UNL     1       2.248   1.990  -2.883  0.00  0.00    +0.007 A 
ATOM     15  C   UNL     1       1.812   1.523  -4.109  0.00  0.00    +0.046 A 
ATOM     16  C   UNL     1       0.880   2.249  -4.835  0.00  0.00    +0.120 A 
ATOM     17  C   UNL     1       0.383   3.441  -4.327  0.00  0.00    +0.046 A 
ATOM     18  C   UNL     1       0.817   3.901  -3.098  0.00  0.00    +0.007 A 
BRANCH  16  19
ATOM     19  O   UNL     1       0.454   1.795  -6.043  0.00  0.00    -0.495 OA
ATOM     20  C   UNL     1       1.009   0.561  -6.504  0.00  0.00    +0.277 C 
ENDBRANCH  16  19
ENDBRANCH   9  13
BRANCH  11  21
ATOM     21  N   UNL     1       5.234   1.460  -0.996  0.00  0.00    -0.358 N 
ATOM     22  H   UNL     1       5.460   0.388  -0.901  0.00  0.00    +0.142 HD
ATOM     23  H   UNL     1       6.022   2.163  -1.304  0.00  0.00    +0.142 HD
ENDBRANCH  11  21
BRANCH  12  24
ATOM     24  C   UNL     1       3.365  -0.366  -0.219  0.00  0.00    +0.101 C 
ATOM     25  N   UNL     1       3.631  -1.465  -0.111  0.00  0.00    -0.191 NA
ENDBRANCH  12  24
BRANCH  10  26
ATOM     26  C   UNL     1       4.428   3.891  -2.058  0.00  0.00    +0.091 C 
ATOM     27  N   UNL     1       4.982   4.280  -2.971  0.00  0.00    -0.194 NA
ENDBRANCH  10  26
BRANCH  10  28
ATOM     28  C   UNL     1       4.210   4.084   0.320  0.00  0.00    +0.091 C 
ATOM     29  N   UNL     1       4.596   4.621   1.244  0.00  0.00    -0.194 NA
ENDBRANCH  10  28
BRANCH   1  30
ATOM     30  O   UNL     1      -2.582   1.736  -1.883  0.00  0.00    -0.445 OA
BRANCH  30  32
ATOM     31  C   UNL     1      -2.741   2.682  -4.121  0.00  0.00    +0.055 C 
ATOM     32  C   UNL     1      -3.516   2.134  -2.921  0.00  0.00    +0.107 C 
ATOM     33  C   UNL     1      -4.341   0.921  -3.357  0.00  0.00    +0.055 C 
ATOM     34  C   UNL     1      -4.450   3.218  -2.379  0.00  0.00    +0.055 C 
ENDBRANCH  30  32
ENDBRANCH   1  30
TORSDOF 8
