REMARK  Name = ZINC41353858
REMARK  4 active torsions:
REMARK  status: ('A' for Active; 'I' for Inactive)
REMARK    1  A    between atoms: C_1  and  C_2
REMARK    2  A    between atoms: C_8  and  C_13
REMARK    3  A    between atoms: C_13  and  N_14
REMARK    4  A    between atoms: C_15  and  C_17
REMARK                            x       y       z     vdW  Elec       q    Type
REMARK                         _______ _______ _______ _____ _____    ______ ____
ROOT
ATOM      1  N   UNL     1       1.424  -1.798   4.132  0.00  0.00    -0.305 N 
ATOM      2  C   UNL     1       1.666  -1.160   5.294  0.00  0.00    +0.280 C 
ATOM      3  O   UNL     1       0.745  -0.877   6.036  0.00  0.00    -0.267 OA
ATOM      4  H   UNL     1       2.159  -2.024   3.540  0.00  0.00    +0.149 HD
ENDROOT
BRANCH   2   5
ATOM      5  C   UNL     1       3.044  -0.807   5.665  0.00  0.00    +0.190 A 
ATOM      6  C   UNL     1       3.407  -0.171   6.808  0.00  0.00    +0.063 A 
ATOM      7  C   UNL     1       4.862  -0.031   6.750  0.00  0.00    +0.022 A 
ATOM      8  C   UNL     1       5.821   0.523   7.601  0.00  0.00    +0.027 A 
ATOM      9  C   UNL     1       7.141   0.493   7.245  0.00  0.00    +0.019 A 
ATOM     10  C   UNL     1       7.532  -0.085   6.044  0.00  0.00    +0.019 A 
ATOM     11  C   UNL     1       6.600  -0.637   5.191  0.00  0.00    +0.048 A 
ATOM     12  C   UNL     1       5.253  -0.618   5.532  0.00  0.00    +0.136 A 
ATOM     13  O   UNL     1       4.140  -1.071   4.923  0.00  0.00    -0.450 OA
ATOM     14 BR   UNL     1       8.441   1.242   8.394  0.00  0.00    -0.050 Br
ENDBRANCH   2   5
BRANCH   1  15
ATOM     15  C   UNL     1       0.051  -2.150   3.762  0.00  0.00    +0.140 C 
BRANCH  15  23
ATOM     16  C   UNL     1      -0.018   1.503   0.010  0.00  0.00    +0.044 C 
ATOM     17  C   UNL     1       0.002  -0.004   0.002  0.00  0.00    -0.050 A 
ATOM     18  C   UNL     1       0.006  -0.686  -1.206  0.00  0.00    +0.007 A 
ATOM     19  C   UNL     1       0.025  -2.065  -1.236  0.00  0.00    +0.047 A 
ATOM     20  C   UNL     1       0.041  -2.781  -0.046  0.00  0.00    +0.139 A 
ATOM     21  C   UNL     1       0.037  -2.087   1.176  0.00  0.00    +0.023 A 
ATOM     22  C   UNL     1       0.023  -0.689   1.185  0.00  0.00    +0.015 A 
ATOM     23  C   UNL     1       0.053  -2.850   2.428  0.00  0.00    -0.013 A 
ATOM     24  C   UNL     1       0.072  -4.205   2.351  0.00  0.00    +0.097 A 
ATOM     25  C   UNL     1       0.074  -4.837   1.089  0.00  0.00    +0.338 A 
ATOM     26  O   UNL     1       0.091  -6.053   1.034  0.00  0.00    -0.245 OA
ATOM     27  O   UNL     1       0.059  -4.131  -0.052  0.00  0.00    -0.422 OA
ENDBRANCH  15  23
ENDBRANCH   1  15
TORSDOF 3
