REMARK  Name = ZINC52521688
REMARK  9 active torsions:
REMARK  status: ('A' for Active; 'I' for Inactive)
REMARK    1  A    between atoms: C_1  and  C_2
REMARK    2  A    between atoms: C_7  and  C_9
REMARK    3  A    between atoms: C_7  and  N_26
REMARK    4  A    between atoms: C_9  and  N_10
REMARK    5  A    between atoms: N_13  and  C_14
REMARK    6  A    between atoms: C_14  and  C_15
REMARK    7  A    between atoms: C_15  and  C_16
REMARK    8  A    between atoms: N_26  and  C_27
REMARK    9  A    between atoms: N_26  and  C_28
REMARK                            x       y       z     vdW  Elec       q    Type
REMARK                         _______ _______ _______ _____ _____    ______ ____
ROOT
ATOM      1  N   UNL     1       1.149  -4.115   2.383  0.00  0.00    -0.301 N 
ATOM      2  C   UNL     1       1.601  -4.886   3.392  0.00  0.00    +0.300 C 
ATOM      3  O   UNL     1       2.207  -4.381   4.318  0.00  0.00    -0.253 OA
ATOM      4  N   UNL     1       1.381  -6.215   3.375  0.00  0.00    -0.299 N 
ATOM      5  H   UNL     1       0.666  -4.517   1.644  0.00  0.00    +0.150 HD
ATOM      6  H   UNL     1       0.898  -6.618   2.636  0.00  0.00    +0.150 HD
ENDROOT
BRANCH   1   7
ATOM      7  C   UNL     1       1.388  -2.670   2.401  0.00  0.00    +0.094 C 
BRANCH   7  13
ATOM      8  C   UNL     1       1.111  -2.509  -2.585  0.00  0.00    +0.007 C 
ATOM      9  C   UNL     1       0.543  -1.940  -1.284  0.00  0.00    -0.015 C 
ATOM     10  C   UNL     1      -0.957  -2.236  -1.210  0.00  0.00    +0.003 C 
ATOM     11  C   UNL     1      -1.525  -1.667   0.092  0.00  0.00    -0.001 C 
ATOM     12  C   UNL     1      -0.819  -2.316   1.283  0.00  0.00    -0.010 C 
ATOM     13  C   UNL     1       0.681  -2.021   1.210  0.00  0.00    -0.050 C 
ATOM     14  C   UNL     1       1.250  -2.589  -0.092  0.00  0.00    -0.007 C 
BRANCH  13  15
ATOM     15  N   UNL     1       0.896  -0.568   1.245  0.00  0.00    +0.381 N 
ATOM     16  C   UNL     1       0.328  -0.019   2.483  0.00  0.00    -0.096 C 
ATOM     17  C   UNL     1       2.337  -0.285   1.199  0.00  0.00    -0.096 C 
ATOM     18  H   UNL     1       0.444  -0.142   0.449  0.00  0.00    -0.082 HD
ENDBRANCH  13  15
ENDBRANCH   7  13
ENDBRANCH   1   7
BRANCH   4  19
ATOM     19  C   UNL     1       1.873  -7.053   4.472  0.00  0.00    +0.113 C 
BRANCH  19  20
ATOM     20  C   UNL     1       1.493  -8.512   4.209  0.00  0.00    +0.095 C 
BRANCH  20  21
ATOM     21  C   UNL     1       1.998  -9.373   5.338  0.00  0.00    +0.135 A 
ATOM     22  N   UNL     1       3.167  -9.955   5.407  0.00  0.00    -0.134 NA
ATOM     23  N   UNL     1       3.263 -10.605   6.514  0.00  0.00    -0.134 NA
ATOM     24  C   UNL     1       2.165 -10.463   7.200  0.00  0.00    +0.133 A 
ATOM     25  N   UNL     1       1.331  -9.684   6.471  0.00  0.00    -0.315 N 
ATOM     26  C   UNL     1      -0.027  -9.281   6.837  0.00  0.00    +0.125 C 
ATOM     27  C   UNL     1      -0.149  -9.234   8.363  0.00  0.00    +0.022 C 
ATOM     28  C   UNL     1      -0.578 -10.603   8.888  0.00  0.00    +0.002 C 
ATOM     29  C   UNL     1       0.465 -11.661   8.539  0.00  0.00    +0.008 C 
ATOM     30  C   UNL     1       1.859 -11.037   8.558  0.00  0.00    +0.076 C 
ENDBRANCH  20  21
ENDBRANCH  19  20
ENDBRANCH   4  19
TORSDOF 6
