REMARK  Name = ZINC15968020
REMARK  4 active torsions:
REMARK  status: ('A' for Active; 'I' for Inactive)
REMARK    1  A    between atoms: C_16  and  C_19
REMARK    2  A    between atoms: C_19  and  C_20
REMARK    3  A    between atoms: N_25  and  C_28
REMARK    4  A    between atoms: C_28  and  C_29
REMARK                            x       y       z     vdW  Elec       q    Type
REMARK                         _______ _______ _______ _____ _____    ______ ____
ROOT
ATOM      1  C   UNL     1       0.003   1.676  -0.232  0.00  0.00    +0.002 A 
ATOM      2  C   UNL     1       1.180   2.401  -0.180  0.00  0.00    +0.008 A 
ATOM      3  C   UNL     1       2.393   1.755  -0.271  0.00  0.00    +0.005 A 
ATOM      4  C   UNL     1       2.450   0.372  -0.414  0.00  0.00    +0.057 A 
ATOM      5  C   UNL     1       1.260  -0.351  -0.467  0.00  0.00    +0.062 A 
ATOM      6  C   UNL     1       0.047   0.301  -0.376  0.00  0.00    +0.022 A 
ATOM      7 CL   UNL     1       1.304  -2.077  -0.647  0.00  0.00    -0.082 Cl
ATOM      8  N   UNL     1       3.780  -0.052  -0.479  0.00  0.00    -0.282 N 
ATOM      9  C   UNL     1       4.646   0.977  -0.391  0.00  0.00    +0.243 C 
ATOM     10  O   UNL     1       5.856   0.908  -0.418  0.00  0.00    -0.273 OA
ATOM     11  C   UNL     1       3.819   2.226  -0.254  0.00  0.00    +0.136 C 
ATOM     12  C   UNL     1       4.151   2.980   1.039  0.00  0.00    +0.122 C 
ATOM     13  C   UNL     1       4.034   4.482   0.658  0.00  0.00    +0.107 C 
ATOM     14  C   UNL     1       3.636   4.482  -0.834  0.00  0.00    +0.076 C 
ATOM     15  N   UNL     1       4.088   3.171  -1.354  0.00  0.00    -0.295 NA
ATOM     16  C   UNL     1       2.871   4.964   1.495  0.00  0.00    +0.227 C 
ATOM     17  O   UNL     1       2.437   6.096   1.506  0.00  0.00    -0.275 OA
ATOM     18  N   UNL     1       2.396   3.947   2.224  0.00  0.00    -0.237 N 
ATOM     19  C   UNL     1       3.046   2.775   2.050  0.00  0.00    +0.229 C 
ATOM     20  O   UNL     1       2.792   1.728   2.607  0.00  0.00    -0.275 OA
ATOM     21  H   UNL     1       4.048  -0.979  -0.577  0.00  0.00    +0.155 HD
ATOM     22  H   UNL     1       5.072   3.200  -1.574  0.00  0.00    +0.124 HD
ENDROOT
BRANCH  14  23
ATOM     23  C   UNL     1       4.326   5.633  -1.569  0.00  0.00    +0.115 C 
BRANCH  23  24
ATOM     24  C   UNL     1       3.831   5.689  -2.991  0.00  0.00    +0.212 C 
ATOM     25  O   UNL     1       3.008   4.887  -3.379  0.00  0.00    -0.276 OA
ATOM     26  N   UNL     1       4.303   6.630  -3.833  0.00  0.00    -0.329 N 
ATOM     27  H   UNL     1       4.962   7.271  -3.523  0.00  0.00    +0.145 HD
ATOM     28  H   UNL     1       3.985   6.666  -4.748  0.00  0.00    +0.145 HD
ENDBRANCH  23  24
ENDBRANCH  14  23
BRANCH  18  29
ATOM     29  C   UNL     1       1.264   4.092   3.143  0.00  0.00    +0.151 C 
BRANCH  29  30
ATOM     30  C   UNL     1       1.773   4.481   4.508  0.00  0.00    -0.026 A 
ATOM     31  C   UNL     1       2.108   3.502   5.424  0.00  0.00    +0.009 A 
ATOM     32  C   UNL     1       2.575   3.853   6.677  0.00  0.00    +0.050 A 
ATOM     33  C   UNL     1       2.708   5.189   7.017  0.00  0.00    +0.166 A 
ATOM     34  C   UNL     1       2.371   6.176   6.094  0.00  0.00    +0.167 A 
ATOM     35  C   UNL     1       1.909   5.816   4.838  0.00  0.00    +0.054 A 
ATOM     36  O   UNL     1       2.588   7.398   6.663  0.00  0.00    -0.453 OA
ATOM     37  C   UNL     1       2.673   7.153   8.079  0.00  0.00    +0.466 C 
ATOM     38  O   UNL     1       3.137   5.793   8.164  0.00  0.00    -0.453 OA
ENDBRANCH  29  30
ENDBRANCH  18  29
TORSDOF 4
