REMARK  Name = ZINC04225845
REMARK  8 active torsions:
REMARK  status: ('A' for Active; 'I' for Inactive)
REMARK    1  A    between atoms: C_1  and  C_2
REMARK    2  A    between atoms: C_3  and  N_9
REMARK    3  A    between atoms: C_10  and  C_12
REMARK    4  A    between atoms: N_18  and  C_21
REMARK    5  A    between atoms: C_24  and  O_29
REMARK    6  A    between atoms: C_25  and  O_27
REMARK    7  A    between atoms: O_27  and  C_28
REMARK    8  A    between atoms: O_29  and  C_30
REMARK                            x       y       z     vdW  Elec       q    Type
REMARK                         _______ _______ _______ _____ _____    ______ ____
ROOT
ATOM      1  C   UNL     1      -2.377   4.045   0.558  0.00  0.00    +0.118 A 
ATOM      2  C   UNL     1      -3.421   3.212   0.913  0.00  0.00    +0.106 A 
ATOM      3  N   UNL     1      -3.284   1.870   0.756  0.00  0.00    -0.313 N 
ATOM      4  H   UNL     1      -4.039   1.268   1.014  0.00  0.00    +0.170 HD
ATOM      5  C   UNL     1      -2.157   1.333   0.263  0.00  0.00    +0.334 A 
ATOM      6  O   UNL     1      -2.084   0.125   0.142  0.00  0.00    -0.246 OA
ATOM      7  N   UNL     1      -1.106   2.087  -0.102  0.00  0.00    -0.228 N 
ATOM      8  C   UNL     1      -1.151   3.430   0.025  0.00  0.00    +0.273 A 
ATOM      9  O   UNL     1      -0.201   4.118  -0.299  0.00  0.00    -0.266 OA
ENDROOT
BRANCH   7  10
ATOM     10  C   UNL     1       0.048   1.474  -0.612  0.00  0.00    +0.058 A 
ATOM     11  C   UNL     1       1.043   1.040   0.254  0.00  0.00    +0.030 A 
ATOM     12  C   UNL     1       2.183   0.441  -0.247  0.00  0.00    +0.051 A 
ATOM     13  C   UNL     1       2.336   0.272  -1.614  0.00  0.00    +0.162 A 
ATOM     14  C   UNL     1       1.340   0.707  -2.484  0.00  0.00    +0.163 A 
ATOM     15  C   UNL     1       0.198   1.307  -1.981  0.00  0.00    +0.075 A 
BRANCH  14  16
ATOM     16  O   UNL     1       1.489   0.542  -3.825  0.00  0.00    -0.491 OA
ATOM     17  C   UNL     1       0.427   1.011  -4.658  0.00  0.00    +0.277 C 
ENDBRANCH  14  16
BRANCH  13  18
ATOM     18  O   UNL     1       3.459  -0.317  -2.106  0.00  0.00    -0.491 OA
ATOM     19  C   UNL     1       4.440  -0.739  -1.155  0.00  0.00    +0.277 C 
ENDBRANCH  13  18
ENDBRANCH   7  10
BRANCH   1  21
ATOM     20  N   UNL     1      -1.506   6.305   0.254  0.00  0.00    -0.281 N 
ATOM     21  C   UNL     1      -2.487   5.503   0.713  0.00  0.00    +0.255 C 
ATOM     22  O   UNL     1      -3.463   5.985   1.255  0.00  0.00    -0.270 OA
ATOM     23  H   UNL     1      -0.753   5.925  -0.226  0.00  0.00    +0.155 HD
BRANCH  20  26
ATOM     24  C   UNL     1       0.935   7.751   0.467  0.00  0.00    +0.047 C 
ATOM     25  C   UNL     1      -0.405   8.430   0.580  0.00  0.00    -0.011 A 
ATOM     26  C   UNL     1      -1.573   7.685   0.469  0.00  0.00    +0.038 A 
ATOM     27  C   UNL     1      -2.807   8.313   0.578  0.00  0.00    +0.023 A 
ATOM     28  C   UNL     1      -2.870   9.677   0.791  0.00  0.00    +0.003 A 
ATOM     29  C   UNL     1      -1.707  10.416   0.896  0.00  0.00    +0.020 A 
ATOM     30  C   UNL     1      -0.475   9.794   0.787  0.00  0.00    +0.046 A 
ATOM     31 CL   UNL     1       0.983  10.727   0.918  0.00  0.00    -0.083 Cl
ENDBRANCH  20  26
ENDBRANCH   1  21
TORSDOF 5
