REMARK  Name = ZINC15968075
REMARK  7 active torsions:
REMARK  status: ('A' for Active; 'I' for Inactive)
REMARK    1  A    between atoms: C_1  and  C_2
REMARK    2  A    between atoms: C_2  and  C_3
REMARK    3  A    between atoms: C_14  and  C_17
REMARK    4  A    between atoms: C_17  and  C_18
REMARK    5  A    between atoms: N_23  and  C_26
REMARK    6  A    between atoms: C_26  and  C_27
REMARK    7  A    between atoms: C_27  and  C_28
REMARK                            x       y       z     vdW  Elec       q    Type
REMARK                         _______ _______ _______ _____ _____    ______ ____
ROOT
ATOM      1  C   UNL     1      -1.412  -0.526   0.013  0.00  0.00    -0.047 A 
ATOM      2  C   UNL     1      -2.053  -0.767   1.214  0.00  0.00    +0.005 A 
ATOM      3  C   UNL     1      -3.347  -1.243   1.230  0.00  0.00    +0.024 A 
ATOM      4  C   UNL     1      -4.019  -1.486   0.035  0.00  0.00    +0.039 A 
ATOM      5  C   UNL     1      -3.364  -1.241  -1.169  0.00  0.00    +0.004 A 
ATOM      6  C   UNL     1      -2.074  -0.759  -1.179  0.00  0.00    +0.011 A 
ATOM      7  C   UNL     1      -4.344  -1.598  -2.250  0.00  0.00    +0.136 C 
ATOM      8  C   UNL     1      -3.794  -2.697  -3.166  0.00  0.00    +0.122 C 
ATOM      9  C   UNL     1      -4.326  -2.332  -4.580  0.00  0.00    +0.107 C 
ATOM     10  C   UNL     1      -5.154  -1.046  -4.371  0.00  0.00    +0.076 C 
ATOM     11  N   UNL     1      -4.627  -0.445  -3.125  0.00  0.00    -0.295 NA
ATOM     12  C   UNL     1      -5.248  -3.483  -4.914  0.00  0.00    +0.227 C 
ATOM     13  O   UNL     1      -5.877  -3.602  -5.943  0.00  0.00    -0.275 OA
ATOM     14  N   UNL     1      -5.261  -4.352  -3.896  0.00  0.00    -0.241 N 
ATOM     15  C   UNL     1      -4.471  -4.012  -2.852  0.00  0.00    +0.228 C 
ATOM     16  O   UNL     1      -4.326  -4.648  -1.830  0.00  0.00    -0.275 OA
ATOM     17  C   UNL     1      -5.579  -2.054  -1.523  0.00  0.00    +0.243 C 
ATOM     18  O   UNL     1      -6.617  -2.432  -2.025  0.00  0.00    -0.273 OA
ATOM     19  N   UNL     1      -5.310  -1.961  -0.207  0.00  0.00    -0.283 N 
ATOM     20  H   UNL     1      -5.304   0.172  -2.701  0.00  0.00    +0.124 HD
ATOM     21  H   UNL     1      -5.940  -2.196   0.492  0.00  0.00    +0.155 HD
ENDROOT
BRANCH   1  23
ATOM     22  C   UNL     1      -0.019   1.526   0.010  0.00  0.00    +0.009 C 
ATOM     23  C   UNL     1       0.002  -0.004   0.002  0.00  0.00    +0.032 C 
ENDBRANCH   1  23
BRANCH  10  24
ATOM     24  C   UNL     1      -4.974  -0.098  -5.558  0.00  0.00    +0.115 C 
BRANCH  24  25
ATOM     25  C   UNL     1      -5.883   1.093  -5.392  0.00  0.00    +0.212 C 
ATOM     26  O   UNL     1      -6.604   1.175  -4.420  0.00  0.00    -0.276 OA
ATOM     27  N   UNL     1      -5.895   2.066  -6.324  0.00  0.00    -0.329 N 
ATOM     28  H   UNL     1      -5.319   2.001  -7.102  0.00  0.00    +0.145 HD
ATOM     29  H   UNL     1      -6.480   2.833  -6.218  0.00  0.00    +0.145 HD
ENDBRANCH  24  25
ENDBRANCH  10  24
BRANCH  14  30
ATOM     30  C   UNL     1      -6.063  -5.578  -3.910  0.00  0.00    +0.121 C 
BRANCH  30  31
ATOM     31  C   UNL     1      -5.239  -6.719  -4.510  0.00  0.00    +0.054 C 
BRANCH  31  32
ATOM     32  C   UNL     1      -6.063  -7.980  -4.525  0.00  0.00    -0.046 A 
ATOM     33  C   UNL     1      -6.040  -8.835  -3.438  0.00  0.00    +0.004 A 
ATOM     34  C   UNL     1      -6.796  -9.991  -3.453  0.00  0.00    +0.000 A 
ATOM     35  C   UNL     1      -7.577 -10.293  -4.553  0.00  0.00    +0.000 A 
ATOM     36  C   UNL     1      -7.601  -9.438  -5.638  0.00  0.00    +0.000 A 
ATOM     37  C   UNL     1      -6.848  -8.279  -5.623  0.00  0.00    +0.004 A 
ENDBRANCH  31  32
ENDBRANCH  30  31
ENDBRANCH  14  30
TORSDOF 6
