REMARK  Name = ZINC21661012
REMARK  3 active torsions:
REMARK  status: ('A' for Active; 'I' for Inactive)
REMARK    1  A    between atoms: C_1  and  C_2
REMARK    2  A    between atoms: C_14  and  C_16
REMARK    3  A    between atoms: C_17  and  C_23
REMARK                            x       y       z     vdW  Elec       q    Type
REMARK                         _______ _______ _______ _____ _____    ______ ____
ROOT
ATOM      1  C   UNL     1       6.003  13.293   4.960  0.00  0.00    +0.044 C 
ATOM      2  C   UNL     1       5.565  12.064   4.205  0.00  0.00    -0.049 A 
ATOM      3  C   UNL     1       5.896  11.909   2.866  0.00  0.00    +0.005 A 
ATOM      4  C   UNL     1       5.511  10.802   2.157  0.00  0.00    +0.029 A 
ATOM      5  C   UNL     1       4.757   9.776   2.773  0.00  0.00    +0.081 A 
ATOM      6  C   UNL     1       4.438   9.968   4.137  0.00  0.00    +0.041 A 
ATOM      7  C   UNL     1       4.829  11.081   4.839  0.00  0.00    +0.020 A 
ATOM      8  S   UNL     1       3.507   8.503   4.517  0.00  0.00    -0.048 S 
ATOM      9  C   UNL     1       3.606   7.749   2.900  0.00  0.00    +0.196 A 
ATOM     10  N   UNL     1       4.301   8.631   2.221  0.00  0.00    -0.221 NA
ATOM     11  N   UNL     1       3.077   6.538   2.469  0.00  0.00    -0.193 N 
ATOM     12  C   UNL     1       3.181   6.019   1.226  0.00  0.00    +0.135 A 
ATOM     13  C   UNL     1       2.532   4.813   1.226  0.00  0.00    +0.023 A 
ATOM     14  C   UNL     1       2.015   4.604   2.497  0.00  0.00    +0.066 A 
ATOM     15  N   UNL     1       2.337   5.632   3.247  0.00  0.00    -0.168 NA
ATOM     16  C   UNL     1       1.221   3.403   2.940  0.00  0.00    +0.068 C 
ATOM     17  C   UNL     1       2.453   3.940  -0.001  0.00  0.00    +0.066 C 
ATOM     18  C   UNL     1       2.510   4.840  -1.239  0.00  0.00    +0.109 C 
ATOM     19  C   UNL     1       3.563   5.902  -1.093  0.00  0.00    +0.219 C 
ATOM     20  O   UNL     1       4.227   6.207  -2.061  0.00  0.00    -0.275 OA
ATOM     21  N   UNL     1       3.792   6.527   0.081  0.00  0.00    -0.270 N 
ATOM     22  H   UNL     1       4.441   7.413   0.152  0.00  0.00    +0.156 HD
ENDROOT
BRANCH  17  23
ATOM     23  C   UNL     1       1.158   3.169   0.007  0.00  0.00    -0.001 A 
ATOM     24  C   UNL     1      -0.048   3.843   0.022  0.00  0.00    +0.045 A 
ATOM     25  C   UNL     1      -1.237   3.135   0.029  0.00  0.00    +0.124 A 
ATOM     26  C   UNL     1      -1.218   1.750   0.017  0.00  0.00    +0.041 A 
ATOM     27  C   UNL     1      -0.013   1.076   0.008  0.00  0.00    +0.041 A 
ATOM     28  C   UNL     1       1.177   1.784   0.000  0.00  0.00    +0.127 A 
ATOM     29  F   UNL     1       2.356   1.125  -0.013  0.00  0.00    -0.205 F 
ATOM     30  F   UNL     1      -2.416   3.794   0.042  0.00  0.00    -0.205 F 
ENDBRANCH  17  23
TORSDOF 1
