REMARK  Name = ZINC13498799
REMARK  12 active torsions:
REMARK  status: ('A' for Active; 'I' for Inactive)
REMARK    1  A    between atoms: C_1  and  C_2
REMARK    2  A    between atoms: C_2  and  C_3
REMARK    3  A    between atoms: C_2  and  C_4
REMARK    4  A    between atoms: C_4  and  C_6
REMARK    5  A    between atoms: C_4  and  N_67
REMARK    6  A    between atoms: N_10  and  C_11
REMARK    7  A    between atoms: C_11  and  C_12
REMARK    8  A    between atoms: C_18  and  C_19
REMARK    9  A    between atoms: C_18  and  N_67
REMARK   10  A    between atoms: C_19  and  O_20
REMARK   11  A    between atoms: C_21  and  C_22
REMARK   12  A    between atoms: C_21  and  N_67
REMARK                            x       y       z     vdW  Elec       q    Type
REMARK                         _______ _______ _______ _____ _____    ______ ____
ROOT
ATOM      1  N   UNL     1       4.907   4.323   1.153  0.00  0.00    +0.391 N 
ATOM      2  H   UNL     1       4.899   3.299   1.221  0.00  0.00    -0.080 HD
ENDROOT
BRANCH   1   3
ATOM      3  C   UNL     1       6.309   4.792   1.142  0.00  0.00    +0.006 C 
BRANCH   3   4
ATOM      4  C   UNL     1       6.369   6.271   0.860  0.00  0.00    +0.138 A 
ATOM      5  N   UNL     1       5.840   6.895  -0.165  0.00  0.00    -0.115 NA
ATOM      6  N   UNL     1       6.107   8.150  -0.048  0.00  0.00    -0.023 NA
ATOM      7  N   UNL     1       6.793   8.343   1.024  0.00  0.00    -0.044 NA
ATOM      8  N   UNL     1       6.970   7.210   1.614  0.00  0.00    -0.228 N 
BRANCH   8   9
ATOM      9  C   UNL     1       7.694   6.986   2.869  0.00  0.00    +0.178 C 
BRANCH   9  10
ATOM     10  C   UNL     1       9.186   6.820   2.574  0.00  0.00    +0.140 C 
ATOM     11  C   UNL     1       9.949   6.530   3.884  0.00  0.00    +0.035 C 
ATOM     12  C   UNL     1      11.253   7.351   3.695  0.00  0.00    +0.031 C 
ATOM     13  C   UNL     1      10.721   8.569   2.898  0.00  0.00    +0.160 C 
ATOM     14  O   UNL     1       9.711   8.035   2.027  0.00  0.00    -0.375 OA
ENDBRANCH   9  10
ENDBRANCH   8   9
ENDBRANCH   3   4
BRANCH   3  16
ATOM     15  C   UNL     1       8.543   4.465   0.072  0.00  0.00    +0.006 C 
ATOM     16  C   UNL     1       7.074   4.035   0.056  0.00  0.00    -0.024 C 
ATOM     17  C   UNL     1       6.980   2.531   0.320  0.00  0.00    +0.006 C 
ENDBRANCH   3  16
ENDBRANCH   1   3
BRANCH   1  18
ATOM     18  C   UNL     1       4.195   4.887   2.319  0.00  0.00    -0.049 C 
BRANCH  18  19
ATOM     19  C   UNL     1       4.602   4.103   3.568  0.00  0.00    +0.137 C 
BRANCH  19  20
ATOM     20  O   UNL     1       5.973   4.365   3.871  0.00  0.00    -0.397 OA
ATOM     21  H   UNL     1       6.300   3.900   4.653  0.00  0.00    +0.209 HD
ENDBRANCH  19  20
ENDBRANCH  18  19
ENDBRANCH   1  18
BRANCH   1  22
ATOM     22  C   UNL     1       4.229   4.727  -0.097  0.00  0.00    -0.036 C 
BRANCH  22  23
ATOM     23  C   UNL     1       2.958   3.930  -0.237  0.00  0.00    +0.001 A 
ATOM     24  C   UNL     1       1.776   4.466   0.161  0.00  0.00    +0.017 A 
ATOM     25  C   UNL     1       0.560   3.668   0.011  0.00  0.00    +0.002 A 
ATOM     26  C   UNL     1      -0.686   4.169   0.405  0.00  0.00    +0.059 A 
ATOM     27  C   UNL     1      -1.816   3.393   0.251  0.00  0.00    +0.163 A 
ATOM     28  C   UNL     1      -1.721   2.113  -0.302  0.00  0.00    +0.164 A 
ATOM     29  C   UNL     1      -0.491   1.606  -0.686  0.00  0.00    +0.075 A 
ATOM     30  C   UNL     1       0.656   2.374  -0.538  0.00  0.00    +0.053 A 
ATOM     31  N   UNL     1       1.889   1.887  -0.921  0.00  0.00    -0.322 N 
ATOM     32  H   UNL     1       1.955   0.996  -1.298  0.00  0.00    +0.169 HD
ATOM     33  C   UNL     1       3.001   2.630  -0.780  0.00  0.00    +0.251 A 
ATOM     34  O   UNL     1       4.073   2.167  -1.131  0.00  0.00    -0.268 OA
ATOM     35  O   UNL     1      -2.830   1.341  -0.457  0.00  0.00    -0.485 OA
ATOM     36  C   UNL     1      -3.992   1.724   0.286  0.00  0.00    +0.270 C 
ATOM     37  C   UNL     1      -4.186   3.238   0.131  0.00  0.00    +0.270 C 
ATOM     38  O   UNL     1      -3.021   3.894   0.642  0.00  0.00    -0.485 OA
ENDBRANCH  22  23
ENDBRANCH   1  22
TORSDOF 10
