REMARK  Name = ZINC37442164
REMARK  4 active torsions:
REMARK  status: ('A' for Active; 'I' for Inactive)
REMARK    1  A    between atoms: C_3  and  O_21
REMARK    2  A    between atoms: C_6  and  C_7
REMARK    3  A    between atoms: C_7  and  C_8
REMARK    4  A    between atoms: N_16  and  C_17
REMARK                            x       y       z     vdW  Elec       q    Type
REMARK                         _______ _______ _______ _____ _____    ______ ____
ROOT
ATOM      1  C   UNL     1      -1.669  -0.982  -1.440  0.00  0.00    +0.115 A 
ATOM      2  N   UNL     1      -2.453  -0.200  -2.122  0.00  0.00    -0.232 NA
ATOM      3  C   UNL     1      -2.746  -0.775  -3.317  0.00  0.00    +0.090 A 
ATOM      4  C   UNL     1      -3.523  -0.384  -4.410  0.00  0.00    +0.045 A 
ATOM      5  C   UNL     1      -3.626  -1.210  -5.506  0.00  0.00    +0.020 A 
ATOM      6  C   UNL     1      -2.964  -2.430  -5.534  0.00  0.00    +0.017 A 
ATOM      7  C   UNL     1      -2.193  -2.831  -4.465  0.00  0.00    +0.029 A 
ATOM      8  C   UNL     1      -2.077  -2.011  -3.351  0.00  0.00    +0.069 A 
ATOM      9  N   UNL     1      -1.400  -2.110  -2.151  0.00  0.00    -0.324 N 
ATOM     10 BR   UNL     1      -4.679  -0.679  -6.985  0.00  0.00    -0.050 Br
ENDROOT
BRANCH   9  11
ATOM     11  C   UNL     1      -0.552  -3.225  -1.722  0.00  0.00    +0.089 C 
ATOM     12  C   UNL     1      -1.098  -4.642  -1.914  0.00  0.00    +0.027 C 
ATOM     13  C   UNL     1      -1.013  -4.038  -0.511  0.00  0.00    +0.027 C 
ENDBRANCH   9  11
BRANCH   1  14
ATOM     14  C   UNL     1      -1.132  -0.680  -0.064  0.00  0.00    +0.109 C 
BRANCH  14  20
ATOM     15  C   UNL     1       0.189   1.438  -0.243  0.00  0.00    +0.007 A 
ATOM     16  C   UNL     1       1.387   2.115  -0.354  0.00  0.00    +0.045 A 
ATOM     17  C   UNL     1       2.580   1.408  -0.410  0.00  0.00    +0.117 A 
ATOM     18  C   UNL     1       2.565   0.022  -0.354  0.00  0.00    +0.045 A 
ATOM     19  C   UNL     1       1.364  -0.651  -0.242  0.00  0.00    +0.007 A 
ATOM     20  C   UNL     1       0.177   0.056  -0.187  0.00  0.00    -0.040 A 
BRANCH  17  21
ATOM     21  O   UNL     1       3.760   2.072  -0.521  0.00  0.00    -0.507 OA
ATOM     22  H   UNL     1       4.164   2.300   0.328  0.00  0.00    +0.292 HD
ENDBRANCH  17  21
ENDBRANCH  14  20
ENDBRANCH   1  14
TORSDOF 4
