REMARK  Name = ZINC44169956
REMARK  9 active torsions:
REMARK  status: ('A' for Active; 'I' for Inactive)
REMARK    1  A    between atoms: C_1  and  C_2
REMARK    2  A    between atoms: C_5  and  O_8
REMARK    3  A    between atoms: O_8  and  C_9
REMARK    4  A    between atoms: C_11  and  N_24
REMARK    5  A    between atoms: C_13  and  O_23
REMARK    6  A    between atoms: C_15  and  O_22
REMARK    7  A    between atoms: C_17  and  C_20
REMARK    8  A    between atoms: C_20  and  O_21
REMARK    9  A    between atoms: C_25  and  C_27
REMARK                            x       y       z     vdW  Elec       q    Type
REMARK                         _______ _______ _______ _____ _____    ______ ____
ROOT
ATOM      1  C   UNL     1       0.072  -4.785   1.249  0.00  0.00    +0.331 C 
ATOM      2  C   UNL     1      -0.035  -6.298   1.043  0.00  0.00    +0.173 C 
ATOM      3  C   UNL     1       0.042  -6.997   2.404  0.00  0.00    +0.172 C 
ATOM      4  C   UNL     1       1.347  -6.595   3.099  0.00  0.00    +0.176 C 
ATOM      5  C   UNL     1       1.400  -5.070   3.225  0.00  0.00    +0.179 C 
ATOM      6  O   UNL     1       1.292  -4.482   1.927  0.00  0.00    -0.332 OA
ENDROOT
BRANCH   2   7
ATOM      7  N   UNL     1      -1.312  -6.616   0.400  0.00  0.00    -0.304 N 
ATOM      8  C   UNL     1      -1.424  -6.556  -0.942  0.00  0.00    +0.210 C 
ATOM      9  O   UNL     1      -0.468  -6.240  -1.617  0.00  0.00    -0.276 OA
ATOM     10  C   UNL     1      -2.738  -6.883  -1.603  0.00  0.00    +0.109 C 
ATOM     11  H   UNL     1      -2.078  -6.869   0.940  0.00  0.00    +0.149 HD
ENDBRANCH   2   7
BRANCH   4  12
ATOM     12  O   UNL     1       2.459  -7.051   2.326  0.00  0.00    -0.387 OA
ATOM     13  H   UNL     1       3.320  -6.831   2.708  0.00  0.00    +0.210 HD
ENDBRANCH   4  12
BRANCH   3  14
ATOM     14  O   UNL     1       0.015  -8.413   2.216  0.00  0.00    -0.387 OA
ATOM     15  H   UNL     1       0.061  -8.920   3.039  0.00  0.00    +0.210 HD
ENDBRANCH   3  14
BRANCH   1  16
ATOM     16  O   UNL     1       0.057  -4.129  -0.021  0.00  0.00    -0.462 OA
BRANCH  16  21
ATOM     17  C   UNL     1      -0.018   1.503   0.010  0.00  0.00    +0.044 C 
ATOM     18  C   UNL     1       0.002  -0.004   0.002  0.00  0.00    -0.050 A 
ATOM     19  C   UNL     1       0.006  -0.688  -1.200  0.00  0.00    +0.007 A 
ATOM     20  C   UNL     1       0.024  -2.069  -1.210  0.00  0.00    +0.046 A 
ATOM     21  C   UNL     1       0.039  -2.770  -0.013  0.00  0.00    +0.124 A 
ATOM     22  C   UNL     1       0.036  -2.082   1.191  0.00  0.00    +0.046 A 
ATOM     23  C   UNL     1       0.023  -0.701   1.196  0.00  0.00    +0.007 A 
ENDBRANCH  16  21
ENDBRANCH   1  16
BRANCH   5  24
ATOM     24  C   UNL     1       2.728  -4.657   3.864  0.00  0.00    +0.190 C 
BRANCH  24  25
ATOM     25  O   UNL     1       2.729  -3.246   4.088  0.00  0.00    -0.392 OA
ATOM     26  H   UNL     1       3.542  -2.913   4.493  0.00  0.00    +0.210 HD
ENDBRANCH  24  25
ENDBRANCH   5  24
TORSDOF 7
