REMARK  Name = ZINC40334247
REMARK  5 active torsions:
REMARK  status: ('A' for Active; 'I' for Inactive)
REMARK    1  A    between atoms: C_3  and  S_9
REMARK    2  A    between atoms: C_4  and  N_8
REMARK    3  A    between atoms: S_9  and  N_12
REMARK    4  A    between atoms: C_15  and  C_18
REMARK    5  A    between atoms: C_18  and  C_19
REMARK                            x       y       z     vdW  Elec       q    Type
REMARK                         _______ _______ _______ _____ _____    ______ ____
ROOT
ATOM      1  S   UNL     1       3.780   2.387   0.658  0.00  0.00    +0.063 S 
ATOM      2  O   UNL     1       4.727   1.955  -0.310  0.00  0.00    -0.153 OA
ATOM      3  O   UNL     1       3.426   3.754   0.820  0.00  0.00    -0.153 OA
ENDROOT
BRANCH   1   6
ATOM      4  C   UNL     1      -0.090   1.512   0.025  0.00  0.00    +0.017 A 
ATOM      5  C   UNL     1       1.084   2.194   0.287  0.00  0.00    +0.031 A 
ATOM      6  C   UNL     1       2.286   1.516   0.325  0.00  0.00    +0.126 A 
ATOM      7  C   UNL     1       2.315   0.145   0.101  0.00  0.00    +0.052 A 
ATOM      8  C   UNL     1       1.135  -0.539  -0.162  0.00  0.00    +0.040 A 
ATOM      9  C   UNL     1      -0.064   0.147  -0.200  0.00  0.00    +0.020 A 
ATOM     10 BR   UNL     1      -1.672  -0.782  -0.557  0.00  0.00    -0.050 Br
BRANCH   7  11
ATOM     11  N   UNL     1       3.530  -0.544   0.138  0.00  0.00    -0.356 N 
ATOM     12  H   UNL     1       4.365  -0.053   0.189  0.00  0.00    +0.142 HD
ATOM     13  H   UNL     1       3.538  -1.514   0.113  0.00  0.00    +0.142 HD
ENDBRANCH   7  11
ENDBRANCH   1   6
BRANCH   1  14
ATOM     14  N   UNL     1       4.335   1.864   2.128  0.00  0.00    -0.177 NA
ATOM     15  C   UNL     1       3.792   2.422   3.374  0.00  0.00    +0.110 C 
ATOM     16  C   UNL     1       3.313   1.269   4.262  0.00  0.00    +0.021 C 
ATOM     17  C   UNL     1       4.459   0.276   4.465  0.00  0.00    +0.000 C 
ATOM     18  C   UNL     1       4.882  -0.301   3.112  0.00  0.00    +0.021 C 
ATOM     19  C   UNL     1       5.375   0.830   2.211  0.00  0.00    +0.110 C 
BRANCH  17  20
ATOM     20  C   UNL     1       3.994  -0.859   5.380  0.00  0.00    +0.099 C 
BRANCH  20  21
ATOM     21  C   UNL     1       5.156  -1.771   5.679  0.00  0.00    +0.211 C 
ATOM     22  O   UNL     1       6.249  -1.536   5.207  0.00  0.00    -0.276 OA
ATOM     23  N   UNL     1       4.982  -2.847   6.471  0.00  0.00    -0.329 N 
ATOM     24  H   UNL     1       4.108  -3.035   6.849  0.00  0.00    +0.145 HD
ATOM     25  H   UNL     1       5.730  -3.434   6.664  0.00  0.00    +0.145 HD
ENDBRANCH  20  21
ENDBRANCH  17  20
ENDBRANCH   1  14
TORSDOF 5
