REMARK  Name = ZINC41117040
REMARK  6 active torsions:
REMARK  status: ('A' for Active; 'I' for Inactive)
REMARK    1  A    between atoms: C_3  and  C_9
REMARK    2  A    between atoms: C_4  and  O_8
REMARK    3  A    between atoms: C_5  and  O_7
REMARK    4  A    between atoms: C_9  and  N_10
REMARK    5  A    between atoms: N_10  and  C_11
REMARK    6  A    between atoms: C_14  and  N_18
REMARK                            x       y       z     vdW  Elec       q    Type
REMARK                         _______ _______ _______ _____ _____    ______ ____
ROOT
ATOM      1  N   UNL     1       4.198   2.251  -1.388  0.00  0.00    -0.338 N 
ATOM      2  H   UNL     1       3.717   1.820  -2.111  0.00  0.00    +0.146 HD
ENDROOT
BRANCH   1   3
ATOM      3  C   UNL     1       5.395   2.924  -1.648  0.00  0.00    +0.046 A 
ATOM      4  C   UNL     1       6.088   3.537  -0.613  0.00  0.00    +0.026 A 
ATOM      5  C   UNL     1       7.271   4.200  -0.873  0.00  0.00    +0.034 A 
ATOM      6  C   UNL     1       7.766   4.255  -2.163  0.00  0.00    +0.128 A 
ATOM      7  C   UNL     1       7.080   3.646  -3.197  0.00  0.00    +0.054 A 
ATOM      8  C   UNL     1       5.898   2.976  -2.943  0.00  0.00    +0.064 A 
ATOM      9 CL   UNL     1       5.039   2.205  -4.240  0.00  0.00    -0.082 Cl
BRANCH   6  10
ATOM     10  N   UNL     1       9.034   4.968  -2.438  0.00  0.00    +0.056 N 
ATOM     11  O   UNL     1       9.636   5.501  -1.535  0.00  0.00    -0.126 OA
ATOM     12  O   UNL     1       9.468   5.017  -3.566  0.00  0.00    -0.126 OA
ENDBRANCH   6  10
ENDBRANCH   1   3
BRANCH   1  13
ATOM     13  C   UNL     1       3.670   2.198  -0.023  0.00  0.00    +0.140 C 
BRANCH  13  16
ATOM     14  C   UNL     1      -0.017   1.378   0.010  0.00  0.00    +0.004 A 
ATOM     15  C   UNL     1       1.169   2.089   0.002  0.00  0.00    +0.009 A 
ATOM     16  C   UNL     1       2.379   1.420  -0.013  0.00  0.00    +0.015 A 
ATOM     17  C   UNL     1       2.405   0.035  -0.021  0.00  0.00    +0.163 A 
ATOM     18  C   UNL     1       1.211  -0.680  -0.013  0.00  0.00    +0.159 A 
ATOM     19  C   UNL     1       0.002  -0.004   0.002  0.00  0.00    +0.049 A 
BRANCH  18  20
ATOM     20  O   UNL     1       1.232  -2.040  -0.021  0.00  0.00    -0.503 OA
ATOM     21  H   UNL     1       1.246  -2.438   0.860  0.00  0.00    +0.292 HD
ENDBRANCH  18  20
BRANCH  17  22
ATOM     22  O   UNL     1       3.594  -0.625  -0.037  0.00  0.00    -0.503 OA
ATOM     23  H   UNL     1       3.947  -0.820   0.842  0.00  0.00    +0.292 HD
ENDBRANCH  17  22
ENDBRANCH  13  16
ENDBRANCH   1  13
TORSDOF 6
