REMARK  Name = ZINC08816197
REMARK  10 active torsions:
REMARK  status: ('A' for Active; 'I' for Inactive)
REMARK    1  A    between atoms: C_1  and  C_2
REMARK    2  A    between atoms: C_5  and  C_9
REMARK    3  A    between atoms: C_6  and  C_8
REMARK    4  A    between atoms: C_11  and  C_30
REMARK    5  A    between atoms: C_12  and  C_17
REMARK    6  A    between atoms: C_17  and  S_18
REMARK    7  A    between atoms: S_18  and  C_19
REMARK    8  A    between atoms: C_25  and  C_29
REMARK    9  A    between atoms: C_30  and  O_32
REMARK   10  A    between atoms: O_32  and  C_33
REMARK                            x       y       z     vdW  Elec       q    Type
REMARK                         _______ _______ _______ _____ _____    ______ ____
ROOT
ATOM      1  C   UNL     1      -2.497  -4.106   1.260  0.00  0.00    +0.144 C 
ATOM      2  C   UNL     1      -2.481  -2.623   0.948  0.00  0.00    +0.079 C 
ATOM      3  C   UNL     1      -2.273  -2.253  -0.335  0.00  0.00    +0.034 C 
ATOM      4  N   UNL     1      -2.089  -3.185  -1.316  0.00  0.00    -0.272 N 
ATOM      5  C   UNL     1      -2.089  -4.505  -1.095  0.00  0.00    +0.304 C 
ATOM      6  O   UNL     1      -1.911  -5.258  -2.033  0.00  0.00    -0.252 OA
ATOM      7  N   UNL     1      -2.283  -5.028   0.132  0.00  0.00    -0.288 N 
ATOM      8  H   UNL     1      -1.947  -2.872  -2.223  0.00  0.00    +0.156 HD
ATOM      9  H   UNL     1      -2.283  -5.988   0.268  0.00  0.00    +0.151 HD
ENDROOT
BRANCH   1  14
ATOM     10  C   UNL     1      -7.607  -5.367   3.645  0.00  0.00    +0.044 C 
ATOM     11  C   UNL     1      -6.274  -5.039   3.023  0.00  0.00    -0.050 A 
ATOM     12  C   UNL     1      -6.105  -5.144   1.655  0.00  0.00    +0.004 A 
ATOM     13  C   UNL     1      -4.883  -4.843   1.084  0.00  0.00    +0.006 A 
ATOM     14  C   UNL     1      -3.830  -4.435   1.882  0.00  0.00    -0.020 A 
ATOM     15  C   UNL     1      -3.998  -4.334   3.250  0.00  0.00    -0.045 A 
ATOM     16  C   UNL     1      -5.221  -4.633   3.820  0.00  0.00    +0.007 A 
ATOM     17  C   UNL     1      -2.848  -3.896   4.120  0.00  0.00    +0.044 C 
ENDBRANCH   1  14
BRANCH   2  18
ATOM     18  C   UNL     1      -2.676  -1.659   1.964  0.00  0.00    +0.339 C 
ATOM     19  O   UNL     1      -1.751  -1.344   2.690  0.00  0.00    -0.245 OA
BRANCH  18  20
ATOM     20  O   UNL     1      -3.888  -1.090   2.130  0.00  0.00    -0.465 OA
ATOM     21  C   UNL     1      -3.995  -0.070   3.126  0.00  0.00    +0.280 C 
ENDBRANCH  18  20
ENDBRANCH   2  18
BRANCH   3  22
ATOM     22  C   UNL     1      -2.249  -0.789  -0.689  0.00  0.00    +0.128 C 
BRANCH  22  23
ATOM     23  S   UNL     1      -0.540  -0.262  -0.964  0.00  0.00    -0.082 S 
BRANCH  23  24
ATOM     24  C   UNL     1      -0.802   1.438  -1.350  0.00  0.00    +0.168 A 
ATOM     25  N   UNL     1       0.183   2.335  -1.651  0.00  0.00    -0.333 N 
ATOM     26  H   UNL     1       1.165   2.148  -1.692  0.00  0.00    +0.168 HD
ATOM     27  C   UNL     1      -0.431   3.554  -1.891  0.00  0.00    +0.067 A 
ATOM     28  C   UNL     1       0.034   4.814  -2.235  0.00  0.00    +0.028 A 
ATOM     29  C   UNL     1      -0.858   5.852  -2.408  0.00  0.00    +0.005 A 
ATOM     30  C   UNL     1      -2.219   5.644  -2.240  0.00  0.00    -0.048 A 
ATOM     31  C   UNL     1      -2.699   4.399  -1.898  0.00  0.00    +0.033 A 
ATOM     32  C   UNL     1      -1.808   3.337  -1.720  0.00  0.00    +0.090 A 
ATOM     33  N   UNL     1      -1.971   2.028  -1.396  0.00  0.00    -0.222 NA
ATOM     34  C   UNL     1      -3.179   6.789  -2.432  0.00  0.00    +0.044 C 
ENDBRANCH  23  24
ENDBRANCH  22  23
ENDBRANCH   3  22
TORSDOF 6
