REMARK  Name = ZINC66674988
REMARK  10 active torsions:
REMARK  status: ('A' for Active; 'I' for Inactive)
REMARK    1  A    between atoms: C_1  and  C_2
REMARK    2  A    between atoms: C_2  and  N_3
REMARK    3  A    between atoms: N_3  and  C_4
REMARK    4  A    between atoms: C_10  and  C_12
REMARK    5  A    between atoms: C_13  and  C_15
REMARK    6  A    between atoms: C_16  and  C_26
REMARK    7  A    between atoms: C_17  and  C_22
REMARK    8  A    between atoms: C_18  and  C_21
REMARK    9  A    between atoms: C_22  and  O_24
REMARK   10  A    between atoms: O_24  and  C_25
REMARK                            x       y       z     vdW  Elec       q    Type
REMARK                         _______ _______ _______ _____ _____    ______ ____
ROOT
ATOM      1  N   UNL     1       0.709  -0.344  -1.267  0.00  0.00    -0.293 N 
ATOM      2  C   UNL     1      -0.025  -0.801  -2.300  0.00  0.00    +0.263 C 
ATOM      3  O   UNL     1       0.515  -1.399  -3.212  0.00  0.00    -0.268 OA
ENDROOT
BRANCH   2   4
ATOM      4  C   UNL     1      -1.475  -0.577  -2.326  0.00  0.00    +0.106 A 
ATOM      5  C   UNL     1      -2.402  -1.267  -1.603  0.00  0.00    -0.006 A 
ATOM      6  C   UNL     1      -3.667  -0.728  -1.931  0.00  0.00    +0.083 A 
ATOM      7  C   UNL     1      -3.452   0.280  -2.853  0.00  0.00    +0.028 A 
ATOM      8  N   UNL     1      -2.132   0.370  -3.082  0.00  0.00    -0.354 N 
ATOM      9  H   UNL     1      -1.709   1.000  -3.685  0.00  0.00    +0.166 HD
ATOM     10  C   UNL     1      -4.517   1.137  -3.487  0.00  0.00    +0.064 C 
ATOM     11  C   UNL     1      -2.130  -2.391  -0.637  0.00  0.00    +0.047 C 
BRANCH   6  12
ATOM     12  C   UNL     1      -4.969  -1.160  -1.394  0.00  0.00    +0.341 C 
ATOM     13  O   UNL     1      -5.413  -0.642  -0.388  0.00  0.00    -0.245 OA
BRANCH  12  14
ATOM     14  O   UNL     1      -5.667  -2.129  -2.017  0.00  0.00    -0.464 OA
ATOM     15  C   UNL     1      -6.922  -2.497  -1.441  0.00  0.00    +0.280 C 
ENDBRANCH  12  14
ENDBRANCH   6  12
ENDBRANCH   2   4
BRANCH   1  16
ATOM     16  C   UNL     1       2.168  -0.473  -1.290  0.00  0.00    +0.079 C 
ATOM     17  C   UNL     1       2.548  -1.952  -1.388  0.00  0.00    +0.023 C 
ATOM     18  C   UNL     1       4.072  -2.087  -1.413  0.00  0.00    +0.002 C 
ATOM     19  C   UNL     1       4.631  -1.336  -2.623  0.00  0.00    +0.000 C 
ATOM     20  C   UNL     1       4.251   0.143  -2.526  0.00  0.00    +0.005 C 
ATOM     21  C   UNL     1       2.727   0.278  -2.501  0.00  0.00    +0.006 C 
ATOM     22  C   UNL     1       2.348   1.757  -2.403  0.00  0.00    +0.009 C 
ENDBRANCH   1  16
BRANCH   1  24
ATOM     23  C   UNL     1      -0.118   1.780  -0.381  0.00  0.00    +0.024 C 
ATOM     24  C   UNL     1       0.048   0.282  -0.119  0.00  0.00    +0.105 C 
ENDBRANCH   1  24
TORSDOF 5
