REMARK  Name = ZINC12225229
REMARK  12 active torsions:
REMARK  status: ('A' for Active; 'I' for Inactive)
REMARK    1  A    between atoms: C_1  and  C_2
REMARK    2  A    between atoms: C_2  and  O_3
REMARK    3  A    between atoms: O_3  and  C_4
REMARK    4  A    between atoms: C_4  and  C_6
REMARK    5  A    between atoms: C_6  and  C_8
REMARK    6  A    between atoms: C_6  and  S_11
REMARK    7  A    between atoms: C_8  and  C_10
REMARK    8  A    between atoms: S_11  and  C_12
REMARK    9  A    between atoms: C_17  and  N_21
REMARK   10  A    between atoms: C_18  and  N_20
REMARK   11  A    between atoms: C_22  and  C_24
REMARK   12  A    between atoms: C_27  and  C_30
REMARK                            x       y       z     vdW  Elec       q    Type
REMARK                         _______ _______ _______ _____ _____    ______ ____
ROOT
ATOM      1  C   UNL     1      -0.683   2.295  -6.298  0.00  0.00    +0.172 A 
ATOM      2  N   UNL     1      -0.155   2.433  -7.546  0.00  0.00    -0.300 N 
ATOM      3  H   UNL     1       0.750   2.133  -7.725  0.00  0.00    +0.171 HD
ATOM      4  C   UNL     1      -0.889   2.982  -8.537  0.00  0.00    +0.275 A 
ATOM      5  O   UNL     1      -0.425   3.105  -9.659  0.00  0.00    -0.266 OA
ATOM      6  C   UNL     1      -2.193   3.413  -8.252  0.00  0.00    +0.139 A 
ATOM      7  C   UNL     1      -2.682   3.253  -6.959  0.00  0.00    +0.146 A 
ATOM      8  N   UNL     1      -1.906   2.697  -6.022  0.00  0.00    -0.207 NA
ENDROOT
BRANCH   6   9
ATOM      9  N   UNL     1      -2.992   3.995  -9.255  0.00  0.00    -0.274 N 
ATOM     10  C   UNL     1      -2.580   5.116  -9.879  0.00  0.00    +0.248 C 
ATOM     11  O   UNL     1      -1.480   5.576  -9.638  0.00  0.00    -0.270 OA
ATOM     12  H   UNL     1      -3.840   3.589  -9.496  0.00  0.00    +0.155 HD
BRANCH  10  13
ATOM     13  C   UNL     1      -3.464   5.785 -10.857  0.00  0.00    +0.037 A 
ATOM     14  C   UNL     1      -4.724   5.256 -11.140  0.00  0.00    +0.013 A 
ATOM     15  C   UNL     1      -5.546   5.889 -12.049  0.00  0.00    +0.013 A 
ATOM     16  C   UNL     1      -5.119   7.039 -12.688  0.00  0.00    +0.055 A 
ATOM     17  C   UNL     1      -3.869   7.566 -12.416  0.00  0.00    +0.013 A 
ATOM     18  C   UNL     1      -3.039   6.946 -11.505  0.00  0.00    +0.013 A 
BRANCH  16  19
ATOM     19  C   UNL     1      -6.020   7.722 -13.685  0.00  0.00    +0.417 C 
ATOM     20  F   UNL     1      -5.781   7.204 -14.962  0.00  0.00    -0.166 F 
ATOM     21  F   UNL     1      -7.356   7.500 -13.334  0.00  0.00    -0.166 F 
ATOM     22  F   UNL     1      -5.761   9.097 -13.683  0.00  0.00    -0.166 F 
ENDBRANCH  16  19
ENDBRANCH  10  13
ENDBRANCH   6   9
BRANCH   7  23
ATOM     23  N   UNL     1      -3.963   3.667  -6.644  0.00  0.00    -0.341 N 
ATOM     24  H   UNL     1      -4.301   3.555  -5.742  0.00  0.00    +0.144 HD
ATOM     25  H   UNL     1      -4.524   4.070  -7.326  0.00  0.00    +0.144 HD
ENDBRANCH   7  23
BRANCH   1  26
ATOM     26  S   UNL     1       0.295   1.570  -5.024  0.00  0.00    -0.065 S 
BRANCH  26  27
ATOM     27  C   UNL     1      -0.875   1.653  -3.645  0.00  0.00    +0.228 C 
BRANCH  27  28
ATOM     28  C   UNL     1      -2.059   0.768  -3.937  0.00  0.00    +0.154 C 
ATOM     29  O   UNL     1      -3.162   1.093  -3.567  0.00  0.00    -0.296 OA
ATOM     30  C   UNL     1      -1.867  -0.523  -4.691  0.00  0.00    +0.088 C 
ENDBRANCH  27  28
BRANCH  27  31
ATOM     31  C   UNL     1      -0.197   1.185  -2.383  0.00  0.00    +0.328 C 
ATOM     32  O   UNL     1       0.801   0.506  -2.449  0.00  0.00    -0.249 OA
BRANCH  31  33
ATOM     33  O   UNL     1      -0.701   1.522  -1.186  0.00  0.00    -0.464 OA
BRANCH  33  35
ATOM     34  C   UNL     1      -0.714   1.517   1.249  0.00  0.00    +0.048 C 
ATOM     35  C   UNL     1       0.003   1.036  -0.013  0.00  0.00    +0.229 C 
ENDBRANCH  33  35
ENDBRANCH  31  33
ENDBRANCH  27  31
ENDBRANCH  26  27
ENDBRANCH   1  26
TORSDOF 10
