REMARK  Name = ZINC66956669
REMARK  9 active torsions:
REMARK  status: ('A' for Active; 'I' for Inactive)
REMARK    1  A    between atoms: C_1  and  C_2
REMARK    2  A    between atoms: C_2  and  N_3
REMARK    3  A    between atoms: N_3  and  C_4
REMARK    4  A    between atoms: C_4  and  C_6
REMARK    5  A    between atoms: C_4  and  C_7
REMARK    6  A    between atoms: C_7  and  C_8
REMARK    7  A    between atoms: C_7  and  C_9
REMARK    8  A    between atoms: N_12  and  C_13
REMARK    9  A    between atoms: C_16  and  C_19
REMARK                            x       y       z     vdW  Elec       q    Type
REMARK                         _______ _______ _______ _____ _____    ______ ____
ROOT
ATOM      1  C   UNL     1      -2.027  -0.672   3.561  0.00  0.00    +0.035 A 
ATOM      2  C   UNL     1      -2.944  -1.704   3.722  0.00  0.00    +0.024 A 
ATOM      3  C   UNL     1      -3.614  -1.852   4.917  0.00  0.00    +0.013 A 
ATOM      4  C   UNL     1      -3.369  -0.965   5.967  0.00  0.00    +0.019 A 
ATOM      5  C   UNL     1      -2.447   0.070   5.802  0.00  0.00    +0.013 A 
ATOM      6  C   UNL     1      -1.777   0.210   4.606  0.00  0.00    +0.024 A 
ENDROOT
BRANCH   4   7
ATOM      7  C   UNL     1      -4.086  -1.121   7.251  0.00  0.00    +0.164 A 
ATOM      8  N   UNL     1      -4.210  -0.213   8.198  0.00  0.00    -0.129 NA
ATOM      9  N   UNL     1      -4.900  -0.692   9.175  0.00  0.00    -0.134 NA
ATOM     10  C   UNL     1      -5.250  -1.915   8.911  0.00  0.00    +0.134 A 
ATOM     11  N   UNL     1      -4.750  -2.227   7.681  0.00  0.00    -0.311 N 
ATOM     12  C   UNL     1      -4.924  -3.515   7.011  0.00  0.00    +0.125 C 
ATOM     13  C   UNL     1      -5.364  -4.554   8.050  0.00  0.00    +0.022 C 
ATOM     14  C   UNL     1      -6.549  -4.008   8.851  0.00  0.00    +0.009 C 
ATOM     15  C   UNL     1      -6.062  -2.864   9.755  0.00  0.00    +0.076 C 
ENDBRANCH   4   7
BRANCH   1  19
ATOM     16  N   UNL     1      -1.357  -0.573   0.013  0.00  0.00    -0.283 N 
ATOM     17  C   UNL     1      -1.978  -0.802   1.187  0.00  0.00    +0.307 C 
ATOM     18  O   UNL     1      -3.104  -1.259   1.200  0.00  0.00    -0.252 OA
ATOM     19  N   UNL     1      -1.350  -0.524   2.347  0.00  0.00    -0.269 N 
ATOM     20  H   UNL     1      -0.429  -0.221   2.339  0.00  0.00    +0.156 HD
BRANCH  16  22
ATOM     21  C   UNL     1      -0.070   1.507  -0.035  0.00  0.00    +0.024 C 
ATOM     22  C   UNL     1       0.000  -0.021  -0.003  0.00  0.00    +0.106 C 
ENDBRANCH  16  22
BRANCH  16  23
ATOM     23  C   UNL     1      -2.039  -0.875  -1.248  0.00  0.00    +0.077 C 
ATOM     24  C   UNL     1      -2.170   0.405  -2.077  0.00  0.00    +0.028 C 
BRANCH  23  25
ATOM     25  C   UNL     1      -1.229  -1.910  -2.031  0.00  0.00    +0.003 C 
ATOM     26  C   UNL     1      -1.099  -3.189  -1.202  0.00  0.00    +0.009 C 
ATOM     27  C   UNL     1      -1.941  -2.225  -3.348  0.00  0.00    +0.009 C 
ENDBRANCH  23  25
ENDBRANCH  16  23
ENDBRANCH   1  19
TORSDOF 5
