REMARK  Name = ZINC64480290
REMARK  7 active torsions:
REMARK  status: ('A' for Active; 'I' for Inactive)
REMARK    1  A    between atoms: C_1  and  O_2
REMARK    2  A    between atoms: O_2  and  C_3
REMARK    3  A    between atoms: C_6  and  N_9
REMARK    4  A    between atoms: C_17  and  C_23
REMARK    5  A    between atoms: N_25  and  C_26
REMARK    6  A    between atoms: C_26  and  C_27
REMARK    7  A    between atoms: C_27  and  C_28
REMARK                            x       y       z     vdW  Elec       q    Type
REMARK                         _______ _______ _______ _____ _____    ______ ____
ROOT
ATOM      1  N   UNL     1       2.458  -2.458  -4.302  0.00  0.00    -0.268 N 
ATOM      2  C   UNL     1       2.573  -3.937  -4.501  0.00  0.00    +0.153 C 
ATOM      3  C   UNL     1       2.726  -4.037  -5.987  0.00  0.00    +0.116 C 
ATOM      4  C   UNL     1       1.444  -3.720  -6.735  0.00  0.00    +0.008 C 
ATOM      5  C   UNL     1       1.734  -3.859  -8.020  0.00  0.00    +0.004 C 
ATOM      6  C   UNL     1       3.228  -4.204  -8.056  0.00  0.00    +0.155 C 
ATOM      7  O   UNL     1       3.376  -4.987  -6.799  0.00  0.00    -0.359 OA
ATOM      8  C   UNL     1       3.896  -2.822  -7.689  0.00  0.00    +0.122 C 
ATOM      9  C   UNL     1       3.729  -2.827  -6.170  0.00  0.00    +0.127 C 
ATOM     10  C   UNL     1       3.051  -1.803  -5.354  0.00  0.00    +0.227 C 
ATOM     11  O   UNL     1       3.023  -0.609  -5.570  0.00  0.00    -0.275 OA
ENDROOT
BRANCH   1  15
ATOM     12  C   UNL     1       0.606  -0.607  -1.056  0.00  0.00    +0.120 A 
ATOM     13  C   UNL     1       1.173   0.162  -2.062  0.00  0.00    +0.047 A 
ATOM     14  C   UNL     1       1.786  -0.450  -3.137  0.00  0.00    +0.027 A 
ATOM     15  C   UNL     1       1.836  -1.836  -3.211  0.00  0.00    +0.037 A 
ATOM     16  C   UNL     1       1.269  -2.605  -2.204  0.00  0.00    +0.027 A 
ATOM     17  C   UNL     1       0.660  -1.992  -1.127  0.00  0.00    +0.047 A 
BRANCH  12  19
ATOM     18  C   UNL     1      -0.017   1.425   0.010  0.00  0.00    +0.277 C 
ATOM     19  O   UNL     1       0.002  -0.004   0.002  0.00  0.00    -0.495 OA
ENDBRANCH  12  19
ENDBRANCH   1  15
BRANCH   8  20
ATOM     20  C   UNL     1       3.157  -1.676  -8.330  0.00  0.00    +0.220 C 
ATOM     21  O   UNL     1       2.639  -0.826  -7.638  0.00  0.00    -0.275 OA
ATOM     22  N   UNL     1       3.071  -1.597  -9.673  0.00  0.00    -0.315 N 
ATOM     23  H   UNL     1       3.485  -2.277 -10.227  0.00  0.00    +0.149 HD
BRANCH  22  24
ATOM     24  C   UNL     1       2.352  -0.483 -10.296  0.00  0.00    +0.108 C 
BRANCH  24  25
ATOM     25  C   UNL     1       2.404  -0.630 -11.818  0.00  0.00    +0.052 C 
BRANCH  25  26
ATOM     26  C   UNL     1       1.664   0.516 -12.459  0.00  0.00    -0.040 C 
ATOM     27  C   UNL     1       2.196   1.671 -12.919  0.00  0.00    -0.001 A 
ATOM     28  C   UNL     1       3.570   2.187 -12.959  0.00  0.00    +0.010 A 
ATOM     29  C   UNL     1       3.797   3.409 -13.494  0.00  0.00    +0.001 A 
ATOM     30  C   UNL     1       2.756   4.192 -14.010  0.00  0.00    +0.002 A 
ATOM     31  C   UNL     1       1.468   3.786 -14.009  0.00  0.00    +0.026 A 
ATOM     32  C   UNL     1       1.115   2.518 -13.472  0.00  0.00    +0.043 A 
ATOM     33  N   UNL     1      -0.041   1.910 -13.357  0.00  0.00    -0.380 N 
ATOM     34  C   UNL     1       0.178   0.604 -12.724  0.00  0.00    +0.144 C 
ATOM     35  H   UNL     1      -0.897   2.262 -13.646  0.00  0.00    +0.160 HD
ENDBRANCH  25  26
ENDBRANCH  24  25
ENDBRANCH  22  24
ENDBRANCH   8  20
TORSDOF 6
