REMARK  Name = ZINC01762277
REMARK  4 active torsions:
REMARK  status: ('A' for Active; 'I' for Inactive)
REMARK    1  A    between atoms: C_4  and  C_7
REMARK    2  A    between atoms: C_8  and  O_19
REMARK    3  A    between atoms: C_9  and  C_13
REMARK    4  A    between atoms: N_10  and  O_12
REMARK                            x       y       z     vdW  Elec       q    Type
REMARK                         _______ _______ _______ _____ _____    ______ ____
ROOT
ATOM      1  C   UNL     1       2.111   0.771  -0.014  0.00  0.00    +0.138 A 
ATOM      2  C   UNL     1       1.323  -0.396  -0.013  0.00  0.00    +0.174 A 
ATOM      3  C   UNL     1       0.002  -0.004   0.002  0.00  0.00    +0.152 A 
ATOM      4  N   UNL     1      -0.017   1.363   0.009  0.00  0.00    -0.095 N 
ATOM      5  N   UNL     1       1.309   1.815  -0.001  0.00  0.00    -0.132 NA
ENDROOT
BRANCH   1   9
ATOM      6  C   UNL     1       6.361   0.902  -0.056  0.00  0.00    +0.000 A 
ATOM      7  C   UNL     1       5.636   1.867  -0.731  0.00  0.00    +0.001 A 
ATOM      8  C   UNL     1       4.256   1.829  -0.721  0.00  0.00    +0.010 A 
ATOM      9  C   UNL     1       3.594   0.817  -0.029  0.00  0.00    +0.006 A 
ATOM     10  C   UNL     1       4.330  -0.149   0.654  0.00  0.00    +0.010 A 
ATOM     11  C   UNL     1       5.710  -0.105   0.633  0.00  0.00    +0.001 A 
ENDBRANCH   1   9
BRANCH   3  12
ATOM     12  C   UNL     1      -1.177  -0.897   0.008  0.00  0.00    +0.007 A 
ATOM     13  C   UNL     1      -1.231  -1.992  -0.855  0.00  0.00    +0.010 A 
ATOM     14  C   UNL     1      -2.332  -2.823  -0.841  0.00  0.00    +0.001 A 
ATOM     15  C   UNL     1      -3.385  -2.568   0.019  0.00  0.00    +0.000 A 
ATOM     16  C   UNL     1      -3.340  -1.480   0.873  0.00  0.00    +0.001 A 
ATOM     17  C   UNL     1      -2.243  -0.644   0.873  0.00  0.00    +0.010 A 
ENDBRANCH   3  12
BRANCH   4  18
ATOM     18  O   UNL     1      -1.173   2.180   0.020  0.00  0.00    -0.409 OA
ATOM     19  H   UNL     1      -1.490   2.402   0.906  0.00  0.00    +0.328 HD
ENDBRANCH   4  18
BRANCH   2  20
ATOM     20  O   UNL     1       1.782  -1.677  -0.024  0.00  0.00    -0.503 OA
ATOM     21  H   UNL     1       1.906  -2.042  -0.911  0.00  0.00    +0.292 HD
ENDBRANCH   2  20
TORSDOF 4
