REMARK  Name = ZINC14584262
REMARK  10 active torsions:
REMARK  status: ('A' for Active; 'I' for Inactive)
REMARK    1  A    between atoms: C_1  and  C_2
REMARK    2  A    between atoms: C_2  and  N_3
REMARK    3  A    between atoms: N_3  and  C_4
REMARK    4  A    between atoms: C_5  and  N_20
REMARK    5  A    between atoms: N_6  and  C_13
REMARK    6  A    between atoms: C_13  and  C_14
REMARK    7  A    between atoms: C_21  and  C_23
REMARK    8  A    between atoms: C_23  and  C_24
REMARK    9  A    between atoms: C_24  and  N_25
REMARK   10  A    between atoms: C_26  and  C_28
REMARK                            x       y       z     vdW  Elec       q    Type
REMARK                         _______ _______ _______ _____ _____    ______ ____
ROOT
ATOM      1  C   UNL     1       1.160   2.937   0.046  0.00  0.00    +0.140 A 
ATOM      2  C   UNL     1       0.749   2.269   1.181  0.00  0.00    +0.128 A 
ATOM      3  N   UNL     1      -0.425   1.551   1.149  0.00  0.00    -0.276 N 
ATOM      4  C   UNL     1      -1.165   1.506   0.027  0.00  0.00    +0.331 A 
ATOM      5  O   UNL     1      -2.201   0.870   0.021  0.00  0.00    -0.246 OA
ATOM      6  N   UNL     1      -0.777   2.146  -1.090  0.00  0.00    -0.273 N 
ATOM      7  H   UNL     1      -1.342   2.090  -1.913  0.00  0.00    +0.173 HD
ATOM      8  C   UNL     1       0.364   2.863  -1.113  0.00  0.00    +0.277 A 
ATOM      9  O   UNL     1       0.704   3.443  -2.130  0.00  0.00    -0.266 OA
ENDROOT
BRANCH   1  10
ATOM     10  N   UNL     1       2.359   3.681   0.046  0.00  0.00    -0.264 N 
ATOM     11  C   UNL     1       2.319   5.023  -0.093  0.00  0.00    +0.221 C 
ATOM     12  O   UNL     1       1.252   5.598  -0.129  0.00  0.00    -0.275 OA
BRANCH  10  14
ATOM     13  C   UNL     1       4.247   2.731  -1.183  0.00  0.00    +0.025 C 
ATOM     14  C   UNL     1       3.646   2.998   0.198  0.00  0.00    +0.110 C 
ENDBRANCH  10  14
BRANCH  11  15
ATOM     15  C   UNL     1       3.602   5.807  -0.205  0.00  0.00    +0.115 C 
BRANCH  15  16
ATOM     16  C   UNL     1       3.278   7.295  -0.353  0.00  0.00    +0.114 C 
BRANCH  16  17
ATOM     17  N   UNL     1       4.525   8.057  -0.461  0.00  0.00    -0.308 N 
ATOM     18  C   UNL     1       4.486   9.397  -0.601  0.00  0.00    +0.279 C 
ATOM     19  O   UNL     1       3.415   9.974  -0.636  0.00  0.00    -0.267 OA
ATOM     20  H   UNL     1       5.379   7.597  -0.433  0.00  0.00    +0.149 HD
BRANCH  18  21
ATOM     21  C   UNL     1       5.734  10.159  -0.709  0.00  0.00    +0.189 A 
ATOM     22  C   UNL     1       5.837  11.514  -0.853  0.00  0.00    +0.054 A 
ATOM     23  C   UNL     1       7.207  11.810  -0.915  0.00  0.00    +0.042 A 
ATOM     24  C   UNL     1       7.872  10.639  -0.807  0.00  0.00    +0.196 A 
ATOM     25  O   UNL     1       6.981   9.647  -0.678  0.00  0.00    -0.458 OA
ENDBRANCH  18  21
ENDBRANCH  16  17
ENDBRANCH  15  16
ENDBRANCH  11  15
ENDBRANCH   1  10
BRANCH   2  26
ATOM     26  N   UNL     1       1.502   2.319   2.329  0.00  0.00    -0.343 N 
ATOM     27  H   UNL     1       2.349   2.791   2.333  0.00  0.00    +0.144 HD
ATOM     28  H   UNL     1       1.187   1.883   3.136  0.00  0.00    +0.144 HD
ENDBRANCH   2  26
BRANCH   3  29
ATOM     29  C   UNL     1      -0.874   0.837   2.347  0.00  0.00    +0.163 C 
BRANCH  29  30
ATOM     30  C   UNL     1      -1.744   1.746   3.177  0.00  0.00    -0.028 A 
ATOM     31  C   UNL     1      -1.177   2.544   4.153  0.00  0.00    +0.005 A 
ATOM     32  C   UNL     1      -1.975   3.381   4.911  0.00  0.00    +0.000 A 
ATOM     33  C   UNL     1      -3.341   3.412   4.699  0.00  0.00    +0.000 A 
ATOM     34  C   UNL     1      -3.908   2.610   3.727  0.00  0.00    +0.000 A 
ATOM     35  C   UNL     1      -3.110   1.777   2.966  0.00  0.00    +0.005 A 
ENDBRANCH  29  30
ENDBRANCH   3  29
TORSDOF 9
