REMARK  Name = ZINC12021512
REMARK  4 active torsions:
REMARK  status: ('A' for Active; 'I' for Inactive)
REMARK    1  A    between atoms: C_5  and  C_10
REMARK    2  A    between atoms: N_12  and  C_13
REMARK    3  A    between atoms: C_13  and  C_14
REMARK    4  A    between atoms: C_21  and  C_24
REMARK                            x       y       z     vdW  Elec       q    Type
REMARK                         _______ _______ _______ _____ _____    ______ ____
ROOT
ATOM      1  C   UNL     1       0.002  -0.004   0.002  0.00  0.00    +0.195 C 
ATOM      2  C   UNL     1       1.338  -0.324  -0.710  0.00  0.00    +0.085 C 
ATOM      3  C   UNL     1       2.151   0.925  -0.426  0.00  0.00    -0.000 A 
ATOM      4  C   UNL     1       3.500   1.191  -0.521  0.00  0.00    +0.027 A 
ATOM      5  C   UNL     1       3.989   2.443  -0.185  0.00  0.00    +0.042 A 
ATOM      6  C   UNL     1       3.122   3.427   0.249  0.00  0.00    +0.032 A 
ATOM      7  C   UNL     1       1.759   3.166   0.345  0.00  0.00    +0.025 A 
ATOM      8  C   UNL     1       1.261   1.900   0.000  0.00  0.00    +0.132 A 
ATOM      9  O   UNL     1      -0.017   1.433   0.010  0.00  0.00    -0.486 OA
ATOM     10 CL   UNL     1       5.689   2.774  -0.308  0.00  0.00    -0.084 Cl
ENDROOT
BRANCH   7  11
ATOM     11  C   UNL     1       0.832   4.226   0.812  0.00  0.00    -0.014 A 
ATOM     12  C   UNL     1      -0.321   4.519   0.076  0.00  0.00    +0.010 A 
ATOM     13  C   UNL     1      -1.184   5.491   0.491  0.00  0.00    +0.027 A 
ATOM     14  C   UNL     1      -0.926   6.205   1.659  0.00  0.00    +0.046 A 
ATOM     15  C   UNL     1       0.230   5.918   2.408  0.00  0.00    +0.000 A 
ATOM     16  C   UNL     1       1.107   4.921   1.982  0.00  0.00    +0.018 A 
ATOM     17  C   UNL     1       0.206   6.829   3.555  0.00  0.00    +0.027 A 
ATOM     18  C   UNL     1      -0.905   7.575   3.441  0.00  0.00    +0.083 A 
ATOM     19  N   UNL     1      -1.593   7.216   2.314  0.00  0.00    -0.361 N 
ATOM     20  H   UNL     1      -2.428   7.614   2.021  0.00  0.00    +0.165 HD
ENDBRANCH   7  11
BRANCH   1  21
ATOM     21  C   UNL     1      -1.182  -0.558  -0.793  0.00  0.00    +0.149 C 
BRANCH  21  24
ATOM     22  C   UNL     1      -3.616  -0.507  -0.693  0.00  0.00    +0.249 C 
ATOM     23  O   UNL     1      -3.642  -1.196  -1.696  0.00  0.00    -0.270 OA
ATOM     24  N   UNL     1      -2.435  -0.134  -0.162  0.00  0.00    -0.308 N 
ATOM     25  H   UNL     1      -2.414   0.414   0.637  0.00  0.00    +0.149 HD
BRANCH  22  30
ATOM     26  C   UNL     1      -8.840  -0.635  -0.853  0.00  0.00    +0.039 A 
ATOM     27  C   UNL     1      -7.927  -1.230  -1.732  0.00  0.00    +0.114 A 
ATOM     28  N   UNL     1      -6.635  -1.090  -1.534  0.00  0.00    -0.235 NA
ATOM     29  C   UNL     1      -6.173  -0.386  -0.500  0.00  0.00    +0.168 A 
ATOM     30  C   UNL     1      -4.869  -0.083  -0.062  0.00  0.00    +0.100 A 
ATOM     31  C   UNL     1      -4.999   0.709   1.093  0.00  0.00    +0.150 A 
ATOM     32  N   UNL     1      -6.271   0.875   1.347  0.00  0.00    -0.173 NA
ATOM     33  N   UNL     1      -7.031   0.206   0.382  0.00  0.00    -0.221 N 
ATOM     34  C   UNL     1      -8.377   0.076   0.207  0.00  0.00    +0.116 A 
ENDBRANCH  22  30
ENDBRANCH  21  24
ENDBRANCH   1  21
TORSDOF 4
