REMARK  Name = ZINC66840316
REMARK  5 active torsions:
REMARK  status: ('A' for Active; 'I' for Inactive)
REMARK    1  A    between atoms: C_3  and  C_21
REMARK    2  A    between atoms: C_6  and  C_7
REMARK    3  A    between atoms: C_7  and  N_8
REMARK    4  A    between atoms: C_9  and  C_11
REMARK    5  A    between atoms: C_21  and  N_22
REMARK                            x       y       z     vdW  Elec       q    Type
REMARK                         _______ _______ _______ _____ _____    ______ ____
ROOT
ATOM      1  C   UNL     1      -0.014   1.376   0.009  0.00  0.00    +0.005 A 
ATOM      2  C   UNL     1       1.173   2.084   0.001  0.00  0.00    +0.002 A 
ATOM      3  C   UNL     1       2.380   1.409  -0.015  0.00  0.00    -0.064 A 
ATOM      4  C   UNL     1       2.399   0.027  -0.023  0.00  0.00    +0.002 A 
ATOM      5  C   UNL     1       1.212  -0.681  -0.014  0.00  0.00    +0.005 A 
ATOM      6  C   UNL     1       0.005  -0.006   0.001  0.00  0.00    -0.030 A 
ENDROOT
BRANCH   6   7
ATOM      7  C   UNL     1      -1.289  -0.778   0.009  0.00  0.00    +0.139 C 
BRANCH   7   8
ATOM      8  N   UNL     1      -1.723  -1.020  -1.369  0.00  0.00    -0.311 N 
ATOM      9  C   UNL     1      -2.864  -1.697  -1.607  0.00  0.00    +0.218 C 
ATOM     10  O   UNL     1      -3.531  -2.107  -0.681  0.00  0.00    -0.275 OA
ATOM     11  H   UNL     1      -1.189  -0.693  -2.110  0.00  0.00    +0.149 HD
BRANCH   9  12
ATOM     12  C   UNL     1      -3.310  -1.946  -3.025  0.00  0.00    +0.092 C 
ATOM     13  C   UNL     1      -4.625  -2.728  -3.017  0.00  0.00    +0.016 C 
ATOM     14  C   UNL     1      -5.062  -3.010  -4.456  0.00  0.00    +0.020 C 
ATOM     15  C   UNL     1      -5.294  -1.682  -5.184  0.00  0.00    +0.109 C 
ATOM     16  N   UNL     1      -4.080  -0.863  -5.072  0.00  0.00    -0.285 N 
ATOM     17  C   UNL     1      -3.521  -0.606  -3.737  0.00  0.00    +0.122 C 
ATOM     18  C   UNL     1      -3.489  -0.356  -6.172  0.00  0.00    +0.300 C 
ATOM     19  O   UNL     1      -2.539   0.395  -6.061  0.00  0.00    -0.253 OA
ATOM     20  N   UNL     1      -3.950  -0.682  -7.396  0.00  0.00    -0.313 N 
ATOM     21  H   UNL     1      -4.752  -1.221  -7.484  0.00  0.00    +0.146 HD
ATOM     22  H   UNL     1      -3.481  -0.378  -8.188  0.00  0.00    +0.146 HD
ENDBRANCH   9  12
ENDBRANCH   7   8
ENDBRANCH   6   7
BRANCH   3  23
ATOM     23  C   UNL     1       3.674   2.181  -0.024  0.00  0.00    -0.043 C 
BRANCH  23  24
ATOM     24  N   UNL     1       4.109   2.425   1.358  0.00  0.00    +0.382 N 
ATOM     25  C   UNL     1       4.414   1.142   2.006  0.00  0.00    -0.078 C 
ATOM     26  C   UNL     1       5.215   1.372   3.286  0.00  0.00    -0.019 C 
ATOM     27  C   UNL     1       4.275   1.857   4.396  0.00  0.00    -0.002 C 
ATOM     28  C   UNL     1       3.915   3.319   4.127  0.00  0.00    -0.000 C 
ATOM     29  C   UNL     1       5.176   4.077   3.713  0.00  0.00    -0.002 C 
ATOM     30  C   UNL     1       5.064   4.497   2.249  0.00  0.00    -0.019 C 
ATOM     31  C   UNL     1       5.305   3.278   1.349  0.00  0.00    -0.078 C 
ATOM     32  H   UNL     1       3.370   2.888   1.865  0.00  0.00    -0.081 HD
ENDBRANCH  23  24
ENDBRANCH   3  23
TORSDOF 5
