REMARK  Name = ZINC05322861
REMARK  4 active torsions:
REMARK  status: ('A' for Active; 'I' for Inactive)
REMARK    1  A    between atoms: C_1  and  C_2
REMARK    2  A    between atoms: C_11  and  O_26
REMARK    3  A    between atoms: C_17  and  C_18
REMARK    4  A    between atoms: C_18  and  C_19
REMARK                            x       y       z     vdW  Elec       q    Type
REMARK                         _______ _______ _______ _____ _____    ______ ____
ROOT
ATOM      1  C   UNL     1      -2.626   1.406   0.640  0.00  0.00    +0.044 C 
ATOM      2  C   UNL     1      -1.301   2.097   0.449  0.00  0.00    -0.047 A 
ATOM      3  C   UNL     1      -1.268   3.437   0.108  0.00  0.00    +0.005 A 
ATOM      4  C   UNL     1      -0.054   4.075  -0.069  0.00  0.00    +0.027 A 
ATOM      5  C   UNL     1       1.123   3.370   0.100  0.00  0.00    +0.083 A 
ATOM      6  C   UNL     1       1.098   2.014   0.441  0.00  0.00    +0.153 A 
ATOM      7  C   UNL     1      -0.128   1.388   0.620  0.00  0.00    +0.051 A 
ATOM      8  O   UNL     1       2.245   1.299   0.581  0.00  0.00    -0.420 OA
ATOM      9  C   UNL     1       3.424   1.958   0.631  0.00  0.00    +0.369 C 
ATOM     10  O   UNL     1       4.311   1.615   1.377  0.00  0.00    -0.245 OA
ATOM     11  C   UNL     1       3.579   3.147  -0.293  0.00  0.00    +0.274 C 
ATOM     12  N   UNL     1       2.373   3.974  -0.054  0.00  0.00    -0.219 N 
ATOM     13  C   UNL     1       2.751   5.248   0.027  0.00  0.00    +0.294 C 
ATOM     14  O   UNL     1       2.013   6.208  -0.068  0.00  0.00    -0.266 OA
ATOM     15  C   UNL     1       4.224   5.312   0.254  0.00  0.00    +0.253 C 
ATOM     16  O   UNL     1       4.863   6.311   0.531  0.00  0.00    -0.282 OA
ATOM     17  C   UNL     1       4.747   4.014   0.089  0.00  0.00    +0.113 C 
ENDROOT
BRANCH  17  18
ATOM     18  C   UNL     1       6.059   3.620   0.246  0.00  0.00    +0.198 C 
ATOM     19  O   UNL     1       6.430   2.364  -0.081  0.00  0.00    -0.287 OA
BRANCH  18  20
ATOM     20  C   UNL     1       7.056   4.570   0.770  0.00  0.00    +0.022 A 
ATOM     21  C   UNL     1       8.270   4.755   0.101  0.00  0.00    +0.012 A 
ATOM     22  C   UNL     1       9.195   5.651   0.595  0.00  0.00    +0.001 A 
ATOM     23  C   UNL     1       8.930   6.356   1.756  0.00  0.00    +0.000 A 
ATOM     24  C   UNL     1       7.733   6.174   2.427  0.00  0.00    +0.001 A 
ATOM     25  C   UNL     1       6.795   5.287   1.942  0.00  0.00    +0.012 A 
ENDBRANCH  18  20
ENDBRANCH  17  18
BRANCH  11  26
ATOM     26  O   UNL     1       3.658   2.730  -1.657  0.00  0.00    -0.359 OA
ATOM     27  H   UNL     1       3.772   3.478  -2.455  0.00  0.00    +0.213 HD
ENDBRANCH  11  26
TORSDOF 3
