REMARK  Name = ZINC06300550
REMARK  9 active torsions:
REMARK  status: ('A' for Active; 'I' for Inactive)
REMARK    1  A    between atoms: C_1  and  C_2
REMARK    2  A    between atoms: C_4  and  C_34
REMARK    3  A    between atoms: C_9  and  C_14
REMARK    4  A    between atoms: C_14  and  N_67
REMARK    5  A    between atoms: C_15  and  C_16
REMARK    6  A    between atoms: C_15  and  N_67
REMARK    7  A    between atoms: N_20  and  C_21
REMARK    8  A    between atoms: C_27  and  C_28
REMARK    9  A    between atoms: C_27  and  N_67
REMARK                            x       y       z     vdW  Elec       q    Type
REMARK                         _______ _______ _______ _____ _____    ______ ____
ROOT
ATOM      1  N   UNL     1       3.187   3.461  -0.489  0.00  0.00    +0.389 N 
ATOM      2  H   UNL     1       3.853   2.814  -0.928  0.00  0.00    -0.081 HD
ENDROOT
BRANCH   1   3
ATOM      3  C   UNL     1       3.572   3.660   0.924  0.00  0.00    -0.037 C 
BRANCH   3  12
ATOM      4  C   UNL     1       9.486   8.187   1.323  0.00  0.00    +0.044 C 
ATOM      5  C   UNL     1       8.892   6.803   1.249  0.00  0.00    -0.050 A 
ATOM      6  C   UNL     1       9.729   5.695   1.242  0.00  0.00    +0.008 A 
ATOM      7  C   UNL     1       9.208   4.421   1.175  0.00  0.00    -0.026 A 
ATOM      8  C   UNL     1       7.829   4.242   1.114  0.00  0.00    +0.052 A 
ATOM      9  C   UNL     1       6.985   5.367   1.121  0.00  0.00    -0.001 A 
ATOM     10  C   UNL     1       7.536   6.651   1.189  0.00  0.00    +0.013 A 
ATOM     11  C   UNL     1       5.536   5.168   1.056  0.00  0.00    +0.017 A 
ATOM     12  C   UNL     1       5.059   3.901   0.991  0.00  0.00    +0.001 A 
ATOM     13  C   UNL     1       5.949   2.805   0.992  0.00  0.00    +0.251 A 
ATOM     14  O   UNL     1       5.498   1.674   0.939  0.00  0.00    -0.268 OA
ATOM     15  N   UNL     1       7.281   2.979   1.046  0.00  0.00    -0.322 N 
ATOM     16  H   UNL     1       7.864   2.204   1.041  0.00  0.00    +0.169 HD
ATOM     17  C   UNL     1      10.127   3.227   1.167  0.00  0.00    +0.046 C 
ENDBRANCH   3  12
ENDBRANCH   1   3
BRANCH   1  18
ATOM     18  C   UNL     1       3.224   4.751  -1.209  0.00  0.00    +0.001 C 
BRANCH  18  19
ATOM     19  C   UNL     1       3.045   4.490  -2.683  0.00  0.00    +0.135 A 
ATOM     20  N   UNL     1       1.912   4.462  -3.341  0.00  0.00    -0.115 NA
ATOM     21  N   UNL     1       2.175   4.208  -4.576  0.00  0.00    -0.023 NA
ATOM     22  N   UNL     1       3.447   4.074  -4.723  0.00  0.00    -0.044 NA
ATOM     23  N   UNL     1       4.019   4.245  -3.580  0.00  0.00    -0.228 N 
BRANCH  23  24
ATOM     24  C   UNL     1       5.457   4.183  -3.308  0.00  0.00    +0.111 C 
ATOM     25  C   UNL     1       6.180   5.245  -4.138  0.00  0.00    +0.027 C 
ATOM     26  C   UNL     1       7.682   5.179  -3.853  0.00  0.00    +0.002 C 
ATOM     27  C   UNL     1       8.211   3.793  -4.227  0.00  0.00    +0.000 C 
ATOM     28  C   UNL     1       7.488   2.731  -3.397  0.00  0.00    +0.002 C 
ATOM     29  C   UNL     1       5.986   2.796  -3.681  0.00  0.00    +0.027 C 
ENDBRANCH  23  24
ENDBRANCH  18  19
ENDBRANCH   1  18
BRANCH   1  30
ATOM     30  C   UNL     1       1.831   2.878  -0.565  0.00  0.00    -0.046 C 
BRANCH  30  31
ATOM     31  C   UNL     1       1.905   1.405  -0.158  0.00  0.00    +0.102 C 
ATOM     32  C   UNL     1       0.505   0.746  -0.238  0.00  0.00    +0.032 C 
ATOM     33  C   UNL     1       0.861  -0.748  -0.433  0.00  0.00    +0.030 C 
ATOM     34  C   UNL     1       2.305  -0.725  -0.971  0.00  0.00    +0.160 C 
ATOM     35  O   UNL     1       2.687   0.653  -1.110  0.00  0.00    -0.378 OA
ENDBRANCH  30  31
ENDBRANCH   1  30
TORSDOF 7
