REMARK  Name = ZINC05643064
REMARK  7 active torsions:
REMARK  status: ('A' for Active; 'I' for Inactive)
REMARK    1  A    between atoms: C_1  and  C_2
REMARK    2  A    between atoms: C_2  and  C_3
REMARK    3  A    between atoms: C_3  and  C_4
REMARK    4  A    between atoms: C_4  and  C_6
REMARK    5  A    between atoms: C_4  and  N_7
REMARK    6  A    between atoms: C_10  and  O_12
REMARK    7  A    between atoms: C_13  and  C_20
REMARK                            x       y       z     vdW  Elec       q    Type
REMARK                         _______ _______ _______ _____ _____    ______ ____
ROOT
ATOM      1  N   UNL     1       1.527  -2.499  -2.407  0.00  0.00    -0.244 N 
ATOM      2  C   UNL     1       2.655  -3.282  -2.338  0.00  0.00    +0.132 A 
ATOM      3  C   UNL     1       3.071  -3.491  -3.606  0.00  0.00    +0.072 A 
ATOM      4  C   UNL     1       2.176  -2.817  -4.470  0.00  0.00    +0.238 A 
ATOM      5  N   UNL     1       1.258  -2.235  -3.749  0.00  0.00    -0.131 NA
ATOM      6  C   UNL     1       4.240  -4.269  -4.123  0.00  0.00    +0.115 C 
ATOM      7  S   UNL     1       4.622  -5.718  -3.136  0.00  0.00    -0.138 S 
ATOM      8  C   UNL     1       5.209  -5.099  -1.553  0.00  0.00    +0.166 C 
ATOM      9  C   UNL     1       4.144  -4.455  -0.755  0.00  0.00    +0.228 C 
ATOM     10  O   UNL     1       4.201  -4.668   0.438  0.00  0.00    -0.275 OA
ATOM     11  N   UNL     1       3.157  -3.697  -1.128  0.00  0.00    -0.270 N 
ATOM     12  H   UNL     1       2.658  -3.340  -0.376  0.00  0.00    +0.156 HD
ENDROOT
BRANCH   6  13
ATOM     13  C   UNL     1       3.940  -4.712  -5.532  0.00  0.00    -0.026 A 
ATOM     14  C   UNL     1       2.845  -5.517  -5.784  0.00  0.00    +0.009 A 
ATOM     15  C   UNL     1       2.565  -5.926  -7.074  0.00  0.00    +0.050 A 
ATOM     16  C   UNL     1       3.384  -5.530  -8.119  0.00  0.00    +0.166 A 
ATOM     17  C   UNL     1       4.488  -4.720  -7.866  0.00  0.00    +0.167 A 
ATOM     18  C   UNL     1       4.758  -4.309  -6.571  0.00  0.00    +0.054 A 
ATOM     19  O   UNL     1       5.127  -4.471  -9.046  0.00  0.00    -0.453 OA
ATOM     20  C   UNL     1       4.641  -5.469  -9.964  0.00  0.00    +0.466 C 
ATOM     21  O   UNL     1       3.331  -5.790  -9.459  0.00  0.00    -0.453 OA
ENDBRANCH   6  13
BRANCH   1  22
ATOM     22  C   UNL     1       0.739  -2.027  -1.265  0.00  0.00    +0.106 C 
ATOM     23  C   UNL     1      -0.692  -2.556  -1.380  0.00  0.00    +0.032 C 
BRANCH  22  24
ATOM     24  C   UNL     1       0.718  -0.497  -1.257  0.00  0.00    +0.026 C 
BRANCH  24  26
ATOM     25  C   UNL     1      -0.019   1.526   0.010  0.00  0.00    +0.004 C 
ATOM     26  C   UNL     1       0.002  -0.004   0.002  0.00  0.00    -0.001 C 
ENDBRANCH  24  26
ENDBRANCH  22  24
ENDBRANCH   1  22
BRANCH   4  27
ATOM     27  O   UNL     1       2.257  -2.787  -5.827  0.00  0.00    -0.491 OA
ATOM     28  H   UNL     1       1.779  -3.503  -6.266  0.00  0.00    +0.294 HD
ENDBRANCH   4  27
TORSDOF 5
