REMARK  Name = ZINC36390216
REMARK  15 active torsions:
REMARK  status: ('A' for Active; 'I' for Inactive)
REMARK    1  A    between atoms: C_1  and  C_2
REMARK    2  A    between atoms: C_7  and  N_12
REMARK    3  A    between atoms: C_9  and  C_11
REMARK    4  A    between atoms: C_14  and  C_19
REMARK    5  A    between atoms: N_21  and  C_22
REMARK    6  A    between atoms: N_21  and  C_27
REMARK    7  A    between atoms: C_22  and  C_23
REMARK    8  A    between atoms: C_23  and  C_24
REMARK    9  A    between atoms: C_24  and  O_25
REMARK   10  A    between atoms: O_25  and  C_26
REMARK   11  A    between atoms: C_28  and  N_40
REMARK   12  A    between atoms: N_29  and  C_36
REMARK   13  A    between atoms: C_36  and  C_37
REMARK   14  A    between atoms: C_37  and  C_38
REMARK   15  A    between atoms: C_37  and  C_39
REMARK                            x       y       z     vdW  Elec       q    Type
REMARK                         _______ _______ _______ _____ _____    ______ ____
ROOT
ATOM      1  C   UNL     1       2.764   0.033   6.778  0.00  0.00    +0.225 C 
ATOM      2  O   UNL     1       3.405   1.023   6.494  0.00  0.00    -0.275 OA
ATOM      3  N   UNL     1       3.199  -0.797   7.749  0.00  0.00    -0.264 N 
ENDROOT
BRANCH   3   4
ATOM      4  C   UNL     1       4.449  -0.570   8.364  0.00  0.00    +0.140 A 
ATOM      5  C   UNL     1       5.608  -0.562   7.616  0.00  0.00    +0.127 A 
ATOM      6  N   UNL     1       6.811  -0.337   8.244  0.00  0.00    -0.280 N 
ATOM      7  C   UNL     1       6.856  -0.127   9.572  0.00  0.00    +0.331 A 
ATOM      8  O   UNL     1       7.930   0.070  10.109  0.00  0.00    -0.246 OA
ATOM      9  N   UNL     1       5.737  -0.130  10.317  0.00  0.00    -0.273 N 
ATOM     10  H   UNL     1       5.796   0.025  11.273  0.00  0.00    +0.173 HD
ATOM     11  C   UNL     1       4.533  -0.341   9.750  0.00  0.00    +0.277 A 
ATOM     12  O   UNL     1       3.523  -0.337  10.434  0.00  0.00    -0.266 OA
BRANCH   5  13
ATOM     13  N   UNL     1       5.562  -0.777   6.260  0.00  0.00    -0.343 N 
ATOM     14  H   UNL     1       4.725  -1.025   5.836  0.00  0.00    +0.144 HD
ATOM     15  H   UNL     1       6.366  -0.682   5.726  0.00  0.00    +0.144 HD
ENDBRANCH   5  13
BRANCH   6  16
ATOM     16  C   UNL     1       8.050  -0.327   7.463  0.00  0.00    +0.131 C 
BRANCH  16  17
ATOM     17  C   UNL     1       8.331   1.094   6.971  0.00  0.00    +0.003 C 
ATOM     18  C   UNL     1       8.601   2.005   8.170  0.00  0.00    +0.009 C 
ATOM     19  C   UNL     1       9.554   1.084   6.052  0.00  0.00    +0.009 C 
ENDBRANCH  16  17
ENDBRANCH   6  16
ENDBRANCH   3   4
BRANCH   1  22
ATOM     20  N   UNL     1       0.583   0.094   3.854  0.00  0.00    -0.297 N 
ATOM     21  C   UNL     1       1.182   0.812   4.985  0.00  0.00    +0.121 C 
ATOM     22  C   UNL     1       1.481  -0.269   6.048  0.00  0.00    +0.101 C 
ATOM     23  C   UNL     1       1.626  -1.537   5.175  0.00  0.00    +0.110 C 
ATOM     24  C   UNL     1       0.817  -1.227   3.935  0.00  0.00    +0.217 C 
ATOM     25  O   UNL     1       0.436  -2.051   3.130  0.00  0.00    -0.276 OA
BRANCH  20  31
ATOM     26  C   UNL     1      -0.346   2.639   0.558  0.00  0.00    +0.008 C 
ATOM     27  C   UNL     1      -0.289   1.129   0.314  0.00  0.00    -0.009 C 
ATOM     28  C   UNL     1      -1.710   0.563   0.287  0.00  0.00    +0.003 C 
ATOM     29  C   UNL     1      -2.393   0.837   1.628  0.00  0.00    +0.002 C 
ATOM     30  C   UNL     1      -1.599   0.168   2.751  0.00  0.00    +0.023 C 
ATOM     31  C   UNL     1      -0.178   0.734   2.778  0.00  0.00    +0.079 C 
ATOM     32  C   UNL     1       0.506   0.461   1.437  0.00  0.00    +0.009 C 
ATOM     33  C   UNL     1       1.927   1.027   1.464  0.00  0.00    +0.009 C 
ENDBRANCH  20  31
ENDBRANCH   1  22
BRANCH   3  34
ATOM     34  C   UNL     1       2.375  -1.935   8.164  0.00  0.00    +0.116 C 
BRANCH  34  35
ATOM     35  C   UNL     1       2.826  -3.191   7.416  0.00  0.00    +0.047 C 
BRANCH  35  36
ATOM     36  C   UNL     1       1.965  -4.379   7.849  0.00  0.00    +0.161 C 
BRANCH  36  37
ATOM     37  O   UNL     1       2.386  -5.553   7.151  0.00  0.00    -0.383 OA
ATOM     38  C   UNL     1       1.642  -6.726   7.485  0.00  0.00    +0.193 C 
ENDBRANCH  36  37
ENDBRANCH  35  36
ENDBRANCH  34  35
ENDBRANCH   3  34
TORSDOF 10
