REMARK  Name = ZINC63057947
REMARK  4 active torsions:
REMARK  status: ('A' for Active; 'I' for Inactive)
REMARK    1  A    between atoms: C_1  and  C_2
REMARK    2  A    between atoms: C_4  and  C_9
REMARK    3  A    between atoms: C_11  and  C_14
REMARK    4  A    between atoms: C_19  and  N_20
REMARK                            x       y       z     vdW  Elec       q    Type
REMARK                         _______ _______ _______ _____ _____    ______ ____
ROOT
ATOM      1  C   UNL     1      -0.359  -3.213  -1.932  0.00  0.00    +0.259 A 
ATOM      2  N   UNL     1      -0.162  -4.472  -2.245  0.00  0.00    -0.187 NA
ATOM      3  C   UNL     1      -0.255  -4.633  -3.575  0.00  0.00    +0.204 A 
ATOM      4  N   UNL     1      -0.515  -3.471  -4.125  0.00  0.00    -0.056 NA
ATOM      5  O   UNL     1      -0.593  -2.529  -3.065  0.00  0.00    -0.332 OA
ENDROOT
BRANCH   1   9
ATOM      6  C   UNL     1      -0.796   0.710   1.119  0.00  0.00    +0.047 C 
ATOM      7  C   UNL     1      -0.545  -0.760   0.905  0.00  0.00    -0.015 A 
ATOM      8  C   UNL     1      -0.568  -1.284  -0.371  0.00  0.00    +0.019 A 
ATOM      9  C   UNL     1      -0.335  -2.646  -0.567  0.00  0.00    +0.040 A 
ATOM     10  C   UNL     1      -0.080  -3.471   0.530  0.00  0.00    +0.016 A 
ATOM     11  C   UNL     1      -0.059  -2.938   1.800  0.00  0.00    +0.039 A 
ATOM     12  C   UNL     1      -0.286  -1.583   1.990  0.00  0.00    +0.126 A 
ATOM     13  F   UNL     1      -0.259  -1.064   3.237  0.00  0.00    -0.205 F 
ENDBRANCH   1   9
BRANCH   3  14
ATOM     14  C   UNL     1      -0.092  -5.914  -4.303  0.00  0.00    +0.043 A 
ATOM     15  C   UNL     1      -1.009  -6.284  -5.284  0.00  0.00    +0.013 A 
ATOM     16  C   UNL     1      -0.852  -7.477  -5.959  0.00  0.00    +0.001 A 
ATOM     17  C   UNL     1       0.214  -8.311  -5.665  0.00  0.00    +0.002 A 
ATOM     18  C   UNL     1       1.130  -7.956  -4.695  0.00  0.00    +0.023 A 
ATOM     19  C   UNL     1       0.989  -6.756  -4.012  0.00  0.00    +0.035 A 
BRANCH  19  20
ATOM     20  N   UNL     1       1.915  -6.393  -3.037  0.00  0.00    -0.357 N 
ATOM     21  H   UNL     1       1.867  -5.516  -2.624  0.00  0.00    +0.142 HD
ATOM     22  H   UNL     1       2.610  -7.016  -2.772  0.00  0.00    +0.142 HD
ENDBRANCH  19  20
ENDBRANCH   3  14
TORSDOF 3
