REMARK  Name = ZINC48999527
REMARK  5 active torsions:
REMARK  status: ('A' for Active; 'I' for Inactive)
REMARK    1  A    between atoms: C_1  and  C_2
REMARK    2  A    between atoms: C_2  and  C_4
REMARK    3  A    between atoms: C_2  and  N_13
REMARK    4  A    between atoms: N_13  and  C_14
REMARK    5  A    between atoms: C_17  and  N_19
REMARK                            x       y       z     vdW  Elec       q    Type
REMARK                         _______ _______ _______ _____ _____    ______ ____
ROOT
ATOM      1  C   UNL     1      -0.019   1.526   0.010  0.00  0.00    +0.036 C 
ATOM      2  C   UNL     1       0.002  -0.004   0.002  0.00  0.00    +0.134 C 
ENDROOT
BRANCH   2   3
ATOM      3  C   UNL     1       0.707  -0.490  -1.238  0.00  0.00    +0.126 A 
ATOM      4  C   UNL     1       0.096  -0.923  -2.349  0.00  0.00    +0.055 A 
ATOM      5  C   UNL     1       1.163  -1.291  -3.287  0.00  0.00    +0.020 A 
ATOM      6  C   UNL     1       1.188  -1.799  -4.585  0.00  0.00    +0.011 A 
ATOM      7  C   UNL     1       2.387  -2.040  -5.196  0.00  0.00    +0.001 A 
ATOM      8  C   UNL     1       3.578  -1.783  -4.531  0.00  0.00    +0.004 A 
ATOM      9  C   UNL     1       3.573  -1.281  -3.248  0.00  0.00    +0.047 A 
ATOM     10  C   UNL     1       2.365  -1.028  -2.609  0.00  0.00    +0.135 A 
ATOM     11  O   UNL     1       2.042  -0.547  -1.392  0.00  0.00    -0.458 OA
ENDBRANCH   2   3
BRANCH   2  12
ATOM     12  N   UNL     1       0.711  -0.489   1.189  0.00  0.00    -0.329 N 
ATOM     13  H   UNL     1       1.654  -0.707   1.135  0.00  0.00    +0.147 HD
BRANCH  12  14
ATOM     14  C   UNL     1       0.028  -0.639   2.397  0.00  0.00    +0.068 A 
ATOM     15  C   UNL     1       0.499  -1.065   3.603  0.00  0.00    +0.033 A 
ATOM     16  C   UNL     1      -0.375  -1.132   4.673  0.00  0.00    +0.042 A 
ATOM     17  C   UNL     1      -1.668  -0.774   4.491  0.00  0.00    +0.165 A 
ATOM     18  S   UNL     1      -1.689  -0.314   2.767  0.00  0.00    -0.050 S 
BRANCH  17  19
ATOM     19  N   UNL     1      -2.779  -0.762   5.472  0.00  0.00    +0.063 N 
ATOM     20  O   UNL     1      -2.581  -1.106   6.614  0.00  0.00    -0.126 OA
ATOM     21  O   UNL     1      -3.883  -0.408   5.130  0.00  0.00    -0.126 OA
ENDBRANCH  17  19
ENDBRANCH  12  14
ENDBRANCH   2  12
TORSDOF 4
