REMARK  Name = ZINC40864492
REMARK  4 active torsions:
REMARK  status: ('A' for Active; 'I' for Inactive)
REMARK    1  A    between atoms: C_1  and  N_2
REMARK    2  A    between atoms: N_2  and  C_12
REMARK    3  A    between atoms: CA_7  and  C_9
REMARK    4  A    between atoms: C_9  and  O_10
REMARK                            x       y       z     vdW  Elec       q    Type
REMARK                         _______ _______ _______ _____ _____    ______ ____
ROOT
ATOM      1  C   UNL     1      -0.018   1.461   0.010  0.00  0.00    +0.131 C 
ATOM      2  N   UNL     1       0.002  -0.004   0.002  0.00  0.00    -0.315 N 
ATOM      3  C   UNL     1       0.023  -0.706   1.202  0.00  0.00    +0.122 A 
ATOM      4  C   UNL     1      -0.086  -0.016   2.406  0.00  0.00    +0.045 A 
ATOM      5  C   UNL     1      -0.064  -0.726   3.592  0.00  0.00    +0.025 A 
ATOM      6  C   UNL     1       0.066  -2.108   3.536  0.00  0.00    +0.065 A 
ATOM      7  CA  UNL     1       0.170  -2.728   2.306  0.00  0.00    +0.087 A 
ATOM      8  N   UNL     1       0.141  -2.024   1.189  0.00  0.00    -0.233 NA
ATOM      9 CL   UNL     1       0.100  -3.047   4.996  0.00  0.00    -0.082 Cl
ENDROOT
BRANCH   2  10
ATOM     10  C   UNL     1      -0.000  -0.730  -1.271  0.00  0.00    +0.075 C 
ATOM     11  C   UNL     1       1.236  -0.339  -2.083  0.00  0.00    +0.022 C 
ATOM     12  C   UNL     1       1.234  -1.097  -3.412  0.00  0.00    +0.002 C 
ATOM     13  C   UNL     1      -0.028  -0.740  -4.200  0.00  0.00    +0.000 C 
ATOM     14  C   UNL     1      -1.264  -1.131  -3.388  0.00  0.00    +0.002 C 
ATOM     15  C   UNL     1      -1.262  -0.373  -2.059  0.00  0.00    +0.022 C 
ENDBRANCH   2  10
BRANCH   7  16
ATOM     16  C   UNL     1       0.312  -4.226   2.237  0.00  0.00    +0.212 C 
BRANCH  16  17
ATOM     17  O   UNL     1      -0.983  -4.825   2.165  0.00  0.00    -0.389 OA
ATOM     18  H   UNL     1      -0.968  -5.791   2.119  0.00  0.00    +0.210 HD
ENDBRANCH  16  17
ENDBRANCH   7  16
TORSDOF 3
