REMARK  Name = ZINC59720910
REMARK  8 active torsions:
REMARK  status: ('A' for Active; 'I' for Inactive)
REMARK    1  A    between atoms: C_1  and  C_2
REMARK    2  A    between atoms: C_5  and  N_9
REMARK    3  A    between atoms: C_7  and  C_8
REMARK    4  A    between atoms: N_9  and  C_10
REMARK    5  A    between atoms: C_10  and  C_11
REMARK    6  A    between atoms: N_13  and  N_14
REMARK    7  A    between atoms: C_15  and  C_16
REMARK    8  A    between atoms: C_20  and  N_23
REMARK                            x       y       z     vdW  Elec       q    Type
REMARK                         _______ _______ _______ _____ _____    ______ ____
ROOT
ATOM      1  C   UNL     1       0.082  -6.376  -1.026  0.00  0.00    +0.249 C 
ATOM      2  O   UNL     1       0.093  -6.786   0.115  0.00  0.00    -0.272 OA
ATOM      3  N   UNL     1       0.089  -7.246  -2.056  0.00  0.00    -0.206 N 
ATOM      4  H   UNL     1       0.080  -6.918  -2.968  0.00  0.00    +0.177 HD
ENDROOT
BRANCH   3   5
ATOM      5  N   UNL     1       0.108  -8.625  -1.807  0.00  0.00    -0.188 NA
ATOM      6  C   UNL     1       0.115  -9.463  -2.798  0.00  0.00    +0.142 C 
BRANCH   6   7
ATOM      7  C   UNL     1       0.135 -10.913  -2.537  0.00  0.00    +0.045 A 
ATOM      8  C   UNL     1       0.148 -11.818  -3.601  0.00  0.00    +0.028 A 
ATOM      9  C   UNL     1       0.167 -13.175  -3.349  0.00  0.00    +0.021 A 
ATOM     10  C   UNL     1       0.174 -13.643  -2.045  0.00  0.00    +0.052 A 
ATOM     11  C   UNL     1       0.161 -12.757  -0.985  0.00  0.00    +0.174 A 
ATOM     12  C   UNL     1       0.148 -11.391  -1.220  0.00  0.00    +0.218 A 
ATOM     13  O   UNL     1       0.142 -10.520  -0.178  0.00  0.00    -0.285 OA
ATOM     14 BR   UNL     1       0.183 -14.399  -4.790  0.00  0.00    -0.050 Br
BRANCH  11  15
ATOM     15  N   UNL     1       0.168 -13.267   0.405  0.00  0.00    +0.060 N 
ATOM     16  O   UNL     1       0.185 -14.458   0.611  0.00  0.00    -0.126 OA
ATOM     17  O   UNL     1       0.158 -12.493   1.333  0.00  0.00    -0.126 OA
ENDBRANCH  11  15
ENDBRANCH   6   7
ENDBRANCH   3   5
BRANCH   1  18
ATOM     18  C   UNL     1       0.061  -4.893  -1.294  0.00  0.00    +0.199 C 
BRANCH  18  19
ATOM     19  N   UNL     1       0.058  -4.167  -0.021  0.00  0.00    -0.335 N 
ATOM     20  H   UNL     1       0.069  -4.657   0.816  0.00  0.00    +0.147 HD
BRANCH  19  25
ATOM     21  C   UNL     1      -0.018   1.503   0.010  0.00  0.00    +0.044 C 
ATOM     22  C   UNL     1       0.002  -0.004   0.002  0.00  0.00    -0.047 A 
ATOM     23  C   UNL     1       0.006  -0.687  -1.200  0.00  0.00    +0.005 A 
ATOM     24  C   UNL     1       0.024  -2.068  -1.212  0.00  0.00    +0.023 A 
ATOM     25  C   UNL     1       0.040  -2.771  -0.013  0.00  0.00    +0.028 A 
ATOM     26  C   UNL     1       0.036  -2.081   1.192  0.00  0.00    +0.026 A 
ATOM     27  C   UNL     1       0.023  -0.700   1.196  0.00  0.00    -0.046 A 
ATOM     28  C   UNL     1       0.025   0.049   2.504  0.00  0.00    +0.044 C 
ENDBRANCH  19  25
ENDBRANCH  18  19
ENDBRANCH   1  18
TORSDOF 6
