REMARK  Name = ZINC14657633
REMARK  7 active torsions:
REMARK  status: ('A' for Active; 'I' for Inactive)
REMARK    1  A    between atoms: C_1  and  N_2
REMARK    2  A    between atoms: C_3  and  C_5
REMARK    3  A    between atoms: C_10  and  N_11
REMARK    4  A    between atoms: N_11  and  C_12
REMARK    5  A    between atoms: C_12  and  N_14
REMARK    6  A    between atoms: C_15  and  C_17
REMARK    7  A    between atoms: C_22  and  N_23
REMARK                            x       y       z     vdW  Elec       q    Type
REMARK                         _______ _______ _______ _____ _____    ______ ____
ROOT
ATOM      1  C   UNL     1      -4.709   0.273   0.653  0.00  0.00    +0.141 C 
ATOM      2  S   UNL     1      -4.643   1.975   0.823  0.00  0.00    -0.018 S 
ENDROOT
BRANCH   1   3
ATOM      3  N   UNL     1      -3.569  -0.446   0.626  0.00  0.00    -0.264 N 
ATOM      4  C   UNL     1      -2.378   0.175   0.732  0.00  0.00    +0.252 C 
ATOM      5  O   UNL     1      -2.331   1.384   0.853  0.00  0.00    -0.270 OA
ATOM      6  H   UNL     1      -3.606  -1.411   0.530  0.00  0.00    +0.157 HD
BRANCH   4   7
ATOM      7  C   UNL     1      -1.128  -0.613   0.703  0.00  0.00    +0.067 A 
ATOM      8  C   UNL     1      -0.940  -1.663   1.603  0.00  0.00    +0.015 A 
ATOM      9  C   UNL     1       0.229  -2.394   1.570  0.00  0.00    +0.001 A 
ATOM     10  C   UNL     1       1.214  -2.089   0.647  0.00  0.00    +0.002 A 
ATOM     11  C   UNL     1       1.032  -1.053  -0.251  0.00  0.00    +0.033 A 
ATOM     12  C   UNL     1      -0.130  -0.310  -0.226  0.00  0.00    +0.138 A 
BRANCH  12  13
ATOM     13  N   UNL     1      -0.322   0.801  -1.185  0.00  0.00    +0.057 N 
ATOM     14  O   UNL     1       0.591   1.137  -1.917  0.00  0.00    -0.126 OA
ATOM     15  O   UNL     1      -1.394   1.376  -1.245  0.00  0.00    -0.126 OA
ENDBRANCH  12  13
ENDBRANCH   4   7
ENDBRANCH   1   3
BRANCH   1  16
ATOM     16  N   UNL     1      -5.900  -0.349   0.547  0.00  0.00    -0.296 N 
ATOM     17  H   UNL     1      -5.939  -1.316   0.489  0.00  0.00    +0.154 HD
BRANCH  16  23
ATOM     18  C   UNL     1      -8.210  -0.049   1.213  0.00  0.00    +0.058 A 
ATOM     19  C   UNL     1      -9.382   0.710   1.179  0.00  0.00    +0.015 A 
ATOM     20  C   UNL     1      -9.417   1.889   0.467  0.00  0.00    +0.001 A 
ATOM     21  C   UNL     1      -8.293   2.328  -0.216  0.00  0.00    +0.002 A 
ATOM     22  C   UNL     1      -7.127   1.592  -0.188  0.00  0.00    +0.024 A 
ATOM     23  C   UNL     1      -7.074   0.398   0.520  0.00  0.00    +0.045 A 
BRANCH  18  26
ATOM     24  C   UNL     1      -9.243  -3.049   3.300  0.00  0.00    +0.128 C 
ATOM     25  N   UNL     1      -9.287  -1.794   2.544  0.00  0.00    -0.314 N 
ATOM     26  C   UNL     1      -8.165  -1.311   1.974  0.00  0.00    +0.246 C 
ATOM     27  O   UNL     1      -7.117  -1.917   2.087  0.00  0.00    -0.270 OA
ATOM     28  H   UNL     1     -10.124  -1.311   2.454  0.00  0.00    +0.149 HD
ENDBRANCH  18  26
ENDBRANCH  16  23
ENDBRANCH   1  16
TORSDOF 6
