REMARK  Name = ZINC12471497
REMARK  11 active torsions:
REMARK  status: ('A' for Active; 'I' for Inactive)
REMARK    1  A    between atoms: C_1  and  C_2
REMARK    2  A    between atoms: C_2  and  C_3
REMARK    3  A    between atoms: C_2  and  C_4
REMARK    4  A    between atoms: C_2  and  N_5
REMARK    5  A    between atoms: C_6  and  C_8
REMARK    6  A    between atoms: C_8  and  C_10
REMARK    7  A    between atoms: C_8  and  N_17
REMARK    8  A    between atoms: C_13  and  O_16
REMARK    9  A    between atoms: N_17  and  C_18
REMARK   10  A    between atoms: C_22  and  O_24
REMARK   11  A    between atoms: C_25  and  C_27
REMARK                            x       y       z     vdW  Elec       q    Type
REMARK                         _______ _______ _______ _____ _____    ______ ____
ROOT
ATOM      1  N   UNL     1      -2.465   8.792   0.740  0.00  0.00    -0.252 N 
ATOM      2  C   UNL     1      -1.577   8.254   1.599  0.00  0.00    +0.265 C 
ATOM      3  O   UNL     1      -0.389   8.435   1.435  0.00  0.00    -0.271 OA
ENDROOT
BRANCH   2   4
ATOM      4  C   UNL     1      -2.060   7.428   2.764  0.00  0.00    +0.296 C 
ATOM      5  C   UNL     1      -2.701   8.343   3.816  0.00  0.00    +0.283 C 
ATOM      6  O   UNL     1      -3.135   7.530   4.912  0.00  0.00    -0.484 OA
ATOM      7  C   UNL     1      -2.253   6.601   5.371  0.00  0.00    +0.162 A 
ATOM      8  C   UNL     1      -2.451   6.034   6.622  0.00  0.00    +0.049 A 
ATOM      9  C   UNL     1      -1.562   5.091   7.103  0.00  0.00    +0.004 A 
ATOM     10  C   UNL     1      -0.481   4.702   6.335  0.00  0.00    +0.004 A 
ATOM     11  C   UNL     1      -0.280   5.260   5.086  0.00  0.00    +0.049 A 
ATOM     12  C   UNL     1      -1.165   6.211   4.600  0.00  0.00    +0.163 A 
ATOM     13  O   UNL     1      -0.952   6.755   3.371  0.00  0.00    -0.472 OA
ENDBRANCH   2   4
BRANCH   1  14
ATOM     14  C   UNL     1      -3.837   8.695   1.000  0.00  0.00    +0.041 A 
ATOM     15  C   UNL     1      -4.491   7.480   0.839  0.00  0.00    +0.024 A 
ATOM     16  C   UNL     1      -5.845   7.384   1.095  0.00  0.00    +0.005 A 
ATOM     17  C   UNL     1      -6.552   8.496   1.513  0.00  0.00    +0.045 A 
ATOM     18  C   UNL     1      -5.904   9.712   1.676  0.00  0.00    +0.119 A 
ATOM     19  C   UNL     1      -4.544   9.810   1.425  0.00  0.00    +0.069 A 
BRANCH  18  20
ATOM     20  O   UNL     1      -6.600  10.804   2.087  0.00  0.00    -0.507 OA
ATOM     21  H   UNL     1      -6.628  10.914   3.047  0.00  0.00    +0.292 HD
ENDBRANCH  18  20
ENDBRANCH   1  14
BRANCH   1  22
ATOM     22  C   UNL     1      -1.995   9.478  -0.466  0.00  0.00    +0.197 C 
BRANCH  22  23
ATOM     23  C   UNL     1      -1.074   8.566  -1.235  0.00  0.00    -0.018 A 
ATOM     24  C   UNL     1      -1.516   7.320  -1.639  0.00  0.00    +0.009 A 
ATOM     25  C   UNL     1      -0.675   6.485  -2.349  0.00  0.00    +0.046 A 
ATOM     26  C   UNL     1       0.616   6.893  -2.648  0.00  0.00    +0.117 A 
ATOM     27  C   UNL     1       1.059   8.142  -2.237  0.00  0.00    +0.046 A 
ATOM     28  C   UNL     1       0.213   8.976  -1.532  0.00  0.00    +0.009 A 
BRANCH  26  29
ATOM     29  O   UNL     1       1.447   6.071  -3.342  0.00  0.00    -0.507 OA
ATOM     30  H   UNL     1       1.974   5.483  -2.785  0.00  0.00    +0.292 HD
ENDBRANCH  26  29
ENDBRANCH  22  23
BRANCH  22  32
ATOM     31  N   UNL     1      -3.264  11.079  -1.861  0.00  0.00    -0.309 N 
ATOM     32  C   UNL     1      -3.175   9.844  -1.328  0.00  0.00    +0.239 C 
ATOM     33  O   UNL     1      -4.046   9.027  -1.543  0.00  0.00    -0.273 OA
ATOM     34  H   UNL     1      -2.568  11.732  -1.689  0.00  0.00    +0.149 HD
BRANCH  31  36
ATOM     35  C   UNL     1      -5.700  11.288  -1.888  0.00  0.00    +0.031 C 
ATOM     36  C   UNL     1      -4.412  11.434  -2.699  0.00  0.00    +0.026 C 
ATOM     37  C   UNL     1      -4.268  12.882  -3.173  0.00  0.00    +0.031 C 
ATOM     38  C   UNL     1      -4.465  10.504  -3.913  0.00  0.00    +0.031 C 
ENDBRANCH  31  36
ENDBRANCH  22  32
ENDBRANCH   1  22
TORSDOF 8
