REMARK  Name = ZINC09665972
REMARK  7 active torsions:
REMARK  status: ('A' for Active; 'I' for Inactive)
REMARK    1  A    between atoms: C_1  and  C_2
REMARK    2  A    between atoms: C_2  and  C_4
REMARK    3  A    between atoms: C_2  and  N_13
REMARK    4  A    between atoms: C_14  and  C_16
REMARK    5  A    between atoms: C_16  and  N_17
REMARK    6  A    between atoms: C_20  and  C_24
REMARK    7  A    between atoms: C_20  and  C_25
REMARK                            x       y       z     vdW  Elec       q    Type
REMARK                         _______ _______ _______ _____ _____    ______ ____
ROOT
ATOM      1  N   UNL     1      -6.448   1.848  -2.797  0.00  0.00    -0.215 N 
ATOM      2  C   UNL     1      -6.462   1.110  -3.924  0.00  0.00    +0.251 C 
ATOM      3  O   UNL     1      -5.550   0.952  -4.707  0.00  0.00    -0.272 OA
ATOM      4  C   UNL     1      -7.853   0.515  -4.008  0.00  0.00    +0.135 C 
ATOM      5  N   UNL     1      -8.528   1.043  -2.809  0.00  0.00    -0.281 N 
ATOM      6  C   UNL     1      -7.628   1.809  -2.167  0.00  0.00    +0.310 C 
ATOM      7  O   UNL     1      -7.861   2.400  -1.131  0.00  0.00    -0.252 OA
ATOM      8  C   UNL     1      -8.564   0.987  -5.278  0.00  0.00    +0.047 C 
ATOM      9  H   UNL     1      -9.443   0.872  -2.537  0.00  0.00    +0.152 HD
ENDROOT
BRANCH   4  10
ATOM     10  C   UNL     1      -7.795  -0.990  -3.963  0.00  0.00    -0.012 A 
ATOM     11  C   UNL     1      -6.733  -1.657  -4.546  0.00  0.00    +0.010 A 
ATOM     12  C   UNL     1      -6.676  -3.037  -4.508  0.00  0.00    +0.050 A 
ATOM     13  C   UNL     1      -7.685  -3.758  -3.885  0.00  0.00    +0.162 A 
ATOM     14  C   UNL     1      -8.751  -3.087  -3.297  0.00  0.00    +0.162 A 
ATOM     15  C   UNL     1      -8.799  -1.702  -3.335  0.00  0.00    +0.055 A 
ATOM     16  O   UNL     1      -9.749  -3.774  -2.677  0.00  0.00    -0.485 OA
ATOM     17  C   UNL     1      -9.857  -5.169  -2.983  0.00  0.00    +0.270 C 
ATOM     18  C   UNL     1      -8.453  -5.786  -2.910  0.00  0.00    +0.270 C 
ATOM     19  O   UNL     1      -7.619  -5.117  -3.862  0.00  0.00    -0.485 OA
ENDBRANCH   4  10
BRANCH   1  20
ATOM     20  C   UNL     1      -5.287   2.606  -2.323  0.00  0.00    +0.213 C 
BRANCH  20  22
ATOM     21  N   UNL     1      -3.329   2.223  -0.860  0.00  0.00    -0.304 N 
ATOM     22  C   UNL     1      -4.455   1.734  -1.417  0.00  0.00    +0.232 C 
ATOM     23  O   UNL     1      -4.798   0.593  -1.191  0.00  0.00    -0.274 OA
ATOM     24  H   UNL     1      -3.055   3.136  -1.041  0.00  0.00    +0.149 HD
BRANCH  21  26
ATOM     25  C   UNL     1      -3.078   1.440   1.443  0.00  0.00    +0.036 C 
ATOM     26  C   UNL     1      -2.520   1.377   0.020  0.00  0.00    +0.136 C 
BRANCH  26  27
ATOM     27  C   UNL     1      -1.095   1.866   0.017  0.00  0.00    +0.126 A 
ATOM     28  C   UNL     1      -0.013   1.076   0.008  0.00  0.00    +0.055 A 
ATOM     29  C   UNL     1       1.149   1.973   0.002  0.00  0.00    +0.020 A 
ATOM     30  C   UNL     1       2.530   1.781  -0.012  0.00  0.00    +0.011 A 
ATOM     31  C   UNL     1       3.365   2.863  -0.014  0.00  0.00    +0.001 A 
ATOM     32  C   UNL     1       2.847   4.150  -0.004  0.00  0.00    +0.004 A 
ATOM     33  C   UNL     1       1.485   4.360   0.009  0.00  0.00    +0.047 A 
ATOM     34  C   UNL     1       0.618   3.274   0.013  0.00  0.00    +0.135 A 
ATOM     35  O   UNL     1      -0.725   3.158   0.025  0.00  0.00    -0.458 OA
ENDBRANCH  26  27
ENDBRANCH  21  26
ENDBRANCH  20  22
ENDBRANCH   1  20
TORSDOF 5
