REMARK  Name = ZINC06648058
REMARK  4 active torsions:
REMARK  status: ('A' for Active; 'I' for Inactive)
REMARK    1  A    between atoms: C_1  and  C_2
REMARK    2  A    between atoms: C_15  and  C_17
REMARK    3  A    between atoms: C_17  and  S_18
REMARK    4  A    between atoms: S_18  and  C_19
REMARK                            x       y       z     vdW  Elec       q    Type
REMARK                         _______ _______ _______ _____ _____    ______ ____
ROOT
ATOM      1  C   UNL     1       7.905   8.257  -1.449  0.00  0.00    +0.029 C 
ATOM      2  C   UNL     1       7.422   7.928  -0.035  0.00  0.00    +0.087 C 
ATOM      3  C   UNL     1       8.612   7.945   0.931  0.00  0.00    +0.118 C 
ATOM      4  C   UNL     1       8.251   7.246   2.216  0.00  0.00    +0.219 C 
ATOM      5  O   UNL     1       8.020   7.898   3.212  0.00  0.00    -0.275 OA
ATOM      6  N   UNL     1       8.183   5.898   2.265  0.00  0.00    -0.284 N 
ATOM      7  C   UNL     1       8.353   5.135   1.104  0.00  0.00    +0.055 A 
ATOM      8  C   UNL     1       9.198   4.039   1.092  0.00  0.00    +0.025 A 
ATOM      9  C   UNL     1       9.308   3.267  -0.051  0.00  0.00    +0.002 A 
ATOM     10  C   UNL     1       8.577   3.587  -1.180  0.00  0.00    +0.002 A 
ATOM     11  C   UNL     1       7.738   4.687  -1.179  0.00  0.00    +0.025 A 
ATOM     12  C   UNL     1       7.630   5.470  -0.042  0.00  0.00    +0.058 A 
ATOM     13  N   UNL     1       6.803   6.602  -0.029  0.00  0.00    -0.266 N 
ATOM     14  C   UNL     1       5.461   6.471  -0.017  0.00  0.00    +0.230 C 
ATOM     15  O   UNL     1       4.756   7.458  -0.006  0.00  0.00    -0.274 OA
ATOM     16  H   UNL     1       8.015   5.455   3.112  0.00  0.00    +0.155 HD
ENDROOT
BRANCH  14  17
ATOM     17  C   UNL     1       4.837   5.099  -0.018  0.00  0.00    +0.173 C 
BRANCH  17  18
ATOM     18  S   UNL     1       3.030   5.257  -0.000  0.00  0.00    -0.076 S 
BRANCH  18  19
ATOM     19  C   UNL     1       2.457   3.590  -0.003  0.00  0.00    +0.196 A 
ATOM     20  N   UNL     1       3.205   2.510  -0.015  0.00  0.00    -0.122 NA
ATOM     21  N   UNL     1       2.467   1.456  -0.013  0.00  0.00    -0.129 NA
ATOM     22  C   UNL     1       1.194   1.805   0.000  0.00  0.00    +0.162 A 
ATOM     23  N   UNL     1       1.156   3.183   0.008  0.00  0.00    -0.278 N 
ATOM     24  C   UNL     1      -0.042   3.843   0.022  0.00  0.00    +0.095 A 
ATOM     25  C   UNL     1      -1.201   3.155   0.030  0.00  0.00    +0.018 A 
ATOM     26  C   UNL     1      -1.194   1.747   0.017  0.00  0.00    +0.005 A 
ATOM     27  C   UNL     1      -0.013   1.076   0.008  0.00  0.00    +0.049 A 
ENDBRANCH  18  19
ENDBRANCH  17  18
ENDBRANCH  14  17
TORSDOF 3
