REMARK  Name = ZINC48289157
REMARK  7 active torsions:
REMARK  status: ('A' for Active; 'I' for Inactive)
REMARK    1  A    between atoms: C_1  and  C_2
REMARK    2  A    between atoms: C_2  and  C_3
REMARK    3  A    between atoms: C_3  and  S_4
REMARK    4  A    between atoms: S_4  and  N_7
REMARK    5  A    between atoms: N_7  and  C_8
REMARK    6  A    between atoms: N_11  and  C_14
REMARK    7  A    between atoms: C_14  and  N_15
REMARK                            x       y       z     vdW  Elec       q    Type
REMARK                         _______ _______ _______ _____ _____    ______ ____
ROOT
ATOM      1  C   UNL     1      -3.864  -2.470  -1.124  0.00  0.00    +0.073 C 
ATOM      2  C   UNL     1      -3.924  -3.667  -2.078  0.00  0.00    +0.002 C 
ATOM      3  C   UNL     1      -4.887  -3.351  -3.224  0.00  0.00    -0.075 C 
ATOM      4  N   UNL     1      -6.226  -3.086  -2.685  0.00  0.00    +0.392 N 
ATOM      5  C   UNL     1      -6.190  -1.896  -1.826  0.00  0.00    -0.075 C 
ATOM      6  C   UNL     1      -5.278  -2.156  -0.625  0.00  0.00    +0.002 C 
ATOM      7  H   UNL     1      -6.533  -3.881  -2.144  0.00  0.00    -0.079 HD
ENDROOT
BRANCH   1   8
ATOM      8  N   UNL     1      -3.003  -2.795   0.016  0.00  0.00    -0.192 NA
ATOM      9  H   UNL     1      -3.367  -3.272   0.778  0.00  0.00    +0.148 HD
BRANCH   8  10
ATOM     10  S   UNL     1      -1.409  -2.348   0.003  0.00  0.00    +0.030 S 
ATOM     11  O   UNL     1      -0.909  -2.823  -1.239  0.00  0.00    -0.158 OA
ATOM     12  O   UNL     1      -0.885  -2.837   1.230  0.00  0.00    -0.158 OA
BRANCH  10  13
ATOM     13  C   UNL     1      -1.433  -0.534   0.013  0.00  0.00    +0.185 C 
BRANCH  13  15
ATOM     14  C   UNL     1      -0.019   1.526   0.010  0.00  0.00    +0.005 C 
ATOM     15  C   UNL     1       0.002  -0.004   0.002  0.00  0.00    +0.021 C 
ENDBRANCH  13  15
ENDBRANCH  10  13
ENDBRANCH   8  10
ENDBRANCH   1   8
BRANCH   4  16
ATOM     16  C   UNL     1      -7.163  -2.860  -3.793  0.00  0.00    +0.054 C 
BRANCH  16  17
ATOM     17  N   UNL     1      -8.521  -2.714  -3.263  0.00  0.00    -0.291 N 
ATOM     18  C   UNL     1      -9.440  -3.742  -3.053  0.00  0.00    +0.088 A 
ATOM     19  C   UNL     1      -9.395  -5.113  -3.252  0.00  0.00    +0.031 A 
ATOM     20  C   UNL     1     -10.495  -5.888  -2.941  0.00  0.00    +0.017 A 
ATOM     21  C   UNL     1     -11.641  -5.300  -2.433  0.00  0.00    +0.021 A 
ATOM     22  C   UNL     1     -11.692  -3.933  -2.232  0.00  0.00    +0.063 A 
ATOM     23  C   UNL     1     -10.592  -3.148  -2.540  0.00  0.00    +0.158 A 
ATOM     24  O   UNL     1     -10.354  -1.816  -2.453  0.00  0.00    -0.407 OA
ATOM     25  C   UNL     1      -9.108  -1.562  -2.882  0.00  0.00    +0.420 A 
ATOM     26  O   UNL     1      -8.591  -0.462  -2.925  0.00  0.00    -0.223 OA
ATOM     27 BR   UNL     1     -13.142  -6.370  -2.011  0.00  0.00    -0.050 Br
ENDBRANCH  16  17
ENDBRANCH   4  16
TORSDOF 6
