REMARK  Name = ZINC06210834
REMARK  6 active torsions:
REMARK  status: ('A' for Active; 'I' for Inactive)
REMARK    1  A    between atoms: C_1  and  C_2
REMARK    2  A    between atoms: C_2  and  C_14
REMARK    3  A    between atoms: N_3  and  N_4
REMARK    4  A    between atoms: N_4  and  S_5
REMARK    5  A    between atoms: S_5  and  C_8
REMARK    6  A    between atoms: C_17  and  N_20
REMARK                            x       y       z     vdW  Elec       q    Type
REMARK                         _______ _______ _______ _____ _____    ______ ____
ROOT
ATOM      1  C   UNL     1      -0.018   1.503   0.010  0.00  0.00    +0.068 C 
ATOM      2  C   UNL     1       0.002  -0.004   0.002  0.00  0.00    +0.065 C 
ATOM      3  N   UNL     1       0.022  -0.659   1.122  0.00  0.00    -0.171 NA
ENDROOT
BRANCH   2   4
ATOM      4  C   UNL     1      -0.000  -0.734  -1.279  0.00  0.00    -0.002 A 
ATOM      5  C   UNL     1      -0.015  -0.031  -2.486  0.00  0.00    +0.012 A 
ATOM      6  C   UNL     1      -0.017  -0.718  -3.681  0.00  0.00    +0.027 A 
ATOM      7  C   UNL     1      -0.004  -2.107  -3.687  0.00  0.00    +0.047 A 
ATOM      8  C   UNL     1       0.011  -2.810  -2.488  0.00  0.00    +0.027 A 
ATOM      9  C   UNL     1       0.019  -2.131  -1.289  0.00  0.00    +0.012 A 
BRANCH   7  10
ATOM     10  N   UNL     1      -0.006  -2.801  -4.904  0.00  0.00    -0.306 N 
ATOM     11  C   UNL     1      -0.000  -4.163  -5.066  0.00  0.00    +0.112 A 
ATOM     12  C   UNL     1      -0.005  -4.398  -6.392  0.00  0.00    +0.130 A 
ATOM     13  N   UNL     1      -0.015  -3.216  -7.027  0.00  0.00    -0.244 NA
ATOM     14  C   UNL     1      -0.021  -2.252  -6.147  0.00  0.00    +0.204 A 
ENDBRANCH   7  10
ENDBRANCH   2   4
BRANCH   3  15
ATOM     15  N   UNL     1       0.024   0.035   2.339  0.00  0.00    -0.136 N 
ATOM     16  H   UNL     1       0.011   1.005   2.345  0.00  0.00    +0.197 HD
BRANCH  15  17
ATOM     17  S   UNL     1       0.049  -0.800   3.769  0.00  0.00    +0.086 S 
ATOM     18  O   UNL     1       0.191   0.165   4.801  0.00  0.00    -0.149 OA
ATOM     19  O   UNL     1      -1.039  -1.714   3.724  0.00  0.00    -0.149 OA
BRANCH  17  20
ATOM     20  C   UNL     1       1.520  -1.770   3.780  0.00  0.00    +0.110 A 
ATOM     21  C   UNL     1       1.507  -3.051   3.261  0.00  0.00    +0.029 A 
ATOM     22  C   UNL     1       2.661  -3.812   3.270  0.00  0.00    +0.002 A 
ATOM     23  C   UNL     1       3.828  -3.291   3.797  0.00  0.00    +0.000 A 
ATOM     24  C   UNL     1       3.841  -2.010   4.314  0.00  0.00    +0.002 A 
ATOM     25  C   UNL     1       2.688  -1.247   4.302  0.00  0.00    +0.029 A 
ENDBRANCH  17  20
ENDBRANCH  15  17
ENDBRANCH   3  15
TORSDOF 5
