REMARK  Name = ZINC04973614
REMARK  5 active torsions:
REMARK  status: ('A' for Active; 'I' for Inactive)
REMARK    1  A    between atoms: C_1  and  N_2
REMARK    2  A    between atoms: N_2  and  C_3
REMARK    3  A    between atoms: N_2  and  C_4
REMARK    4  A    between atoms: C_7  and  C_10
REMARK    5  A    between atoms: C_15  and  C_25
REMARK                            x       y       z     vdW  Elec       q    Type
REMARK                         _______ _______ _______ _____ _____    ______ ____
ROOT
ATOM      1  C   UNL     1      -1.925   4.659  -2.986  0.00  0.00    +0.032 C 
ATOM      2  C   UNL     1      -0.880   3.610  -3.362  0.00  0.00    +0.059 C 
ATOM      3  C   UNL     1      -0.543   2.758  -2.150  0.00  0.00    +0.017 C 
ATOM      4  C   UNL     1      -1.477   2.496  -1.220  0.00  0.00    +0.036 C 
ATOM      5  C   UNL     1      -1.280   1.661   0.017  0.00  0.00    +0.136 C 
ATOM      6  N   UNL     1      -0.046   0.907   0.051  0.00  0.00    -0.331 N 
ATOM      7  C   UNL     1       1.189   1.552   0.089  0.00  0.00    +0.049 A 
ATOM      8  C   UNL     1       2.034   1.438   1.181  0.00  0.00    +0.025 A 
ATOM      9  C   UNL     1       3.229   2.135   1.192  0.00  0.00    +0.002 A 
ATOM     10  C   UNL     1       3.579   2.942   0.125  0.00  0.00    +0.002 A 
ATOM     11  C   UNL     1       2.745   3.045  -0.976  0.00  0.00    +0.025 A 
ATOM     12  C   UNL     1       1.560   2.330  -0.998  0.00  0.00    +0.052 A 
ATOM     13  N   UNL     1       0.733   2.297  -2.115  0.00  0.00    -0.316 N 
ATOM     14  C   UNL     1      -2.781   3.029  -1.351  0.00  0.00    +0.163 C 
ATOM     15  O   UNL     1      -3.613   2.757  -0.507  0.00  0.00    -0.292 OA
ATOM     16  C   UNL     1      -3.174   3.918  -2.492  0.00  0.00    +0.088 C 
ATOM     17  H   UNL     1      -0.078  -0.063   0.045  0.00  0.00    +0.147 HD
ATOM     18  H   UNL     1       1.096   1.917  -2.930  0.00  0.00    +0.152 HD
ENDROOT
BRANCH   1  22
ATOM     19  C   UNL     1      -2.903   7.022  -6.410  0.00  0.00    +0.029 A 
ATOM     20  C   UNL     1      -2.406   7.629  -5.265  0.00  0.00    +0.023 A 
ATOM     21  C   UNL     1      -2.091   6.863  -4.160  0.00  0.00    +0.006 A 
ATOM     22  C   UNL     1      -2.270   5.492  -4.193  0.00  0.00    -0.043 A 
ATOM     23  C   UNL     1      -2.760   4.883  -5.334  0.00  0.00    +0.006 A 
ATOM     24  C   UNL     1      -3.082   5.644  -6.441  0.00  0.00    +0.023 A 
BRANCH  19  26
ATOM     25  C   UNL     1      -3.034   9.246  -7.496  0.00  0.00    +0.129 C 
ATOM     26  N   UNL     1      -3.223   7.794  -7.530  0.00  0.00    -0.336 N 
ATOM     27  C   UNL     1      -3.747   7.152  -8.737  0.00  0.00    +0.129 C 
ENDBRANCH  19  26
ENDBRANCH   1  22
BRANCH   5  28
ATOM     28  C   UNL     1      -1.314   2.576   1.215  0.00  0.00    -0.020 A 
ATOM     29  C   UNL     1      -0.312   3.511   1.422  0.00  0.00    +0.025 A 
ATOM     30  C   UNL     1      -0.380   4.336   2.529  0.00  0.00    +0.111 A 
ATOM     31  N   UNL     1      -1.376   4.233   3.387  0.00  0.00    -0.263 NA
ATOM     32  C   UNL     1      -2.343   3.352   3.225  0.00  0.00    +0.111 A 
ATOM     33  C   UNL     1      -2.345   2.497   2.138  0.00  0.00    +0.025 A 
ENDBRANCH   5  28
TORSDOF 3
