REMARK  Name = ZINC36529204
REMARK  12 active torsions:
REMARK  status: ('A' for Active; 'I' for Inactive)
REMARK    1  A    between atoms: C_1  and  C_2
REMARK    2  A    between atoms: C_5  and  S_8
REMARK    3  A    between atoms: S_8  and  C_11
REMARK    4  A    between atoms: C_11  and  N_12
REMARK    5  A    between atoms: C_13  and  C_15
REMARK    6  A    between atoms: C_15  and  C_17
REMARK    7  A    between atoms: C_15  and  N_26
REMARK    8  A    between atoms: C_18  and  O_25
REMARK    9  A    between atoms: C_20  and  O_24
REMARK   10  A    between atoms: C_22  and  O_23
REMARK   11  A    between atoms: N_26  and  C_27
REMARK   12  A    between atoms: C_28  and  C_30
REMARK                            x       y       z     vdW  Elec       q    Type
REMARK                         _______ _______ _______ _____ _____    ______ ____
ROOT
ATOM      1  C   UNL     1       3.695  -5.228   3.101  0.00  0.00    +0.199 C 
ENDROOT
BRANCH   1   2
ATOM      2  C   UNL     1       2.922  -4.040   3.613  0.00  0.00    +0.065 A 
ATOM      3  C   UNL     1       3.417  -3.295   4.673  0.00  0.00    +0.129 A 
ATOM      4  C   UNL     1       2.705  -2.202   5.144  0.00  0.00    +0.091 A 
ATOM      5  C   UNL     1       1.500  -1.853   4.555  0.00  0.00    +0.124 A 
ATOM      6  C   UNL     1       1.005  -2.597   3.494  0.00  0.00    +0.091 A 
ATOM      7  C   UNL     1       1.718  -3.688   3.020  0.00  0.00    +0.129 A 
BRANCH   7   8
ATOM      8  O   UNL     1       1.236  -4.414   1.978  0.00  0.00    -0.506 OA
ATOM      9  H   UNL     1       0.594  -5.090   2.233  0.00  0.00    +0.292 HD
ENDBRANCH   7   8
BRANCH   5  10
ATOM     10  O   UNL     1       0.802  -0.782   5.017  0.00  0.00    -0.507 OA
ATOM     11  H   UNL     1       1.029   0.052   4.583  0.00  0.00    +0.292 HD
ENDBRANCH   5  10
BRANCH   3  12
ATOM     12  O   UNL     1       4.598  -3.637   5.250  0.00  0.00    -0.506 OA
ATOM     13  H   UNL     1       5.361  -3.155   4.901  0.00  0.00    +0.292 HD
ENDBRANCH   3  12
ENDBRANCH   1   2
BRANCH   1  15
ATOM     14  N   UNL     1       4.083  -4.722   0.711  0.00  0.00    -0.294 N 
ATOM     15  C   UNL     1       3.400  -5.425   1.636  0.00  0.00    +0.240 C 
ATOM     16  O   UNL     1       2.549  -6.217   1.290  0.00  0.00    -0.273 OA
ATOM     17  H   UNL     1       4.726  -4.051   0.989  0.00  0.00    +0.150 HD
BRANCH  14  18
ATOM     18  C   UNL     1       3.855  -4.972  -0.714  0.00  0.00    +0.278 C 
BRANCH  18  19
ATOM     19  S   UNL     1       2.665  -3.763  -1.357  0.00  0.00    +0.013 S 
ATOM     20  O   UNL     1       1.567  -3.635  -0.464  0.00  0.00    -0.168 OA
ATOM     21  O   UNL     1       2.449  -3.979  -2.745  0.00  0.00    -0.168 OA
BRANCH  19  26
ATOM     22  C   UNL     1       5.523   1.542  -1.052  0.00  0.00    +0.044 C 
ATOM     23  C   UNL     1       4.809   0.217  -1.128  0.00  0.00    -0.050 A 
ATOM     24  C   UNL     1       5.007  -0.613  -2.216  0.00  0.00    +0.005 A 
ATOM     25  C   UNL     1       4.352  -1.829  -2.286  0.00  0.00    +0.027 A 
ATOM     26  C   UNL     1       3.500  -2.214  -1.268  0.00  0.00    +0.090 A 
ATOM     27  C   UNL     1       3.303  -1.385  -0.179  0.00  0.00    +0.027 A 
ATOM     28  C   UNL     1       3.961  -0.171  -0.108  0.00  0.00    +0.005 A 
ENDBRANCH  19  26
ENDBRANCH  18  19
ENDBRANCH  14  18
ENDBRANCH   1  15
BRANCH   1  29
ATOM     29  N   UNL     1       3.297  -6.426   3.845  0.00  0.00    -0.282 N 
ATOM     30  C   UNL     1       1.895  -6.847   3.860  0.00  0.00    +0.133 C 
ATOM     31  C   UNL     1       4.223  -7.140   4.515  0.00  0.00    +0.283 C 
ATOM     32  O   UNL     1       5.372  -6.743   4.577  0.00  0.00    -0.267 OA
BRANCH  31  33
ATOM     33  C   UNL     1       3.846  -8.397   5.170  0.00  0.00    +0.189 A 
ATOM     34  C   UNL     1       4.698  -9.267   5.788  0.00  0.00    +0.054 A 
ATOM     35  C   UNL     1       3.913 -10.325   6.272  0.00  0.00    +0.042 A 
ATOM     36  C   UNL     1       2.633 -10.059   5.933  0.00  0.00    +0.196 A 
ATOM     37  O   UNL     1       2.596  -8.893   5.274  0.00  0.00    -0.458 OA
ENDBRANCH  31  33
ENDBRANCH   1  29
TORSDOF 10
