REMARK  Name = ZINC06725077
REMARK  8 active torsions:
REMARK  status: ('A' for Active; 'I' for Inactive)
REMARK    1  A    between atoms: C_1  and  C_2
REMARK    2  A    between atoms: C_2  and  C_3
REMARK    3  A    between atoms: C_3  and  N_4
REMARK    4  A    between atoms: C_5  and  C_7
REMARK    5  A    between atoms: C_7  and  O_26
REMARK    6  A    between atoms: N_17  and  C_18
REMARK    7  A    between atoms: C_21  and  C_25
REMARK    8  A    between atoms: C_22  and  C_24
REMARK                            x       y       z     vdW  Elec       q    Type
REMARK                         _______ _______ _______ _____ _____    ______ ____
ROOT
ATOM      1  C   UNL     1       2.494   3.857   0.412  0.00  0.00    +0.247 C 
ATOM      2  C   UNL     1       1.177   3.118   0.391  0.00  0.00    +0.033 A 
ATOM      3  C   UNL     1       0.006   3.732   0.775  0.00  0.00    +0.010 A 
ATOM      4  C   UNL     1      -1.183   3.023   0.743  0.00  0.00    +0.001 A 
ATOM      5  C   UNL     1      -1.193   1.706   0.320  0.00  0.00    +0.002 A 
ATOM      6  C   UNL     1      -0.018   1.086  -0.059  0.00  0.00    +0.024 A 
ATOM      7  C   UNL     1       1.177   1.792  -0.028  0.00  0.00    +0.043 A 
ATOM      8  N   UNL     1       2.373   1.186  -0.413  0.00  0.00    -0.269 N 
ATOM      9  C   UNL     1       3.550   1.824  -0.402  0.00  0.00    +0.314 C 
ATOM     10  O   UNL     1       4.543   1.217  -0.754  0.00  0.00    -0.252 OA
ATOM     11  N   UNL     1       3.686   3.107  -0.018  0.00  0.00    -0.214 N 
ATOM     12  H   UNL     1       2.351   0.261  -0.702  0.00  0.00    +0.156 HD
ENDROOT
BRANCH  11  13
ATOM     13  C   UNL     1       4.944   3.719  -0.027  0.00  0.00    +0.042 A 
ATOM     14  C   UNL     1       5.803   3.561   1.053  0.00  0.00    +0.024 A 
ATOM     15  C   UNL     1       7.044   4.167   1.041  0.00  0.00    +0.005 A 
ATOM     16  C   UNL     1       7.432   4.931  -0.045  0.00  0.00    -0.047 A 
ATOM     17  C   UNL     1       6.579   5.090  -1.122  0.00  0.00    -0.046 A 
ATOM     18  C   UNL     1       5.339   4.482  -1.118  0.00  0.00    +0.027 A 
ATOM     19  C   UNL     1       7.006   5.923  -2.303  0.00  0.00    +0.044 C 
ATOM     20  C   UNL     1       8.787   5.590  -0.055  0.00  0.00    +0.044 C 
ENDBRANCH  11  13
BRANCH   1  22
ATOM     21  N   UNL     1       3.059   3.463   2.788  0.00  0.00    -0.311 N 
ATOM     22  C   UNL     1       2.733   4.341   1.819  0.00  0.00    +0.269 C 
ATOM     23  O   UNL     1       2.631   5.521   2.080  0.00  0.00    -0.270 OA
ATOM     24  H   UNL     1       3.141   2.519   2.579  0.00  0.00    +0.149 HD
BRANCH  21  25
ATOM     25  C   UNL     1       3.291   3.933   4.156  0.00  0.00    +0.104 C 
BRANCH  25  27
ATOM     26  C   UNL     1       3.886   3.236   6.480  0.00  0.00    +0.005 C 
ATOM     27  C   UNL     1       3.644   2.744   5.052  0.00  0.00    +0.015 C 
ENDBRANCH  25  27
ENDBRANCH  21  25
ENDBRANCH   1  22
BRANCH   1  28
ATOM     28  O   UNL     1       2.369   5.005  -0.429  0.00  0.00    -0.360 OA
ATOM     29  H   UNL     1       1.608   5.565  -0.221  0.00  0.00    +0.213 HD
ENDBRANCH   1  28
TORSDOF 5
