REMARK  Name = ZINC50014804
REMARK  5 active torsions:
REMARK  status: ('A' for Active; 'I' for Inactive)
REMARK    1  A    between atoms: C_1  and  N_2
REMARK    2  A    between atoms: N_2  and  C_3
REMARK    3  A    between atoms: N_2  and  S_10
REMARK    4  A    between atoms: C_8  and  N_9
REMARK    5  A    between atoms: S_10  and  C_13
REMARK                            x       y       z     vdW  Elec       q    Type
REMARK                         _______ _______ _______ _____ _____    ______ ____
ROOT
ATOM      1  C   UNL     1      -0.018   1.461   0.010  0.00  0.00    +0.157 C 
ATOM      2  N   UNL     1       0.002  -0.004   0.002  0.00  0.00    -0.204 N 
ENDROOT
BRANCH   2   3
ATOM      3  C   UNL     1       0.023  -0.711   1.211  0.00  0.00    +0.072 A 
ATOM      4  C   UNL     1      -1.163  -0.993   1.872  0.00  0.00    +0.026 A 
ATOM      5  C   UNL     1      -1.139  -1.691   3.065  0.00  0.00    +0.002 A 
ATOM      6  C   UNL     1       0.064  -2.110   3.603  0.00  0.00    +0.002 A 
ATOM      7  C   UNL     1       1.251  -1.833   2.950  0.00  0.00    +0.024 A 
ATOM      8  C   UNL     1       1.236  -1.138   1.750  0.00  0.00    +0.047 A 
BRANCH   8   9
ATOM      9  N   UNL     1       2.437  -0.861   1.084  0.00  0.00    -0.356 N 
ATOM     10  H   UNL     1       2.425  -0.372   0.247  0.00  0.00    +0.142 HD
ATOM     11  H   UNL     1       3.280  -1.159   1.461  0.00  0.00    +0.142 HD
ENDBRANCH   8   9
ENDBRANCH   2   3
BRANCH   2  12
ATOM     12  S   UNL     1      -0.000  -0.824  -1.437  0.00  0.00    +0.075 S 
ATOM     13  O   UNL     1      -0.531  -2.115  -1.167  0.00  0.00    -0.150 OA
ATOM     14  O   UNL     1      -0.572   0.049  -2.401  0.00  0.00    -0.150 OA
BRANCH  12  15
ATOM     15  C   UNL     1       1.682  -1.059  -1.905  0.00  0.00    +0.111 A 
ATOM     16  C   UNL     1       2.323  -0.109  -2.677  0.00  0.00    +0.049 A 
ATOM     17  C   UNL     1       3.644  -0.293  -3.046  0.00  0.00    +0.044 A 
ATOM     18  C   UNL     1       4.323  -1.429  -2.641  0.00  0.00    +0.040 A 
ATOM     19  C   UNL     1       3.680  -2.379  -1.868  0.00  0.00    +0.044 A 
ATOM     20  C   UNL     1       2.361  -2.192  -1.496  0.00  0.00    +0.049 A 
ATOM     21 CL   UNL     1       4.531  -3.805  -1.361  0.00  0.00    -0.083 Cl
ATOM     22 CL   UNL     1       4.449   0.900  -4.016  0.00  0.00    -0.083 Cl
ENDBRANCH  12  15
ENDBRANCH   2  12
TORSDOF 4
