REMARK  Name = ZINC43394488
REMARK  11 active torsions:
REMARK  status: ('A' for Active; 'I' for Inactive)
REMARK    1  A    between atoms: C_1  and  C_2
REMARK    2  A    between atoms: C_2  and  C_3
REMARK    3  A    between atoms: C_2  and  N_4
REMARK    4  A    between atoms: C_5  and  C_7
REMARK    5  A    between atoms: C_7  and  C_8
REMARK    6  A    between atoms: C_8  and  N_9
REMARK    7  A    between atoms: N_12  and  C_13
REMARK    8  A    between atoms: C_18  and  C_19
REMARK    9  A    between atoms: C_19  and  N_20
REMARK   10  A    between atoms: N_20  and  C_21
REMARK   11  A    between atoms: N_20  and  C_22
REMARK                            x       y       z     vdW  Elec       q    Type
REMARK                         _______ _______ _______ _____ _____    ______ ____
ROOT
ATOM      1  C   UNL     1      -6.346  -7.075  -2.153  0.00  0.00    +0.036 A 
ATOM      2  C   UNL     1      -5.359  -7.901  -2.677  0.00  0.00    +0.023 A 
ATOM      3  C   UNL     1      -5.705  -9.108  -3.252  0.00  0.00    +0.002 A 
ATOM      4  C   UNL     1      -7.032  -9.494  -3.308  0.00  0.00    +0.000 A 
ATOM      5  C   UNL     1      -8.016  -8.674  -2.788  0.00  0.00    +0.003 A 
ATOM      6  C   UNL     1      -7.676  -7.469  -2.206  0.00  0.00    -0.043 A 
ENDROOT
BRANCH   1  10
ATOM      7  N   UNL     1      -4.691  -3.918  -1.559  0.00  0.00    -0.299 N 
ATOM      8  C   UNL     1      -4.969  -5.137  -2.063  0.00  0.00    +0.304 C 
ATOM      9  O   UNL     1      -4.290  -5.591  -2.964  0.00  0.00    -0.253 OA
ATOM     10  N   UNL     1      -5.998  -5.852  -1.568  0.00  0.00    -0.269 N 
ATOM     11  H   UNL     1      -5.233  -3.555  -0.841  0.00  0.00    +0.150 HD
ATOM     12  H   UNL     1      -6.499  -5.519  -0.807  0.00  0.00    +0.156 HD
BRANCH   7  13
ATOM     13  C   UNL     1      -3.572  -3.140  -2.097  0.00  0.00    +0.115 C 
BRANCH  13  14
ATOM     14  C   UNL     1      -3.476  -1.805  -1.356  0.00  0.00    +0.114 C 
BRANCH  14  16
ATOM     15  N   UNL     1      -2.047   0.213  -1.405  0.00  0.00    -0.313 N 
ATOM     16  C   UNL     1      -2.325  -1.006  -1.909  0.00  0.00    +0.215 C 
ATOM     17  O   UNL     1      -1.648  -1.459  -2.807  0.00  0.00    -0.276 OA
ATOM     18  H   UNL     1      -2.589   0.576  -0.687  0.00  0.00    +0.149 HD
BRANCH  15  20
ATOM     19  C   UNL     1      -1.178   2.480  -1.698  0.00  0.00    +0.027 C 
ATOM     20  C   UNL     1      -0.928   0.991  -1.943  0.00  0.00    +0.067 C 
ATOM     21  C   UNL     1       0.367   0.570  -1.246  0.00  0.00    +0.027 C 
ENDBRANCH  15  20
ENDBRANCH  14  16
ENDBRANCH  13  14
ENDBRANCH   7  13
ENDBRANCH   1  10
BRANCH   6  22
ATOM     22  C   UNL     1      -8.749  -6.578  -1.633  0.00  0.00    -0.041 C 
BRANCH  22  23
ATOM     23  N   UNL     1      -9.065  -5.513  -2.594  0.00  0.00    +0.382 N 
ATOM     24  C   UNL     1      -9.653  -6.102  -3.804  0.00  0.00    -0.095 C 
ATOM     25  H   UNL     1      -8.219  -5.018  -2.838  0.00  0.00    -0.081 HD
BRANCH  23  26
ATOM     26  C   UNL     1     -10.022  -4.577  -1.990  0.00  0.00    -0.069 C 
ATOM     27  C   UNL     1     -10.351  -3.467  -2.990  0.00  0.00    -0.015 C 
ATOM     28  C   UNL     1     -11.348  -2.492  -2.361  0.00  0.00    -0.002 C 
ATOM     29  C   UNL     1     -10.735  -1.878  -1.101  0.00  0.00    -0.000 C 
ATOM     30  C   UNL     1     -10.406  -2.988  -0.100  0.00  0.00    -0.002 C 
ATOM     31  C   UNL     1      -9.409  -3.962  -0.730  0.00  0.00    -0.015 C 
ENDBRANCH  23  26
ENDBRANCH  22  23
ENDBRANCH   6  22
TORSDOF 8
