REMARK  Name = ZINC30825158
REMARK  12 active torsions:
REMARK  status: ('A' for Active; 'I' for Inactive)
REMARK    1  A    between atoms: C_1  and  C_2
REMARK    2  A    between atoms: C_2  and  C_3
REMARK    3  A    between atoms: C_2  and  C_4
REMARK    4  A    between atoms: C_2  and  C_5
REMARK    5  A    between atoms: C_7  and  C_15
REMARK    6  A    between atoms: C_9  and  C_11
REMARK    7  A    between atoms: C_11  and  C_12
REMARK    8  A    between atoms: C_11  and  C_13
REMARK    9  A    between atoms: C_11  and  C_14
REMARK   10  A    between atoms: N_21  and  C_24
REMARK   11  A    between atoms: C_24  and  C_25
REMARK   12  A    between atoms: C_25  and  O_26
REMARK                            x       y       z     vdW  Elec       q    Type
REMARK                         _______ _______ _______ _____ _____    ______ ____
ROOT
ATOM      1  C   UNL     1       5.918   1.492  -1.744  0.00  0.00    -0.041 A 
ATOM      2  C   UNL     1       4.579   1.527  -1.413  0.00  0.00    +0.015 A 
ATOM      3  C   UNL     1       3.955   0.379  -0.922  0.00  0.00    +0.020 A 
ATOM      4  C   UNL     1       4.691  -0.796  -0.764  0.00  0.00    +0.015 A 
ATOM      5  C   UNL     1       6.028  -0.819  -1.104  0.00  0.00    -0.041 A 
ATOM      6  C   UNL     1       6.641   0.322  -1.591  0.00  0.00    +0.008 A 
ENDROOT
BRANCH   3   7
ATOM      7  C   UNL     1       2.521   0.410  -0.564  0.00  0.00    +0.166 A 
ATOM      8  N   UNL     1       1.882  -0.461   0.187  0.00  0.00    -0.128 NA
ATOM      9  N   UNL     1       0.641  -0.130   0.290  0.00  0.00    -0.122 NA
ATOM     10  C   UNL     1       0.420   0.963  -0.388  0.00  0.00    +0.194 A 
ATOM     11  N   UNL     1       1.603   1.351  -0.952  0.00  0.00    -0.288 N 
ATOM     12  C   UNL     1       1.813   2.531  -1.784  0.00  0.00    +0.214 C 
ATOM     13  N   UNL     1       0.547   3.016  -2.340  0.00  0.00    -0.273 NA
ATOM     14  C   UNL     1      -0.420   3.373  -1.290  0.00  0.00    +0.164 C 
ATOM     15  S   UNL     1      -1.099   1.839  -0.591  0.00  0.00    -0.070 S 
BRANCH  13  16
ATOM     16  C   UNL     1       0.771   4.143  -3.255  0.00  0.00    +0.114 C 
BRANCH  16  17
ATOM     17  C   UNL     1       1.049   5.410  -2.444  0.00  0.00    +0.171 C 
BRANCH  17  18
ATOM     18  O   UNL     1       2.262   5.248  -1.707  0.00  0.00    -0.394 OA
ATOM     19  H   UNL     1       2.626   6.061  -1.061  0.00  0.00    +0.209 HD
ENDBRANCH  17  18
ENDBRANCH  16  17
ENDBRANCH  13  16
ENDBRANCH   3   7
BRANCH   1  21
ATOM     20  C   UNL     1       5.580   3.873  -2.348  0.00  0.00    +0.015 C 
ATOM     21  C   UNL     1       6.594   2.729  -2.275  0.00  0.00    -0.013 C 
ATOM     22  C   UNL     1       7.741   3.124  -1.343  0.00  0.00    +0.015 C 
ATOM     23  C   UNL     1       7.147   2.449  -3.674  0.00  0.00    +0.015 C 
ENDBRANCH   1  21
BRANCH   5  24
ATOM     24  C   UNL     1       6.824  -2.088  -0.940  0.00  0.00    -0.013 C 
ATOM     25  C   UNL     1       7.979  -1.844   0.034  0.00  0.00    +0.015 C 
ATOM     26  C   UNL     1       5.918  -3.191  -0.389  0.00  0.00    +0.015 C 
ATOM     27  C   UNL     1       7.384  -2.518  -2.297  0.00  0.00    +0.015 C 
ENDBRANCH   5  24
TORSDOF 6
