REMARK  Name = ZINC03288783
REMARK  7 active torsions:
REMARK  status: ('A' for Active; 'I' for Inactive)
REMARK    1  A    between atoms: C_1  and  C_2
REMARK    2  A    between atoms: C_3  and  C_12
REMARK    3  A    between atoms: C_12  and  C_14
REMARK    4  A    between atoms: C_14  and  N_15
REMARK    5  A    between atoms: C_20  and  C_27
REMARK    6  A    between atoms: C_23  and  C_25
REMARK    7  A    between atoms: C_23  and  C_26
REMARK                            x       y       z     vdW  Elec       q    Type
REMARK                         _______ _______ _______ _____ _____    ______ ____
ROOT
ATOM      1  N   UNL     1      -0.056   0.810  -4.385  0.00  0.00    -0.217 N 
ATOM      2  C   UNL     1       0.965   0.742  -5.265  0.00  0.00    +0.247 C 
ATOM      3  O   UNL     1       2.137   0.560  -5.016  0.00  0.00    -0.273 OA
ATOM      4  C   UNL     1       0.338   0.942  -6.625  0.00  0.00    +0.113 C 
ATOM      5  C   UNL     1       0.904   2.190  -7.294  0.00  0.00    +0.038 C 
ATOM      6  C   UNL     1       0.235   2.390  -8.656  0.00  0.00    -0.011 C 
ATOM      7  C   UNL     1       0.489   1.162  -9.533  0.00  0.00    +0.009 C 
ATOM      8  C   UNL     1      -0.105  -0.077  -8.861  0.00  0.00    -0.032 C 
ATOM      9  C   UNL     1       0.563  -0.287  -7.499  0.00  0.00    +0.041 C 
ATOM     10  C   UNL     1      -1.610   0.119  -8.666  0.00  0.00    +0.011 C 
ATOM     11  C   UNL     1       0.139  -1.303  -9.743  0.00  0.00    +0.011 C 
ATOM     12  C   UNL     1       0.820   3.631  -9.334  0.00  0.00    +0.007 C 
ATOM     13  N   UNL     1      -1.091   1.115  -6.338  0.00  0.00    -0.285 N 
ATOM     14  C   UNL     1      -1.225   1.017  -5.002  0.00  0.00    +0.310 C 
ATOM     15  O   UNL     1      -2.289   1.110  -4.420  0.00  0.00    -0.252 OA
ATOM     16  H   UNL     1      -1.799   1.267  -6.983  0.00  0.00    +0.151 HD
ENDROOT
BRANCH   1  17
ATOM     17  C   UNL     1       0.097   0.668  -2.935  0.00  0.00    +0.197 C 
BRANCH  17  18
ATOM     18  C   UNL     1      -0.038  -0.784  -2.555  0.00  0.00    +0.183 C 
ATOM     19  O   UNL     1      -0.146  -1.630  -3.419  0.00  0.00    -0.290 OA
BRANCH  18  22
ATOM     20  C   UNL     1      -2.575  -1.204  -0.824  0.00  0.00    +0.064 C 
ATOM     21  C   UNL     1      -1.142  -1.360  -0.386  0.00  0.00    +0.024 A 
ATOM     22  C   UNL     1      -0.039  -1.163  -1.189  0.00  0.00    +0.047 A 
ATOM     23  C   UNL     1       1.140  -1.426  -0.341  0.00  0.00    +0.010 A 
ATOM     24  C   UNL     1       2.515  -1.398  -0.561  0.00  0.00    +0.011 A 
ATOM     25  C   UNL     1       3.376  -1.704   0.470  0.00  0.00    +0.001 A 
ATOM     26  C   UNL     1       2.879  -2.040   1.721  0.00  0.00    +0.002 A 
ATOM     27  C   UNL     1       1.521  -2.071   1.951  0.00  0.00    +0.026 A 
ATOM     28  C   UNL     1       0.635  -1.765   0.923  0.00  0.00    +0.047 A 
ATOM     29  N   UNL     1      -0.742  -1.706   0.853  0.00  0.00    -0.358 N 
ATOM     30  H   UNL     1      -1.341  -1.893   1.593  0.00  0.00    +0.166 HD
ENDBRANCH  18  22
ENDBRANCH  17  18
ENDBRANCH   1  17
TORSDOF 3
