REMARK  Name = ZINC02886459
REMARK  7 active torsions:
REMARK  status: ('A' for Active; 'I' for Inactive)
REMARK    1  A    between atoms: C_1  and  C_2
REMARK    2  A    between atoms: C_3  and  C_20
REMARK    3  A    between atoms: C_11  and  O_14
REMARK    4  A    between atoms: O_14  and  C_15
REMARK    5  A    between atoms: N_22  and  C_23
REMARK    6  A    between atoms: C_28  and  O_29
REMARK    7  A    between atoms: O_29  and  C_30
REMARK                            x       y       z     vdW  Elec       q    Type
REMARK                         _______ _______ _______ _____ _____    ______ ____
ROOT
ATOM      1  C   UNL     1       5.914   2.345   0.223  0.00  0.00    +0.079 C 
ATOM      2  C   UNL     1       4.764   1.458  -0.258  0.00  0.00    +0.188 C 
ATOM      3  C   UNL     1       4.785   0.132   0.516  0.00  0.00    +0.162 C 
ATOM      4  C   UNL     1       3.692  -0.758  -0.097  0.00  0.00    +0.123 C 
ATOM      5  C   UNL     1       2.389   0.009  -0.076  0.00  0.00    +0.019 A 
ATOM      6  C   UNL     1       1.196  -0.695  -0.101  0.00  0.00    +0.009 A 
ATOM      7  C   UNL     1      -0.010  -0.021  -0.092  0.00  0.00    +0.004 A 
ATOM      8  C   UNL     1      -0.029   1.361  -0.060  0.00  0.00    +0.049 A 
ATOM      9  C   UNL     1       1.159   2.069  -0.034  0.00  0.00    +0.162 A 
ATOM     10  C   UNL     1       2.379   1.390  -0.039  0.00  0.00    +0.170 A 
ATOM     11  O   UNL     1       3.526   2.117  -0.001  0.00  0.00    -0.464 OA
ATOM     12  N   UNL     1       4.044  -0.987  -1.508  0.00  0.00    -0.319 N 
ATOM     13  C   UNL     1       4.604   0.002  -2.224  0.00  0.00    +0.134 C 
ATOM     14  S   UNL     1       4.921  -0.261  -3.885  0.00  0.00    -0.019 S 
ATOM     15  N   UNL     1       4.923   1.188  -1.684  0.00  0.00    -0.289 N 
ATOM     16  H   UNL     1       3.872  -1.849  -1.919  0.00  0.00    +0.148 HD
ATOM     17  H   UNL     1       5.270   1.888  -2.259  0.00  0.00    +0.151 HD
ENDROOT
BRANCH   3  18
ATOM     18  C   UNL     1       6.131  -0.529   0.367  0.00  0.00    +0.228 C 
ATOM     19  O   UNL     1       6.765  -0.390  -0.658  0.00  0.00    -0.275 OA
ATOM     20  N   UNL     1       6.630  -1.275   1.372  0.00  0.00    -0.282 N 
ATOM     21  H   UNL     1       6.099  -1.434   2.168  0.00  0.00    +0.155 HD
BRANCH  20  22
ATOM     22  C   UNL     1       7.917  -1.820   1.268  0.00  0.00    +0.076 A 
ATOM     23  C   UNL     1       8.470  -2.065   0.019  0.00  0.00    +0.027 A 
ATOM     24  C   UNL     1       9.741  -2.597  -0.081  0.00  0.00    +0.002 A 
ATOM     25  C   UNL     1      10.461  -2.896   1.061  0.00  0.00    +0.004 A 
ATOM     26  C   UNL     1       9.915  -2.660   2.309  0.00  0.00    +0.047 A 
ATOM     27  C   UNL     1       8.643  -2.122   2.418  0.00  0.00    +0.141 A 
BRANCH  27  28
ATOM     28  O   UNL     1       8.105  -1.888   3.645  0.00  0.00    -0.493 OA
ATOM     29  C   UNL     1       8.907  -2.222   4.779  0.00  0.00    +0.277 C 
ENDBRANCH  27  28
ENDBRANCH  20  22
ENDBRANCH   3  18
BRANCH   9  30
ATOM     30  O   UNL     1       1.139   3.429  -0.004  0.00  0.00    -0.491 OA
ATOM     31  C   UNL     1      -0.144   4.058  -0.001  0.00  0.00    +0.277 C 
ENDBRANCH   9  30
TORSDOF 4
