REMARK  Name = ZINC03846501
REMARK  8 active torsions:
REMARK  status: ('A' for Active; 'I' for Inactive)
REMARK    1  A    between atoms: C_1  and  N_2
REMARK    2  A    between atoms: C_11  and  C_14
REMARK    3  A    between atoms: C_14  and  C_16
REMARK    4  A    between atoms: C_16  and  C_17
REMARK    5  A    between atoms: C_17  and  C_19
REMARK    6  A    between atoms: C_17  and  N_24
REMARK    7  A    between atoms: N_24  and  C_25
REMARK    8  A    between atoms: C_30  and  O_31
REMARK                            x       y       z     vdW  Elec       q    Type
REMARK                         _______ _______ _______ _____ _____    ______ ____
ROOT
ATOM      1  C   UNL     1       0.918   5.160   0.020  0.00  0.00    +0.115 C 
ENDROOT
BRANCH   1   2
ATOM      2  C   UNL     1       0.421   3.738   0.017  0.00  0.00    +0.010 A 
ATOM      3  C   UNL     1      -0.855   3.279   0.027  0.00  0.00    +0.013 A 
ATOM      4  C   UNL     1      -1.077   1.915   0.017  0.00  0.00    +0.008 A 
ATOM      5  C   UNL     1      -0.013   1.076   0.008  0.00  0.00    +0.045 A 
ATOM      6  S   UNL     1       1.359   2.219   0.001  0.00  0.00    -0.100 S 
ENDBRANCH   1   2
BRANCH   1   7
ATOM      7  N   UNL     1       2.086   5.268   0.897  0.00  0.00    -0.333 N 
ATOM      8  H   UNL     1       3.099   5.192   0.476  0.00  0.00    +0.147 HD
BRANCH   7   9
ATOM      9  C   UNL     1       1.913   5.468   2.272  0.00  0.00    +0.071 A 
ATOM     10  C   UNL     1       0.636   5.565   2.805  0.00  0.00    +0.046 A 
ATOM     11  C   UNL     1       0.467   5.763   4.163  0.00  0.00    +0.043 A 
ATOM     12  C   UNL     1       1.570   5.865   4.992  0.00  0.00    +0.023 A 
ATOM     13  C   UNL     1       2.845   5.769   4.467  0.00  0.00    +0.049 A 
ATOM     14  C   UNL     1       3.022   5.565   3.108  0.00  0.00    +0.138 A 
ATOM     15 CL   UNL     1      -1.132   5.883   4.829  0.00  0.00    -0.083 Cl
BRANCH  14  16
ATOM     16  O   UNL     1       4.277   5.465   2.592  0.00  0.00    -0.505 OA
ATOM     17  H   UNL     1       5.152   5.542   3.254  0.00  0.00    +0.292 HD
ENDBRANCH  14  16
ENDBRANCH   7   9
ENDBRANCH   1   7
BRANCH   1  18
ATOM     18  C   UNL     1       1.310   5.566  -1.403  0.00  0.00    +0.107 C 
BRANCH  18  19
ATOM     19  C   UNL     1       1.690   7.024  -1.423  0.00  0.00    +0.174 C 
ATOM     20  O   UNL     1       1.652   7.675  -0.399  0.00  0.00    -0.292 OA
BRANCH  19  31
ATOM     21  C   UNL     1       3.192  11.009  -3.759  0.00  0.00    +0.152 C 
ATOM     22  N   UNL     1       2.834   9.589  -3.805  0.00  0.00    -0.310 N 
ATOM     23  C   UNL     1       2.906   8.928  -5.014  0.00  0.00    +0.055 A 
ATOM     24  C   UNL     1       3.312   9.603  -6.162  0.00  0.00    +0.026 A 
ATOM     25  C   UNL     1       3.384   8.937  -7.366  0.00  0.00    +0.002 A 
ATOM     26  C   UNL     1       3.054   7.592  -7.450  0.00  0.00    +0.001 A 
ATOM     27  C   UNL     1       2.649   6.904  -6.328  0.00  0.00    +0.014 A 
ATOM     28  C   UNL     1       2.573   7.567  -5.103  0.00  0.00    +0.046 A 
ATOM     29  C   UNL     1       2.143   6.858  -3.882  0.00  0.00    +0.204 A 
ATOM     30  O   UNL     1       1.844   5.677  -3.906  0.00  0.00    -0.286 OA
ATOM     31  C   UNL     1       2.092   7.633  -2.634  0.00  0.00    +0.129 A 
ATOM     32  C   UNL     1       2.442   8.986  -2.668  0.00  0.00    +0.266 A 
ATOM     33  O   UNL     1       2.392   9.705  -1.531  0.00  0.00    -0.267 OA
ENDBRANCH  19  31
ENDBRANCH  18  19
ENDBRANCH   1  18
TORSDOF 7
