REMARK  Name = ZINC21511102
REMARK  6 active torsions:
REMARK  status: ('A' for Active; 'I' for Inactive)
REMARK    1  A    between atoms: C_1  and  C_2
REMARK    2  A    between atoms: C_4  and  N_11
REMARK    3  A    between atoms: C_5  and  O_9
REMARK    4  A    between atoms: O_9  and  C_10
REMARK    5  A    between atoms: N_11  and  C_12
REMARK    6  A    between atoms: C_20  and  O_22
REMARK                            x       y       z     vdW  Elec       q    Type
REMARK                         _______ _______ _______ _____ _____    ______ ____
ROOT
ATOM      1  N   UNL     1      -1.200  -0.722   0.009  0.00  0.00    -0.331 N 
ATOM      2  H   UNL     1      -2.161  -0.187   0.021  0.00  0.00    +0.147 HD
ENDROOT
BRANCH   1   3
ATOM      3  C   UNL     1      -1.178  -2.187   0.001  0.00  0.00    +0.142 C 
ATOM      4  C   UNL     1      -1.219  -2.748   1.442  0.00  0.00    +0.256 C 
ATOM      5  O   UNL     1      -2.031  -3.926   1.302  0.00  0.00    -0.489 OA
ATOM      6  C   UNL     1      -2.891  -3.757   0.260  0.00  0.00    +0.129 A 
ATOM      7  C   UNL     1      -2.459  -2.745  -0.589  0.00  0.00    +0.018 A 
ATOM      8  C   UNL     1      -3.172  -2.421  -1.722  0.00  0.00    +0.013 A 
ATOM      9  C   UNL     1      -4.337  -3.101  -2.025  0.00  0.00    +0.046 A 
ATOM     10  C   UNL     1      -4.784  -4.109  -1.183  0.00  0.00    +0.120 A 
ATOM     11  C   UNL     1      -4.066  -4.437  -0.045  0.00  0.00    +0.091 A 
BRANCH  10  12
ATOM     12  O   UNL     1      -5.931  -4.777  -1.475  0.00  0.00    -0.507 OA
ATOM     13  H   UNL     1      -6.287  -5.576  -0.809  0.00  0.00    +0.292 HD
ENDBRANCH  10  12
ENDBRANCH   1   3
BRANCH   1  17
ATOM     14  C   UNL     1       3.716  -0.701  -0.038  0.00  0.00    +0.045 C 
ATOM     15  C   UNL     1       2.400   0.033  -0.021  0.00  0.00    -0.030 A 
ATOM     16  C   UNL     1       1.214  -0.678  -0.013  0.00  0.00    +0.031 A 
ATOM     17  C   UNL     1       0.002  -0.004   0.002  0.00  0.00    +0.070 A 
ATOM     18  C   UNL     1      -0.017   1.389   0.010  0.00  0.00    +0.142 A 
ATOM     19  C   UNL     1       1.175   2.095   0.002  0.00  0.00    +0.067 A 
ATOM     20  C   UNL     1       2.381   1.416  -0.013  0.00  0.00    +0.047 A 
ATOM     21 CL   UNL     1       3.873   2.303  -0.022  0.00  0.00    -0.083 Cl
BRANCH  18  22
ATOM     22  O   UNL     1      -1.203   2.055   0.019  0.00  0.00    -0.493 OA
ATOM     23  C   UNL     1      -1.146   3.483   0.026  0.00  0.00    +0.277 C 
ENDBRANCH  18  22
ENDBRANCH   1  17
TORSDOF 4
