REMARK  Name = ZINC15464537
REMARK  7 active torsions:
REMARK  status: ('A' for Active; 'I' for Inactive)
REMARK    1  A    between atoms: C_1  and  C_2
REMARK    2  A    between atoms: C_5  and  C_28
REMARK    3  A    between atoms: C_6  and  N_8
REMARK    4  A    between atoms: C_10  and  C_15
REMARK    5  A    between atoms: N_17  and  C_18
REMARK    6  A    between atoms: C_22  and  N_25
REMARK    7  A    between atoms: C_23  and  C_24
REMARK                            x       y       z     vdW  Elec       q    Type
REMARK                         _______ _______ _______ _____ _____    ______ ____
ROOT
ATOM      1  N   UNL     1       7.640   1.859  -3.095  0.00  0.00    -0.270 N 
ATOM      2  C   UNL     1       6.994   1.229  -1.937  0.00  0.00    +0.127 C 
ATOM      3  C   UNL     1       5.829   2.169  -1.554  0.00  0.00    +0.102 C 
ATOM      4  C   UNL     1       5.535   2.871  -2.900  0.00  0.00    +0.110 C 
ATOM      5  C   UNL     1       6.840   2.781  -3.658  0.00  0.00    +0.221 C 
ATOM      6  O   UNL     1       7.125   3.444  -4.633  0.00  0.00    -0.275 OA
ENDROOT
BRANCH   1  12
ATOM      7  C   UNL     1      10.550  -0.861  -5.976  0.00  0.00    +0.044 C 
ATOM      8  C   UNL     1      10.363   0.226  -4.949  0.00  0.00    -0.049 A 
ATOM      9  C   UNL     1      11.460   0.910  -4.459  0.00  0.00    +0.004 A 
ATOM     10  C   UNL     1      11.292   1.908  -3.517  0.00  0.00    +0.005 A 
ATOM     11  C   UNL     1      10.026   2.229  -3.067  0.00  0.00    -0.029 A 
ATOM     12  C   UNL     1       8.923   1.540  -3.553  0.00  0.00    +0.039 A 
ATOM     13  C   UNL     1       9.095   0.538  -4.499  0.00  0.00    +0.027 A 
ATOM     14  C   UNL     1       9.843   3.321  -2.045  0.00  0.00    +0.045 C 
ENDBRANCH   1  12
BRANCH   3  15
ATOM     15  C   UNL     1       4.633   1.381  -1.084  0.00  0.00    +0.222 C 
ATOM     16  O   UNL     1       4.681   0.170  -1.048  0.00  0.00    -0.275 OA
ATOM     17  N   UNL     1       3.510   2.022  -0.704  0.00  0.00    -0.285 N 
ATOM     18  H   UNL     1       3.493   2.992  -0.673  0.00  0.00    +0.155 HD
BRANCH  17  19
ATOM     19  C   UNL     1       2.371   1.290  -0.353  0.00  0.00    +0.038 A 
ATOM     20  C   UNL     1       2.501   0.055   0.269  0.00  0.00    +0.024 A 
ATOM     21  C   UNL     1       1.374  -0.665   0.613  0.00  0.00    +0.004 A 
ATOM     22  C   UNL     1       0.117  -0.158   0.340  0.00  0.00    +0.033 A 
ATOM     23  C   UNL     1      -0.016   1.071  -0.279  0.00  0.00    +0.131 A 
ATOM     24  C   UNL     1       1.107   1.797  -0.626  0.00  0.00    +0.001 A 
ATOM     25  C   UNL     1       0.961   3.136  -1.302  0.00  0.00    +0.048 C 
BRANCH  23  26
ATOM     26  N   UNL     1      -1.363   1.608  -0.576  0.00  0.00    +0.057 N 
ATOM     27  O   UNL     1      -2.348   0.913  -0.400  0.00  0.00    -0.126 OA
ATOM     28  O   UNL     1      -1.488   2.744  -0.996  0.00  0.00    -0.126 OA
ENDBRANCH  23  26
ENDBRANCH  17  19
ENDBRANCH   3  15
TORSDOF 4
