REMARK  Name = ZINC35425169
REMARK  6 active torsions:
REMARK  status: ('A' for Active; 'I' for Inactive)
REMARK    1  A    between atoms: C_3  and  C_6
REMARK    2  A    between atoms: N_8  and  C_9
REMARK    3  A    between atoms: C_9  and  C_10
REMARK    4  A    between atoms: C_10  and  C_11
REMARK    5  A    between atoms: N_13  and  C_14
REMARK    6  A    between atoms: C_17  and  C_19
REMARK                            x       y       z     vdW  Elec       q    Type
REMARK                         _______ _______ _______ _____ _____    ______ ____
ROOT
ATOM      1  C   UNL     1       7.652  -2.090  -0.083  0.00  0.00    +0.219 C 
ATOM      2  O   UNL     1       8.284  -1.055  -0.084  0.00  0.00    -0.275 OA
ATOM      3  N   UNL     1       8.297  -3.273  -0.096  0.00  0.00    -0.280 N 
ATOM      4  H   UNL     1       7.792  -4.101  -0.095  0.00  0.00    +0.155 HD
ENDROOT
BRANCH   3   5
ATOM      5  C   UNL     1       9.685  -3.307  -0.110  0.00  0.00    +0.072 A 
ATOM      6  C   UNL     1      10.505  -4.413  -0.129  0.00  0.00    +0.032 A 
ATOM      7  C   UNL     1      11.861  -4.226  -0.141  0.00  0.00    +0.025 A 
ATOM      8  C   UNL     1      12.291  -2.902  -0.132  0.00  0.00    +0.102 A 
ATOM      9  S   UNL     1      10.750  -2.007  -0.114  0.00  0.00    -0.067 S 
BRANCH   8  10
ATOM     10  C   UNL     1      13.610  -2.398  -0.140  0.00  0.00    +0.393 C 
ATOM     11  O   UNL     1      14.561  -3.171  -0.157  0.00  0.00    -0.240 OA
ATOM     12  O   UNL     1      13.803  -1.188  -0.130  0.00  0.00    -0.240 OA
ENDBRANCH   8  10
ENDBRANCH   3   5
BRANCH   1  13
ATOM     13  C   UNL     1       6.146  -2.054  -0.068  0.00  0.00    +0.115 C 
BRANCH  13  14
ATOM     14  C   UNL     1       5.671  -0.599  -0.056  0.00  0.00    +0.114 C 
BRANCH  14  17
ATOM     15  C   UNL     1       3.561   0.619  -0.029  0.00  0.00    +0.279 C 
ATOM     16  O   UNL     1       4.195   1.658  -0.030  0.00  0.00    -0.267 OA
ATOM     17  N   UNL     1       4.206  -0.564  -0.042  0.00  0.00    -0.308 N 
ATOM     18  H   UNL     1       3.701  -1.392  -0.041  0.00  0.00    +0.149 HD
BRANCH  15  21
ATOM     19  C   UNL     1      -0.016   1.347   0.009  0.00  0.00    +0.042 A 
ATOM     20  C   UNL     1       1.319   1.778  -0.001  0.00  0.00    +0.054 A 
ATOM     21  C   UNL     1       2.095   0.654  -0.014  0.00  0.00    +0.189 A 
ATOM     22  O   UNL     1       1.276  -0.418  -0.012  0.00  0.00    -0.458 OA
ATOM     23  C   UNL     1       0.002  -0.004   0.002  0.00  0.00    +0.196 A 
ENDBRANCH  15  21
ENDBRANCH  14  17
ENDBRANCH  13  14
ENDBRANCH   1  13
TORSDOF 6
