REMARK  Name = ZINC04859528
REMARK  4 active torsions:
REMARK  status: ('A' for Active; 'I' for Inactive)
REMARK    1  A    between atoms: C_7  and  N_15
REMARK    2  A    between atoms: C_8  and  N_12
REMARK    3  A    between atoms: N_15  and  C_16
REMARK    4  A    between atoms: C_21  and  N_22
REMARK                            x       y       z     vdW  Elec       q    Type
REMARK                         _______ _______ _______ _____ _____    ______ ____
ROOT
ATOM      1  C   UNL     1       3.386  -1.404   0.788  0.00  0.00    +0.001 A 
ATOM      2  C   UNL     1       4.641  -0.884   0.507  0.00  0.00    +0.004 A 
ATOM      3  C   UNL     1       4.774   0.384  -0.020  0.00  0.00    +0.047 A 
ATOM      4  C   UNL     1       3.645   1.151  -0.276  0.00  0.00    +0.141 A 
ATOM      5  C   UNL     1       2.376   0.625   0.009  0.00  0.00    +0.041 A 
ATOM      6  C   UNL     1       2.254  -0.659   0.542  0.00  0.00    +0.013 A 
ATOM      7  C   UNL     1       1.186   1.449  -0.267  0.00  0.00    +0.080 A 
ATOM      8  C   UNL     1       1.382   2.708  -0.801  0.00  0.00    +0.232 A 
ATOM      9  C   UNL     1       2.686   3.157  -1.049  0.00  0.00    +0.370 A 
ATOM     10  O   UNL     1       2.849   4.271  -1.516  0.00  0.00    -0.243 OA
ATOM     11  O   UNL     1       3.760   2.394  -0.792  0.00  0.00    -0.420 OA
ENDROOT
BRANCH   8  12
ATOM     12  N   UNL     1       0.224   3.578  -1.103  0.00  0.00    +0.065 N 
ATOM     13  O   UNL     1      -0.138   4.414  -0.294  0.00  0.00    -0.126 OA
ATOM     14  O   UNL     1      -0.368   3.459  -2.161  0.00  0.00    -0.126 OA
ENDBRANCH   8  12
BRANCH   7  15
ATOM     15  N   UNL     1      -0.081   0.977  -0.006  0.00  0.00    -0.311 N 
ATOM     16  H   UNL     1      -0.558   0.469  -0.681  0.00  0.00    +0.152 HD
BRANCH  15  17
ATOM     17  C   UNL     1      -0.684   1.236   1.231  0.00  0.00    +0.052 A 
ATOM     18  C   UNL     1      -0.056   2.062   2.151  0.00  0.00    +0.025 A 
ATOM     19  C   UNL     1      -0.655   2.321   3.370  0.00  0.00    +0.002 A 
ATOM     20  C   UNL     1      -1.875   1.749   3.680  0.00  0.00    +0.002 A 
ATOM     21  C   UNL     1      -2.506   0.919   2.772  0.00  0.00    +0.024 A 
ATOM     22  C   UNL     1      -1.915   0.659   1.544  0.00  0.00    +0.046 A 
BRANCH  22  23
ATOM     23  N   UNL     1      -2.551  -0.181   0.623  0.00  0.00    -0.357 N 
ATOM     24  H   UNL     1      -2.136  -0.362  -0.234  0.00  0.00    +0.142 HD
ATOM     25  H   UNL     1      -3.406  -0.581   0.843  0.00  0.00    +0.142 HD
ENDBRANCH  22  23
ENDBRANCH  15  17
ENDBRANCH   7  15
TORSDOF 4
