REMARK  Name = ZINC24583795
REMARK  12 active torsions:
REMARK  status: ('A' for Active; 'I' for Inactive)
REMARK    1  A    between atoms: C_1  and  C_2
REMARK    2  A    between atoms: C_2  and  C_3
REMARK    3  A    between atoms: C_2  and  C_4
REMARK    4  A    between atoms: C_4  and  C_6
REMARK    5  A    between atoms: C_4  and  N_20
REMARK    6  A    between atoms: N_8  and  C_9
REMARK    7  A    between atoms: C_11  and  C_16
REMARK    8  A    between atoms: C_14  and  O_15
REMARK    9  A    between atoms: C_16  and  C_17
REMARK   10  A    between atoms: C_16  and  C_18
REMARK   11  A    between atoms: C_16  and  C_19
REMARK   12  A    between atoms: C_21  and  C_23
REMARK                            x       y       z     vdW  Elec       q    Type
REMARK                         _______ _______ _______ _____ _____    ______ ____
ROOT
ATOM      1  C   UNL     1       0.093  -0.054   0.398  0.00  0.00    +0.238 C 
ATOM      2  O   UNL     1       1.099  -0.390   0.986  0.00  0.00    -0.273 OA
ATOM      3  N   UNL     1       0.118   1.014  -0.423  0.00  0.00    -0.281 N 
ATOM      4  H   UNL     1      -0.785   1.299  -0.983  0.00  0.00    +0.155 HD
ENDROOT
BRANCH   3   5
ATOM      5  C   UNL     1       1.295   1.762  -0.565  0.00  0.00    +0.076 A 
ATOM      6  C   UNL     1       2.527   1.173  -0.322  0.00  0.00    +0.031 A 
ATOM      7  C   UNL     1       3.686   1.911  -0.467  0.00  0.00    -0.040 A 
ATOM      8  C   UNL     1       3.622   3.240  -0.844  0.00  0.00    +0.008 A 
ATOM      9  C   UNL     1       2.397   3.835  -1.082  0.00  0.00    +0.047 A 
ATOM     10  C   UNL     1       1.230   3.101  -0.944  0.00  0.00    +0.138 A 
BRANCH   7  11
ATOM     11  C   UNL     1       5.024   1.267  -0.208  0.00  0.00    -0.013 C 
ATOM     12  C   UNL     1       6.136   2.295  -0.431  0.00  0.00    +0.015 C 
ATOM     13  C   UNL     1       5.078   0.764   1.235  0.00  0.00    +0.015 C 
ATOM     14  C   UNL     1       5.218   0.090  -1.167  0.00  0.00    +0.015 C 
ENDBRANCH   7  11
BRANCH  10  15
ATOM     15  O   UNL     1       0.025   3.686  -1.177  0.00  0.00    -0.505 OA
ATOM     16  H   UNL     1      -0.024   4.743  -1.477  0.00  0.00    +0.292 HD
ENDBRANCH  10  15
ENDBRANCH   3   5
BRANCH   1  17
ATOM     17  C   UNL     1      -1.184  -0.831   0.585  0.00  0.00    +0.162 C 
BRANCH  17  18
ATOM     18  N   UNL     1      -0.878  -2.145   1.156  0.00  0.00    -0.300 N 
ATOM     19  C   UNL     1      -1.720  -3.178   0.957  0.00  0.00    +0.246 C 
ATOM     20  O   UNL     1      -2.733  -3.020   0.305  0.00  0.00    -0.270 OA
ATOM     21  H   UNL     1       0.040  -2.288   1.746  0.00  0.00    +0.150 HD
BRANCH  19  22
ATOM     22  C   UNL     1      -1.410  -4.504   1.533  0.00  0.00    +0.055 A 
ATOM     23  C   UNL     1      -0.244  -4.690   2.278  0.00  0.00    +0.014 A 
ATOM     24  C   UNL     1       0.036  -5.928   2.817  0.00  0.00    +0.001 A 
ATOM     25  C   UNL     1      -0.830  -6.989   2.612  0.00  0.00    +0.001 A 
ATOM     26  C   UNL     1      -1.985  -6.814   1.871  0.00  0.00    +0.021 A 
ATOM     27  C   UNL     1      -2.281  -5.577   1.329  0.00  0.00    +0.053 A 
ATOM     28 CL   UNL     1      -3.730  -5.359   0.399  0.00  0.00    -0.083 Cl
ENDBRANCH  19  22
ENDBRANCH  17  18
BRANCH  17  30
ATOM     29  C   UNL     1      -3.463  -0.780   1.608  0.00  0.00    +0.009 C 
ATOM     30  C   UNL     1      -2.111  -0.067   1.533  0.00  0.00    +0.012 C 
ATOM     31  C   UNL     1      -1.484  -0.014   2.927  0.00  0.00    +0.009 C 
ENDBRANCH  17  30
ENDBRANCH   1  17
TORSDOF 7
