REMARK  Name = ZINC40369228
REMARK  7 active torsions:
REMARK  status: ('A' for Active; 'I' for Inactive)
REMARK    1  A    between atoms: C_1  and  C_2
REMARK    2  A    between atoms: C_6  and  C_7
REMARK    3  A    between atoms: N_9  and  C_10
REMARK    4  A    between atoms: N_9  and  C_16
REMARK    5  A    between atoms: C_10  and  C_11
REMARK    6  A    between atoms: C_11  and  C_12
REMARK    7  A    between atoms: N_13  and  O_14
REMARK                            x       y       z     vdW  Elec       q    Type
REMARK                         _______ _______ _______ _____ _____    ______ ____
ROOT
ATOM      1  C   UNL     1      -0.121  -0.466   2.462  0.00  0.00    +0.286 C 
ATOM      2  O   UNL     1      -0.124  -0.873   1.315  0.00  0.00    -0.266 OA
ATOM      3  N   UNL     1       0.155  -1.311   3.476  0.00  0.00    -0.265 N 
ENDROOT
BRANCH   1   9
ATOM      4  C   UNL     1      -0.538   1.765   0.312  0.00  0.00    +0.048 C 
ATOM      5  C   UNL     1      -0.601   1.924   1.810  0.00  0.00    -0.000 A 
ATOM      6  C   UNL     1      -0.865   3.107   2.517  0.00  0.00    +0.045 A 
ATOM      7  C   UNL     1      -0.826   2.801   3.833  0.00  0.00    +0.196 A 
ATOM      8  O   UNL     1      -0.551   1.497   3.964  0.00  0.00    -0.458 OA
ATOM      9  C   UNL     1      -0.416   0.942   2.741  0.00  0.00    +0.192 A 
ENDBRANCH   1   9
BRANCH   3  10
ATOM     10  C   UNL     1       0.513  -2.635   3.205  0.00  0.00    +0.037 A 
ATOM     11  C   UNL     1       0.942  -3.465   4.233  0.00  0.00    +0.023 A 
ATOM     12  C   UNL     1       1.294  -4.772   3.962  0.00  0.00    +0.002 A 
ATOM     13  C   UNL     1       1.220  -5.256   2.669  0.00  0.00    +0.000 A 
ATOM     14  C   UNL     1       0.794  -4.433   1.643  0.00  0.00    +0.002 A 
ATOM     15  C   UNL     1       0.434  -3.126   1.908  0.00  0.00    +0.023 A 
ENDBRANCH   3  10
BRANCH   3  16
ATOM     16  C   UNL     1       0.080  -0.841   4.862  0.00  0.00    +0.121 C 
BRANCH  16  17
ATOM     17  C   UNL     1      -1.369  -0.914   5.347  0.00  0.00    +0.094 C 
BRANCH  17  18
ATOM     18  C   UNL     1      -1.446  -0.431   6.773  0.00  0.00    +0.133 C 
ATOM     19  N   UNL     1      -0.376  -0.040   7.381  0.00  0.00    -0.077 NA
ATOM     20  N   UNL     1      -2.658  -0.406   7.427  0.00  0.00    -0.344 N 
ATOM     21  H   UNL     1      -3.462  -0.700   6.970  0.00  0.00    +0.144 HD
ATOM     22  H   UNL     1      -2.707  -0.096   8.344  0.00  0.00    +0.144 HD
BRANCH  19  23
ATOM     23  O   UNL     1      -0.448   0.414   8.720  0.00  0.00    -0.408 OA
ATOM     24  H   UNL     1       0.403   0.685   9.090  0.00  0.00    +0.328 HD
ENDBRANCH  19  23
ENDBRANCH  17  18
ENDBRANCH  16  17
ENDBRANCH   3  16
TORSDOF 6
