REMARK  Name = ZINC42934205
REMARK  6 active torsions:
REMARK  status: ('A' for Active; 'I' for Inactive)
REMARK    1  A    between atoms: C_1  and  C_2
REMARK    2  A    between atoms: C_2  and  C_3
REMARK    3  A    between atoms: C_2  and  C_4
REMARK    4  A    between atoms: C_4  and  C_6
REMARK    5  A    between atoms: C_4  and  S_19
REMARK    6  A    between atoms: S_19  and  C_20
REMARK                            x       y       z     vdW  Elec       q    Type
REMARK                         _______ _______ _______ _____ _____    ______ ____
ROOT
ATOM      1  C   UNL     1      -1.892  -0.037  -1.083  0.00  0.00    +0.234 C 
ATOM      2  O   UNL     1      -1.927  -0.566  -2.173  0.00  0.00    -0.274 OA
ATOM      3  N   UNL     1      -2.494   1.154  -0.892  0.00  0.00    -0.260 N 
ATOM      4  C   UNL     1      -2.396   1.856   0.396  0.00  0.00    +0.209 C 
ATOM      5  C   UNL     1      -3.744   2.434   0.745  0.00  0.00    +0.235 C 
ATOM      6  O   UNL     1      -4.052   2.576   1.909  0.00  0.00    -0.274 OA
ATOM      7  N   UNL     1      -4.610   2.795  -0.221  0.00  0.00    -0.283 N 
ATOM      8  C   UNL     1      -4.300   2.596  -1.571  0.00  0.00    +0.055 A 
ATOM      9  C   UNL     1      -3.229   1.767  -1.919  0.00  0.00    +0.058 A 
ATOM     10  C   UNL     1      -2.910   1.558  -3.248  0.00  0.00    +0.025 A 
ATOM     11  C   UNL     1      -3.651   2.180  -4.238  0.00  0.00    +0.002 A 
ATOM     12  C   UNL     1      -4.706   3.007  -3.900  0.00  0.00    +0.002 A 
ATOM     13  C   UNL     1      -5.039   3.214  -2.566  0.00  0.00    +0.025 A 
ATOM     14  H   UNL     1      -5.459   3.197   0.022  0.00  0.00    +0.155 HD
ENDROOT
BRANCH   1  15
ATOM     15  C   UNL     1      -1.176  -0.710   0.059  0.00  0.00    +0.142 C 
BRANCH  15  17
ATOM     16  C   UNL     1       0.931  -0.553  -1.275  0.00  0.00    +0.009 C 
ATOM     17  C   UNL     1       0.286  -0.259   0.081  0.00  0.00    +0.005 C 
ATOM     18  C   UNL     1       0.352   1.243   0.363  0.00  0.00    +0.009 C 
ENDBRANCH  15  17
BRANCH  15  19
ATOM     19  S   UNL     1      -1.250  -2.510  -0.157  0.00  0.00    -0.084 S 
BRANCH  19  20
ATOM     20  C   UNL     1      -0.589  -3.148   1.346  0.00  0.00    +0.161 A 
ATOM     21  N   UNL     1      -0.222  -2.504   2.438  0.00  0.00    -0.133 NA
ATOM     22  N   UNL     1       0.275  -3.206   3.511  0.00  0.00    -0.125 NA
ATOM     23  C   UNL     1       0.382  -4.519   3.445  0.00  0.00    +0.180 A 
ATOM     24  S   UNL     1      -0.244  -4.840   1.803  0.00  0.00    -0.025 S 
ATOM     25  N   UNL     1       0.852  -5.414   4.399  0.00  0.00    -0.336 N 
ATOM     26  H   UNL     1       1.159  -5.088   5.260  0.00  0.00    +0.144 HD
ATOM     27  H   UNL     1       0.872  -6.364   4.205  0.00  0.00    +0.144 HD
ENDBRANCH  19  20
ENDBRANCH  15  19
ENDBRANCH   1  15
TORSDOF 4
