REMARK  Name = ZINC38678222
REMARK  9 active torsions:
REMARK  status: ('A' for Active; 'I' for Inactive)
REMARK    1  A    between atoms: C_1  and  C_2
REMARK    2  A    between atoms: C_2  and  O_3
REMARK    3  A    between atoms: O_3  and  C_4
REMARK    4  A    between atoms: C_8  and  C_10
REMARK    5  A    between atoms: C_10  and  O_12
REMARK    6  A    between atoms: O_12  and  C_13
REMARK    7  A    between atoms: C_20  and  N_33
REMARK    8  A    between atoms: C_21  and  C_31
REMARK    9  A    between atoms: C_22  and  C_24
REMARK                            x       y       z     vdW  Elec       q    Type
REMARK                         _______ _______ _______ _____ _____    ______ ____
ROOT
ATOM      1  C   UNL     1       3.020  -6.210   4.908  0.00  0.00    +0.135 A 
ATOM      2  C   UNL     1       3.546  -5.415   5.917  0.00  0.00    +0.047 A 
ATOM      3  C   UNL     1       4.214  -5.995   6.976  0.00  0.00    +0.012 A 
ATOM      4  C   UNL     1       4.364  -7.370   7.037  0.00  0.00    +0.008 A 
ATOM      5  C   UNL     1       3.841  -8.169   6.033  0.00  0.00    +0.138 A 
ATOM      6  C   UNL     1       3.163  -7.587   4.970  0.00  0.00    +0.093 A 
ATOM      7  O   UNL     1       3.976  -9.518   6.075  0.00  0.00    -0.441 OA
ATOM      8  C   UNL     1       4.921 -10.072   6.852  0.00  0.00    +0.199 C 
ATOM      9  C   UNL     1       5.493  -9.397   7.878  0.00  0.00    +0.098 C 
ATOM     10  C   UNL     1       5.096  -7.984   8.201  0.00  0.00    +0.098 C 
ENDROOT
BRANCH  10  11
ATOM     11  C   UNL     1       4.199  -7.983   9.412  0.00  0.00    -0.032 A 
ATOM     12  C   UNL     1       2.995  -8.663   9.381  0.00  0.00    +0.005 A 
ATOM     13  C   UNL     1       2.172  -8.662  10.491  0.00  0.00    +0.003 A 
ATOM     14  C   UNL     1       2.550  -7.981  11.633  0.00  0.00    +0.038 A 
ATOM     15  C   UNL     1       3.755  -7.300  11.665  0.00  0.00    +0.124 A 
ATOM     16  C   UNL     1       4.582  -7.306  10.554  0.00  0.00    +0.043 A 
ATOM     17  F   UNL     1       4.126  -6.634  12.780  0.00  0.00    -0.205 F 
ENDBRANCH  10  11
BRANCH   8  18
ATOM     18  N   UNL     1       5.319 -11.361   6.600  0.00  0.00    -0.328 N 
ATOM     19  H   UNL     1       4.919 -11.858   5.869  0.00  0.00    +0.145 HD
ATOM     20  H   UNL     1       6.000 -11.775   7.152  0.00  0.00    +0.145 HD
ENDBRANCH   8  18
BRANCH   9  21
ATOM     21  C   UNL     1       6.496 -10.042   8.670  0.00  0.00    +0.101 C 
ATOM     22  N   UNL     1       7.292 -10.555   9.298  0.00  0.00    -0.191 NA
ENDBRANCH   9  21
BRANCH   1  23
ATOM     23  O   UNL     1       2.362  -5.640   3.865  0.00  0.00    -0.422 OA
BRANCH  23  24
ATOM     24  C   UNL     1       3.096  -5.053   2.899  0.00  0.00    +0.345 C 
ATOM     25  O   UNL     1       4.301  -4.966   3.020  0.00  0.00    -0.245 OA
BRANCH  24  30
ATOM     26  C   UNL     1       2.564  -3.407  -0.438  0.00  0.00    +0.121 A 
ATOM     27  C   UNL     1       1.185  -3.510  -0.570  0.00  0.00    +0.046 A 
ATOM     28  C   UNL     1       0.434  -4.112   0.422  0.00  0.00    +0.004 A 
ATOM     29  C   UNL     1       1.048  -4.615   1.550  0.00  0.00    +0.015 A 
ATOM     30  C   UNL     1       2.434  -4.516   1.692  0.00  0.00    +0.063 A 
ATOM     31  C   UNL     1       3.192  -3.913   0.687  0.00  0.00    +0.060 A 
BRANCH  26  32
ATOM     32  O   UNL     1       3.298  -2.814  -1.417  0.00  0.00    -0.492 OA
BRANCH  32  34
ATOM     33  C   UNL     1       3.571  -1.687  -3.537  0.00  0.00    +0.048 C 
ATOM     34  C   UNL     1       2.584  -2.314  -2.550  0.00  0.00    +0.225 C 
ENDBRANCH  32  34
ENDBRANCH  26  32
ENDBRANCH  24  30
ENDBRANCH  23  24
ENDBRANCH   1  23
TORSDOF 8
