REMARK  Name = ZINC45918578
REMARK  4 active torsions:
REMARK  status: ('A' for Active; 'I' for Inactive)
REMARK    1  A    between atoms: C_1  and  C_2
REMARK    2  A    between atoms: C_5  and  C_8
REMARK    3  A    between atoms: C_10  and  C_13
REMARK    4  A    between atoms: C_16  and  C_20
REMARK                            x       y       z     vdW  Elec       q    Type
REMARK                         _______ _______ _______ _____ _____    ______ ____
ROOT
ATOM      1  C   UNL     1       0.061  -4.256  -0.021  0.00  0.00    +0.202 A 
ATOM      2  N   UNL     1       0.071  -5.043   1.066  0.00  0.00    -0.187 NA
ATOM      3  C   UNL     1       0.089  -6.307   0.704  0.00  0.00    +0.265 A 
ATOM      4  O   UNL     1       0.089  -6.359  -0.640  0.00  0.00    -0.332 OA
ATOM      5  N   UNL     1       0.065  -5.013  -1.092  0.00  0.00    -0.056 NA
ENDROOT
BRANCH   3   6
ATOM      6  C   UNL     1       0.104  -7.465   1.613  0.00  0.00    +0.122 A 
ATOM      7  C   UNL     1       0.096  -7.292   2.992  0.00  0.00    +0.131 A 
ATOM      8  N   UNL     1       0.111  -8.358   3.788  0.00  0.00    -0.242 NA
ATOM      9  C   UNL     1       0.132  -9.574   3.308  0.00  0.00    +0.107 A 
ATOM     10  N   UNL     1       0.141  -9.819   1.984  0.00  0.00    -0.310 N 
ATOM     11  C   UNL     1       0.122  -8.794   1.104  0.00  0.00    +0.264 A 
ATOM     12  O   UNL     1       0.126  -9.003  -0.096  0.00  0.00    -0.267 OA
ATOM     13  C   UNL     1       0.148 -10.738   4.265  0.00  0.00    +0.086 C 
ATOM     14  H   UNL     1       0.158 -10.733   1.661  0.00  0.00    +0.170 HD
ENDBRANCH   3   6
BRANCH   1  19
ATOM     15  C   UNL     1      -0.018   1.503   0.010  0.00  0.00    +0.044 C 
ATOM     16  C   UNL     1       0.002  -0.004   0.002  0.00  0.00    -0.050 A 
ATOM     17  C   UNL     1       0.006  -0.687  -1.201  0.00  0.00    +0.004 A 
ATOM     18  C   UNL     1       0.025  -2.067  -1.214  0.00  0.00    +0.012 A 
ATOM     19  C   UNL     1       0.041  -2.772  -0.013  0.00  0.00    +0.022 A 
ATOM     20  C   UNL     1       0.037  -2.080   1.196  0.00  0.00    +0.012 A 
ATOM     21  C   UNL     1       0.023  -0.700   1.198  0.00  0.00    +0.004 A 
ENDBRANCH   1  19
TORSDOF 2
