REMARK  Name = ZINC35476183
REMARK  10 active torsions:
REMARK  status: ('A' for Active; 'I' for Inactive)
REMARK    1  A    between atoms: C_1  and  C_2
REMARK    2  A    between atoms: C_2  and  C_3
REMARK    3  A    between atoms: C_2  and  C_4
REMARK    4  A    between atoms: C_2  and  C_5
REMARK    5  A    between atoms: C_8  and  C_11
REMARK    6  A    between atoms: C_17  and  C_21
REMARK    7  A    between atoms: C_21  and  N_22
REMARK    8  A    between atoms: N_22  and  C_23
REMARK    9  A    between atoms: N_22  and  C_24
REMARK   10  A    between atoms: C_24  and  C_25
REMARK                            x       y       z     vdW  Elec       q    Type
REMARK                         _______ _______ _______ _____ _____    ______ ____
ROOT
ATOM      1  C   UNL     1       2.695  -1.861  -4.731  0.00  0.00    +0.184 A 
ATOM      2  N   UNL     1       3.996  -1.590  -5.065  0.00  0.00    -0.140 NA
ATOM      3  N   UNL     1       4.233  -2.236  -6.287  0.00  0.00    -0.159 N 
ATOM      4  C   UNL     1       5.313  -2.324  -7.085  0.00  0.00    +0.276 A 
ATOM      5  O   UNL     1       6.356  -1.767  -6.785  0.00  0.00    -0.266 OA
ATOM      6  C   UNL     1       5.214  -3.071  -8.273  0.00  0.00    +0.097 A 
ATOM      7  C   UNL     1       4.029  -3.680  -8.573  0.00  0.00    +0.064 A 
ATOM      8  N   UNL     1       2.989  -3.566  -7.755  0.00  0.00    -0.214 NA
ATOM      9  C   UNL     1       3.066  -2.865  -6.631  0.00  0.00    +0.257 A 
ATOM     10  N   UNL     1       2.164  -2.620  -5.666  0.00  0.00    -0.189 NA
ENDROOT
BRANCH   1  14
ATOM     11  C   UNL     1       0.707  -0.490  -1.238  0.00  0.00    -0.042 A 
ATOM     12  C   UNL     1       0.032  -1.285  -2.147  0.00  0.00    +0.005 A 
ATOM     13  C   UNL     1       0.672  -1.734  -3.284  0.00  0.00    +0.012 A 
ATOM     14  C   UNL     1       2.004  -1.384  -3.516  0.00  0.00    +0.021 A 
ATOM     15  C   UNL     1       2.679  -0.581  -2.594  0.00  0.00    +0.012 A 
ATOM     16  C   UNL     1       2.026  -0.135  -1.464  0.00  0.00    +0.005 A 
BRANCH  11  18
ATOM     17  C   UNL     1      -0.019   1.526   0.010  0.00  0.00    +0.015 C 
ATOM     18  C   UNL     1       0.002  -0.004   0.002  0.00  0.00    -0.013 C 
ATOM     19  C   UNL     1       0.742  -0.511   1.242  0.00  0.00    +0.015 C 
ATOM     20  C   UNL     1      -1.433  -0.534   0.013  0.00  0.00    +0.015 C 
ENDBRANCH  11  18
ENDBRANCH   1  14
BRANCH   7  21
ATOM     21  C   UNL     1       3.899  -4.485  -9.840  0.00  0.00    +0.140 C 
BRANCH  21  22
ATOM     22  N   UNL     1       3.673  -5.897  -9.502  0.00  0.00    -0.296 NA
ATOM     23  C   UNL     1       2.374  -6.077  -8.839  0.00  0.00    +0.105 C 
BRANCH  22  24
ATOM     24  C   UNL     1       3.777  -6.747 -10.695  0.00  0.00    +0.119 C 
BRANCH  24  25
ATOM     25  C   UNL     1       3.785  -8.196 -10.280  0.00  0.00    -0.033 A 
ATOM     26  C   UNL     1       4.982  -8.829 -10.002  0.00  0.00    +0.005 A 
ATOM     27  C   UNL     1       4.989 -10.157  -9.621  0.00  0.00    +0.000 A 
ATOM     28  C   UNL     1       3.799 -10.854  -9.519  0.00  0.00    +0.000 A 
ATOM     29  C   UNL     1       2.602 -10.221  -9.797  0.00  0.00    +0.000 A 
ATOM     30  C   UNL     1       2.595  -8.890 -10.174  0.00  0.00    +0.005 A 
ENDBRANCH  24  25
ENDBRANCH  22  24
ENDBRANCH  21  22
ENDBRANCH   7  21
TORSDOF 6
