REMARK  Name = ZINC32959062
REMARK  9 active torsions:
REMARK  status: ('A' for Active; 'I' for Inactive)
REMARK    1  A    between atoms: C_1  and  C_2
REMARK    2  A    between atoms: C_7  and  S_8
REMARK    3  A    between atoms: S_8  and  N_11
REMARK    4  A    between atoms: C_14  and  C_17
REMARK    5  A    between atoms: N_19  and  C_20
REMARK    6  A    between atoms: C_20  and  C_21
REMARK    7  A    between atoms: C_21  and  N_22
REMARK    8  A    between atoms: C_25  and  C_28
REMARK    9  A    between atoms: C_30  and  C_35
REMARK                            x       y       z     vdW  Elec       q    Type
REMARK                         _______ _______ _______ _____ _____    ______ ____
ROOT
ATOM      1  N   UNL     1      -3.779   2.789   1.240  0.00  0.00    -0.177 NA
ATOM      2  C   UNL     1      -3.653   2.031  -0.013  0.00  0.00    +0.110 C 
ATOM      3  C   UNL     1      -2.322   1.273   0.001  0.00  0.00    +0.030 C 
ATOM      4  C   UNL     1      -1.180   2.261   0.255  0.00  0.00    +0.077 C 
ATOM      5  C   UNL     1      -1.373   2.925   1.621  0.00  0.00    +0.030 C 
ATOM      6  C   UNL     1      -2.693   3.701   1.625  0.00  0.00    +0.110 C 
ENDROOT
BRANCH   4   7
ATOM      7  C   UNL     1       0.134   1.525   0.236  0.00  0.00    +0.216 C 
ATOM      8  O   UNL     1       0.157   0.328   0.038  0.00  0.00    -0.276 OA
ATOM      9  N   UNL     1       1.286   2.197   0.432  0.00  0.00    -0.317 N 
ATOM     10  H   UNL     1       1.266   3.282   0.611  0.00  0.00    +0.149 HD
BRANCH   9  11
ATOM     11  C   UNL     1       2.565   1.482   0.407  0.00  0.00    +0.085 C 
BRANCH  11  12
ATOM     12  C   UNL     1       3.706   2.470   0.654  0.00  0.00    -0.060 C 
BRANCH  12  13
ATOM     13  N   UNL     1       4.988   1.754   0.629  0.00  0.00    +0.381 N 
ATOM     14  C   UNL     1       5.086   0.810   1.750  0.00  0.00    -0.079 C 
ATOM     15  C   UNL     1       6.364  -0.019   1.611  0.00  0.00    -0.016 C 
ATOM     16  C   UNL     1       7.576   0.917   1.600  0.00  0.00    -0.018 C 
ATOM     17  C   UNL     1       7.426   1.920   0.453  0.00  0.00    -0.016 C 
ATOM     18  C   UNL     1       6.117   2.693   0.626  0.00  0.00    -0.079 C 
ATOM     19  C   UNL     1       8.853   0.099   1.400  0.00  0.00    +0.007 C 
ATOM     20  H   UNL     1       5.034   1.172  -0.303  0.00  0.00    -0.082 HD
ENDBRANCH  12  13
ENDBRANCH  11  12
ENDBRANCH   9  11
ENDBRANCH   4   7
BRANCH   1  21
ATOM     21  S   UNL     1      -5.119   2.619   2.198  0.00  0.00    +0.061 S 
ATOM     22  O   UNL     1      -5.282   3.850   2.889  0.00  0.00    -0.153 OA
ATOM     23  O   UNL     1      -6.138   2.066   1.377  0.00  0.00    -0.153 OA
BRANCH  21  30
ATOM     24  C   UNL     1      -4.693  -0.308   1.592  0.00  0.00    +0.046 C 
ATOM     25  C   UNL     1      -4.561   0.086   3.041  0.00  0.00    -0.022 A 
ATOM     26  C   UNL     1      -4.256  -0.873   3.990  0.00  0.00    +0.032 A 
ATOM     27  C   UNL     1      -4.140  -0.511   5.322  0.00  0.00    +0.076 A 
ATOM     28  C   UNL     1      -4.325   0.818   5.701  0.00  0.00    +0.145 A 
ATOM     29  C   UNL     1      -4.624   1.772   4.744  0.00  0.00    +0.076 A 
ATOM     30  C   UNL     1      -4.738   1.404   3.416  0.00  0.00    +0.112 A 
ATOM     31  O   UNL     1      -4.210   1.162   7.011  0.00  0.00    -0.478 OA
ATOM     32  C   UNL     1      -4.616   0.182   7.971  0.00  0.00    +0.256 C 
ATOM     33  C   UNL     1      -4.037  -1.159   7.601  0.00  0.00    +0.258 C 
ATOM     34  O   UNL     1      -3.752  -1.960   8.467  0.00  0.00    -0.271 OA
ATOM     35  N   UNL     1      -3.836  -1.467   6.301  0.00  0.00    -0.280 N 
ATOM     36  C   UNL     1      -6.143   0.090   7.990  0.00  0.00    +0.062 C 
ATOM     37  H   UNL     1      -3.441  -2.450   6.005  0.00  0.00    +0.155 HD
ENDBRANCH  21  30
ENDBRANCH   1  21
TORSDOF 6
