REMARK  Name = ZINC03664989
REMARK  7 active torsions:
REMARK  status: ('A' for Active; 'I' for Inactive)
REMARK    1  A    between atoms: C_1  and  C_2
REMARK    2  A    between atoms: C_4  and  C_23
REMARK    3  A    between atoms: C_6  and  N_8
REMARK    4  A    between atoms: C_9  and  C_11
REMARK    5  A    between atoms: N_13  and  N_14
REMARK    6  A    between atoms: C_15  and  C_16
REMARK    7  A    between atoms: C_21  and  O_22
REMARK                            x       y       z     vdW  Elec       q    Type
REMARK                         _______ _______ _______ _____ _____    ______ ____
ROOT
ATOM      1  C   UNL     1       0.278  -2.892   4.838  0.00  0.00    +0.318 C 
ATOM      2  O   UNL     1       0.294  -4.106   4.825  0.00  0.00    -0.263 OA
ATOM      3  N   UNL     1       0.376  -2.229   6.007  0.00  0.00    -0.199 N 
ATOM      4  H   UNL     1       0.363  -1.259   6.018  0.00  0.00    +0.178 HD
ENDROOT
BRANCH   1   6
ATOM      5  N   UNL     1       0.051  -2.797   2.391  0.00  0.00    -0.278 N 
ATOM      6  C   UNL     1       0.149  -2.134   3.560  0.00  0.00    +0.305 C 
ATOM      7  O   UNL     1       0.133  -0.920   3.573  0.00  0.00    -0.265 OA
ATOM      8  H   UNL     1      -0.013  -3.765   2.386  0.00  0.00    +0.155 HD
BRANCH   5  14
ATOM      9  C   UNL     1      -1.516  -2.363  -2.248  0.00  0.00    +0.044 C 
ATOM     10  C   UNL     1      -0.709  -1.856  -1.080  0.00  0.00    -0.048 A 
ATOM     11  C   UNL     1       0.023  -0.689  -1.201  0.00  0.00    +0.006 A 
ATOM     12  C   UNL     1       0.765  -0.221  -0.132  0.00  0.00    -0.048 A 
ATOM     13  C   UNL     1       0.776  -0.917   1.061  0.00  0.00    +0.026 A 
ATOM     14  C   UNL     1       0.042  -2.090   1.186  0.00  0.00    +0.034 A 
ATOM     15  C   UNL     1      -0.707  -2.555   0.112  0.00  0.00    +0.026 A 
ATOM     16  C   UNL     1       1.561   1.051  -0.268  0.00  0.00    +0.044 C 
ENDBRANCH   5  14
ENDBRANCH   1   6
BRANCH   3  17
ATOM     17  N   UNL     1       0.497  -2.941   7.208  0.00  0.00    -0.187 NA
ATOM     18  C   UNL     1       0.592  -2.302   8.335  0.00  0.00    +0.142 C 
BRANCH  18  19
ATOM     19  C   UNL     1       0.719  -3.051   9.598  0.00  0.00    +0.036 A 
ATOM     20  C   UNL     1       0.815  -2.368  10.813  0.00  0.00    +0.013 A 
ATOM     21  C   UNL     1       0.934  -3.075  11.991  0.00  0.00    +0.001 A 
ATOM     22  C   UNL     1       0.959  -4.459  11.975  0.00  0.00    +0.004 A 
ATOM     23  C   UNL     1       0.864  -5.146  10.780  0.00  0.00    +0.046 A 
ATOM     24  C   UNL     1       0.738  -4.453   9.587  0.00  0.00    +0.125 A 
BRANCH  24  25
ATOM     25  O   UNL     1       0.639  -5.127   8.413  0.00  0.00    -0.506 OA
ATOM     26  H   UNL     1       1.490  -5.310   7.991  0.00  0.00    +0.292 HD
ENDBRANCH  24  25
ENDBRANCH  18  19
ENDBRANCH   3  17
TORSDOF 5
