REMARK  Name = ZINC41015370
REMARK  10 active torsions:
REMARK  status: ('A' for Active; 'I' for Inactive)
REMARK    1  A    between atoms: C_1  and  C_2
REMARK    2  A    between atoms: C_2  and  N_3
REMARK    3  A    between atoms: C_6  and  N_16
REMARK    4  A    between atoms: C_11  and  C_15
REMARK    5  A    between atoms: C_17  and  C_19
REMARK    6  A    between atoms: C_19  and  C_21
REMARK    7  A    between atoms: C_19  and  O_22
REMARK    8  A    between atoms: O_22  and  C_23
REMARK    9  A    between atoms: C_25  and  C_31
REMARK   10  A    between atoms: C_27  and  C_29
REMARK                            x       y       z     vdW  Elec       q    Type
REMARK                         _______ _______ _______ _____ _____    ______ ____
ROOT
ATOM      1  N   UNL     1       5.026  -0.098  -1.066  0.00  0.00    -0.282 N 
ATOM      2  C   UNL     1       6.370  -0.184  -1.023  0.00  0.00    +0.258 C 
ATOM      3  O   UNL     1       6.904  -0.965  -0.263  0.00  0.00    -0.271 OA
ATOM      4  H   UNL     1       4.598   0.475  -1.722  0.00  0.00    +0.155 HD
ENDROOT
BRANCH   1   8
ATOM      5  N   UNL     1       1.118  -0.496   1.756  0.00  0.00    -0.265 N 
ATOM      6  C   UNL     1       2.307  -1.024   1.233  0.00  0.00    +0.080 A 
ATOM      7  C   UNL     1       3.073  -0.293   0.342  0.00  0.00    +0.050 A 
ATOM      8  C   UNL     1       4.247  -0.834  -0.164  0.00  0.00    +0.035 A 
ATOM      9  C   UNL     1       4.651  -2.105   0.224  0.00  0.00    +0.027 A 
ATOM     10  C   UNL     1       3.886  -2.836   1.114  0.00  0.00    +0.049 A 
ATOM     11  C   UNL     1       2.715  -2.300   1.621  0.00  0.00    +0.143 A 
ATOM     12  O   UNL     1       1.954  -3.006   2.501  0.00  0.00    -0.478 OA
ATOM     13  C   UNL     1       1.250  -2.253   3.491  0.00  0.00    +0.256 C 
ATOM     14  C   UNL     1       0.567  -1.075   2.845  0.00  0.00    +0.260 C 
ATOM     15  O   UNL     1      -0.475  -0.651   3.299  0.00  0.00    -0.271 OA
ATOM     16  C   UNL     1       2.238  -1.747   4.544  0.00  0.00    +0.062 C 
BRANCH   5  18
ATOM     17  C   UNL     1       1.034   1.948   1.768  0.00  0.00    +0.025 C 
ATOM     18  C   UNL     1       0.485   0.669   1.133  0.00  0.00    +0.110 C 
ENDBRANCH   5  18
ENDBRANCH   1   8
BRANCH   2  19
ATOM     19  C   UNL     1       7.211   0.689  -1.920  0.00  0.00    +0.256 C 
ATOM     20  C   UNL     1       6.959   0.310  -3.381  0.00  0.00    +0.062 C 
BRANCH  19  21
ATOM     21  O   UNL     1       8.592   0.499  -1.609  0.00  0.00    -0.480 OA
BRANCH  21  22
ATOM     22  C   UNL     1       9.438   1.520  -1.909  0.00  0.00    +0.122 A 
ATOM     23  C   UNL     1       8.966   2.637  -2.583  0.00  0.00    +0.050 A 
ATOM     24  C   UNL     1       9.827   3.674  -2.887  0.00  0.00    -0.028 A 
ATOM     25  C   UNL     1      11.159   3.599  -2.520  0.00  0.00    +0.047 A 
ATOM     26  C   UNL     1      11.632   2.485  -1.847  0.00  0.00    -0.028 A 
ATOM     27  C   UNL     1      10.772   1.449  -1.536  0.00  0.00    +0.050 A 
ATOM     28  C   UNL     1      13.083   2.405  -1.449  0.00  0.00    +0.045 C 
ATOM     29 CL   UNL     1      12.239   4.903  -2.903  0.00  0.00    -0.083 Cl
ATOM     30  C   UNL     1       9.316   4.887  -3.619  0.00  0.00    +0.045 C 
ENDBRANCH  21  22
ENDBRANCH  19  21
ENDBRANCH   2  19
TORSDOF 5
