REMARK  Name = ZINC44774931
REMARK  8 active torsions:
REMARK  status: ('A' for Active; 'I' for Inactive)
REMARK    1  A    between atoms: C_1  and  C_2
REMARK    2  A    between atoms: C_2  and  N_3
REMARK    3  A    between atoms: N_3  and  C_4
REMARK    4  A    between atoms: C_5  and  C_7
REMARK    5  A    between atoms: C_7  and  C_8
REMARK    6  A    between atoms: C_7  and  C_9
REMARK    7  A    between atoms: C_7  and  C_10
REMARK    8  A    between atoms: C_10  and  N_12
REMARK                            x       y       z     vdW  Elec       q    Type
REMARK                         _______ _______ _______ _____ _____    ______ ____
ROOT
ATOM      1  C   UNL     1      -3.263  -0.946   0.915  0.00  0.00    +0.086 C 
ATOM      2  C   UNL     1      -4.357  -0.156   0.193  0.00  0.00    +0.027 C 
ATOM      3  C   UNL     1      -3.085  -2.306   0.237  0.00  0.00    +0.027 C 
ENDROOT
BRANCH   1   6
ATOM      4  N   UNL     1      -1.915   1.094   1.288  0.00  0.00    -0.304 N 
ATOM      5  C   UNL     1      -3.087   1.697   1.928  0.00  0.00    +0.132 C 
ATOM      6  C   UNL     1      -1.967  -0.180   0.853  0.00  0.00    +0.227 C 
ATOM      7  O   UNL     1      -0.970  -0.711   0.410  0.00  0.00    -0.275 OA
BRANCH   4   9
ATOM      8  C   UNL     1       0.205   1.689   2.351  0.00  0.00    +0.024 C 
ATOM      9  C   UNL     1      -0.687   1.876   1.123  0.00  0.00    +0.104 C 
ENDBRANCH   4   9
ENDBRANCH   1   6
BRANCH   1  10
ATOM     10  C   UNL     1      -3.657  -1.151   2.355  0.00  0.00    +0.061 C 
ATOM     11  S   UNL     1      -2.656  -0.724   3.526  0.00  0.00    -0.040 S 
BRANCH  10  12
ATOM     12  N   UNL     1      -4.854  -1.693   2.655  0.00  0.00    -0.355 N 
ATOM     13  H   UNL     1      -5.461  -1.952   1.945  0.00  0.00    +0.143 HD
ATOM     14  H   UNL     1      -5.108  -1.825   3.582  0.00  0.00    +0.143 HD
ENDBRANCH  10  12
ENDBRANCH   1  10
TORSDOF 4
