REMARK  Name = ZINC39500980
REMARK  9 active torsions:
REMARK  status: ('A' for Active; 'I' for Inactive)
REMARK    1  A    between atoms: C_1  and  C_2
REMARK    2  A    between atoms: C_2  and  C_3
REMARK    3  A    between atoms: C_10  and  C_12
REMARK    4  A    between atoms: C_12  and  C_14
REMARK    5  A    between atoms: C_12  and  O_15
REMARK    6  A    between atoms: O_15  and  C_16
REMARK    7  A    between atoms: C_16  and  C_18
REMARK    8  A    between atoms: C_21  and  C_25
REMARK    9  A    between atoms: C_23  and  O_24
REMARK                            x       y       z     vdW  Elec       q    Type
REMARK                         _______ _______ _______ _____ _____    ______ ____
ROOT
ATOM      1  C   UNL     1       4.096   0.886  -0.103  0.00  0.00    +0.259 C 
ATOM      2  C   UNL     1       4.426   1.718  -1.344  0.00  0.00    +0.062 C 
ENDROOT
BRANCH   1   9
ATOM      3  C   UNL     1       0.735  -0.595  -1.206  0.00  0.00    +0.076 C 
ATOM      4  C   UNL     1       0.527  -2.113  -1.212  0.00  0.00    +0.022 C 
ATOM      5  C   UNL     1       1.378  -2.736  -2.321  0.00  0.00    +0.003 C 
ATOM      6  C   UNL     1       2.858  -2.452  -2.052  0.00  0.00    +0.019 C 
ATOM      7  C   UNL     1       3.092  -0.938  -2.055  0.00  0.00    +0.108 C 
ATOM      8  N   UNL     1       2.172  -0.312  -1.095  0.00  0.00    -0.295 N 
ATOM      9  C   UNL     1       2.638   0.503  -0.128  0.00  0.00    +0.256 C 
ATOM     10  O   UNL     1       1.885   0.928   0.722  0.00  0.00    -0.272 OA
BRANCH   3  12
ATOM     11  C   UNL     1      -1.499  -0.278  -0.134  0.00  0.00    +0.006 C 
ATOM     12  C   UNL     1      -0.003   0.018  -0.015  0.00  0.00    +0.019 C 
ENDBRANCH   3  12
ENDBRANCH   1   9
BRANCH   1  13
ATOM     13  O   UNL     1       4.367   1.654   1.071  0.00  0.00    -0.449 OA
BRANCH  13  14
ATOM     14  C   UNL     1       5.607   1.561   1.590  0.00  0.00    +0.343 C 
ATOM     15  O   UNL     1       6.435   0.848   1.060  0.00  0.00    -0.245 OA
BRANCH  14  16
ATOM     16  C   UNL     1       5.958   2.325   2.801  0.00  0.00    +0.100 A 
ATOM     17  C   UNL     1       5.006   3.142   3.417  0.00  0.00    +0.019 A 
ATOM     18  C   UNL     1       5.341   3.854   4.548  0.00  0.00    +0.004 A 
ATOM     19  C   UNL     1       6.618   3.764   5.079  0.00  0.00    -0.047 A 
ATOM     20  C   UNL     1       7.568   2.960   4.481  0.00  0.00    +0.049 A 
ATOM     21  C   UNL     1       7.247   2.232   3.345  0.00  0.00    +0.131 A 
ATOM     22  C   UNL     1       6.972   4.548   6.316  0.00  0.00    +0.044 C 
BRANCH  21  23
ATOM     23  O   UNL     1       8.178   1.437   2.759  0.00  0.00    -0.506 OA
ATOM     24  H   UNL     1       8.709   1.885   2.086  0.00  0.00    +0.292 HD
ENDBRANCH  21  23
ENDBRANCH  14  16
ENDBRANCH  13  14
ENDBRANCH   1  13
TORSDOF 6
