REMARK  Name = ZINC45156312
REMARK  6 active torsions:
REMARK  status: ('A' for Active; 'I' for Inactive)
REMARK    1  A    between atoms: C_1  and  C_2
REMARK    2  A    between atoms: C_7  and  C_8
REMARK    3  A    between atoms: N_10  and  N_11
REMARK    4  A    between atoms: N_14  and  C_15
REMARK    5  A    between atoms: C_15  and  C_17
REMARK    6  A    between atoms: C_15  and  C_23
REMARK                            x       y       z     vdW  Elec       q    Type
REMARK                         _______ _______ _______ _____ _____    ______ ____
ROOT
ATOM      1  N   UNL     1       0.573   0.035   4.838  0.00  0.00    -0.218 N 
ATOM      2  C   UNL     1       0.796  -0.642   5.982  0.00  0.00    +0.317 C 
ATOM      3  O   UNL     1       0.890  -0.042   7.036  0.00  0.00    -0.251 OA
ATOM      4  N   UNL     1       0.915  -1.985   5.958  0.00  0.00    -0.284 N 
ATOM      5  H   UNL     1       0.488   1.001   4.856  0.00  0.00    +0.174 HD
ATOM      6  H   UNL     1       0.840  -2.463   5.118  0.00  0.00    +0.151 HD
ENDROOT
BRANCH   1   9
ATOM      7  C   UNL     1       0.242   0.021   2.481  0.00  0.00    +0.260 C 
ATOM      8  O   UNL     1       0.135   1.232   2.503  0.00  0.00    -0.269 OA
ATOM      9  N   UNL     1       0.465  -0.656   3.625  0.00  0.00    -0.229 N 
ATOM     10  H   UNL     1       0.550  -1.622   3.607  0.00  0.00    +0.173 HD
BRANCH   7  17
ATOM     11  C   UNL     1      -0.511   1.452   0.082  0.00  0.00    +0.044 C 
ATOM     12  C   UNL     1      -0.235  -0.028   0.036  0.00  0.00    -0.038 A 
ATOM     13  C   UNL     1      -0.334  -0.714  -1.157  0.00  0.00    +0.004 A 
ATOM     14  C   UNL     1      -0.079  -2.073  -1.200  0.00  0.00    +0.000 A 
ATOM     15  C   UNL     1       0.275  -2.754  -0.049  0.00  0.00    +0.001 A 
ATOM     16  C   UNL     1       0.378  -2.080   1.150  0.00  0.00    +0.013 A 
ATOM     17  C   UNL     1       0.128  -0.708   1.200  0.00  0.00    +0.041 A 
ENDBRANCH   7  17
ENDBRANCH   1   9
BRANCH   4  18
ATOM     18  C   UNL     1       1.157  -2.721   7.201  0.00  0.00    +0.171 C 
BRANCH  18  19
ATOM     19  C   UNL     1       0.656  -4.135   7.053  0.00  0.00    -0.020 A 
ATOM     20  C   UNL     1       0.852  -4.817   5.867  0.00  0.00    +0.006 A 
ATOM     21  C   UNL     1       0.393  -6.114   5.732  0.00  0.00    +0.000 A 
ATOM     22  C   UNL     1      -0.263  -6.728   6.782  0.00  0.00    +0.000 A 
ATOM     23  C   UNL     1      -0.459  -6.046   7.969  0.00  0.00    +0.000 A 
ATOM     24  C   UNL     1       0.005  -4.751   8.106  0.00  0.00    +0.006 A 
ENDBRANCH  18  19
BRANCH  18  25
ATOM     25  C   UNL     1       2.635  -2.740   7.494  0.00  0.00    +0.129 A 
ATOM     26  C   UNL     1       3.198  -2.602   8.708  0.00  0.00    +0.047 A 
ATOM     27  C   UNL     1       4.597  -2.681   8.521  0.00  0.00    +0.041 A 
ATOM     28  C   UNL     1       4.806  -2.862   7.205  0.00  0.00    +0.195 A 
ATOM     29  O   UNL     1       3.613  -2.903   6.588  0.00  0.00    -0.466 OA
ENDBRANCH  18  25
ENDBRANCH   4  18
TORSDOF 5
