REMARK  Name = ZINC66278217
REMARK  6 active torsions:
REMARK  status: ('A' for Active; 'I' for Inactive)
REMARK    1  A    between atoms: C_1  and  C_2
REMARK    2  A    between atoms: C_2  and  C_3
REMARK    3  A    between atoms: C_8  and  O_9
REMARK    4  A    between atoms: O_9  and  C_10
REMARK    5  A    between atoms: C_10  and  C_11
REMARK    6  A    between atoms: N_13  and  N_14
REMARK                            x       y       z     vdW  Elec       q    Type
REMARK                         _______ _______ _______ _____ _____    ______ ____
ROOT
ATOM      1  C   UNL     1       4.854  -0.013   1.080  0.00  0.00    +0.267 C 
ATOM      2  O   UNL     1       4.153   0.360   1.996  0.00  0.00    -0.271 OA
ATOM      3  N   UNL     1       6.192  -0.066   1.233  0.00  0.00    -0.222 N 
ATOM      4  H   UNL     1       6.753  -0.365   0.501  0.00  0.00    +0.174 HD
ENDROOT
BRANCH   3   5
ATOM      5  N   UNL     1       6.773   0.311   2.451  0.00  0.00    -0.147 N 
ATOM      6  C   UNL     1       6.902   1.582   2.871  0.00  0.00    +0.271 C 
ATOM      7  O   UNL     1       6.541   2.570   2.264  0.00  0.00    -0.268 OA
ATOM      8  C   UNL     1       7.559   1.576   4.196  0.00  0.00    +0.051 A 
ATOM      9  C   UNL     1       7.942   2.562   5.091  0.00  0.00    +0.014 A 
ATOM     10  C   UNL     1       8.554   2.208   6.283  0.00  0.00    +0.001 A 
ATOM     11  C   UNL     1       8.786   0.879   6.584  0.00  0.00    +0.001 A 
ATOM     12  C   UNL     1       8.408  -0.118   5.698  0.00  0.00    +0.014 A 
ATOM     13  C   UNL     1       7.794   0.221   4.503  0.00  0.00    +0.051 A 
ATOM     14  C   UNL     1       7.269  -0.551   3.357  0.00  0.00    +0.271 C 
ATOM     15  O   UNL     1       7.284  -1.761   3.250  0.00  0.00    -0.268 OA
ENDBRANCH   3   5
BRANCH   1  16
ATOM     16  C   UNL     1       4.229  -0.419  -0.230  0.00  0.00    +0.326 C 
BRANCH  16  17
ATOM     17  O   UNL     1       2.810  -0.277  -0.145  0.00  0.00    -0.482 OA
BRANCH  17  23
ATOM     18  C   UNL     1       0.707  -0.490  -1.238  0.00  0.00    -0.006 A 
ATOM     19  C   UNL     1      -0.022  -0.817  -2.365  0.00  0.00    +0.007 A 
ATOM     20  C   UNL     1       0.625  -1.264  -3.502  0.00  0.00    +0.000 A 
ATOM     21  C   UNL     1       2.002  -1.383  -3.516  0.00  0.00    +0.004 A 
ATOM     22  C   UNL     1       2.736  -1.057  -2.392  0.00  0.00    +0.046 A 
ATOM     23  C   UNL     1       2.090  -0.604  -1.250  0.00  0.00    +0.124 A 
BRANCH  18  25
ATOM     24  C   UNL     1      -0.019   1.526   0.010  0.00  0.00    +0.009 C 
ATOM     25  C   UNL     1       0.002  -0.004   0.002  0.00  0.00    +0.035 C 
ENDBRANCH  18  25
ENDBRANCH  17  23
ENDBRANCH  16  17
ENDBRANCH   1  16
TORSDOF 5
