REMARK  Name = ZINC22936916
REMARK  10 active torsions:
REMARK  status: ('A' for Active; 'I' for Inactive)
REMARK    1  A    between atoms: C_2  and  C_3
REMARK    2  A    between atoms: C_3  and  N_4
REMARK    3  A    between atoms: C_5  and  C_7
REMARK    4  A    between atoms: C_7  and  C_8
REMARK    5  A    between atoms: C_8  and  C_9
REMARK    6  A    between atoms: C_19  and  N_22
REMARK    7  A    between atoms: N_22  and  C_23
REMARK    8  A    between atoms: C_23  and  C_24
REMARK    9  A    between atoms: C_27  and  C_29
REMARK   10  A    between atoms: C_29  and  O_30
REMARK                            x       y       z     vdW  Elec       q    Type
REMARK                         _______ _______ _______ _____ _____    ______ ____
ROOT
ATOM      1  C   UNL     1       4.367   5.994  -0.050  0.00  0.00    -0.050 C 
ATOM      2  C   UNL     1       4.249   7.514   0.131  0.00  0.00    +0.089 C 
ATOM      3  N   UNL     1       5.432   8.217  -0.351  0.00  0.00    -0.318 N 
ATOM      4  C   UNL     1       6.426   7.640  -1.056  0.00  0.00    +0.200 C 
ATOM      5  O   UNL     1       7.327   8.311  -1.513  0.00  0.00    -0.278 OA
ATOM      6  C   UNL     1       6.400   6.162  -1.264  0.00  0.00    +0.021 C 
ATOM      7  N   UNL     1       4.971   5.754  -1.349  0.00  0.00    +0.391 N 
ATOM      8  C   UNL     1       4.996   4.383  -1.848  0.00  0.00    -0.059 C 
ATOM      9  C   UNL     1       6.248   4.293  -2.759  0.00  0.00    +0.036 C 
ATOM     10  C   UNL     1       6.968   5.675  -2.605  0.00  0.00    +0.010 C 
ATOM     11  H   UNL     1       5.509   9.163  -0.151  0.00  0.00    +0.149 HD
ATOM     12  H   UNL     1       4.511   6.330  -2.037  0.00  0.00    -0.080 HD
ENDROOT
BRANCH   9  13
ATOM     13  N   UNL     1       5.848   4.067  -4.155  0.00  0.00    -0.308 NA
ATOM     14  H   UNL     1       4.992   3.535  -4.204  0.00  0.00    +0.123 HD
BRANCH  13  15
ATOM     15  C   UNL     1       6.922   3.408  -4.909  0.00  0.00    +0.156 C 
BRANCH  15  16
ATOM     16  C   UNL     1       6.477   3.193  -6.333  0.00  0.00    +0.119 A 
ATOM     17  C   UNL     1       6.655   4.054  -7.351  0.00  0.00    +0.046 A 
ATOM     18  C   UNL     1       6.088   3.454  -8.499  0.00  0.00    +0.047 A 
ATOM     19  C   UNL     1       5.596   2.263  -8.113  0.00  0.00    +0.131 A 
ATOM     20  O   UNL     1       5.840   2.108  -6.801  0.00  0.00    -0.461 OA
BRANCH  19  21
ATOM     21  C   UNL     1       4.896   1.269  -9.003  0.00  0.00    +0.230 C 
BRANCH  21  22
ATOM     22  O   UNL     1       5.858   0.375  -9.568  0.00  0.00    -0.387 OA
ATOM     23  H   UNL     1       5.477  -0.294 -10.153  0.00  0.00    +0.210 HD
ENDBRANCH  21  22
ENDBRANCH  19  21
ENDBRANCH  15  16
ENDBRANCH  13  15
ENDBRANCH   9  13
BRANCH   1  24
ATOM     24  C   UNL     1       2.978   5.355   0.002  0.00  0.00    -0.005 C 
BRANCH  24  25
ATOM     25  C   UNL     1       2.404   5.497   1.413  0.00  0.00    +0.094 C 
BRANCH  25  27
ATOM     26  N   UNL     1       0.397   4.754   2.654  0.00  0.00    -0.304 N 
ATOM     27  C   UNL     1       1.089   4.765   1.498  0.00  0.00    +0.214 C 
ATOM     28  O   UNL     1       0.655   4.186   0.525  0.00  0.00    -0.276 OA
ATOM     29  H   UNL     1       0.745   5.217   3.432  0.00  0.00    +0.150 HD
BRANCH  26  30
ATOM     30  C   UNL     1      -0.880   4.042   2.736  0.00  0.00    +0.193 C 
BRANCH  30  32
ATOM     31  C   UNL     1      -1.873   4.288   5.176  0.00  0.00    +0.005 C 
ATOM     32  C   UNL     1      -1.433   4.179   4.093  0.00  0.00    -0.087 C 
ENDBRANCH  30  32
ENDBRANCH  26  30
ENDBRANCH  25  27
ENDBRANCH  24  25
ENDBRANCH   1  24
TORSDOF 10
