REMARK  Name = ZINC64940226
REMARK  9 active torsions:
REMARK  status: ('A' for Active; 'I' for Inactive)
REMARK    1  A    between atoms: C_1  and  C_2
REMARK    2  A    between atoms: C_4  and  O_21
REMARK    3  A    between atoms: C_5  and  C_20
REMARK    4  A    between atoms: C_7  and  S_8
REMARK    5  A    between atoms: S_8  and  N_11
REMARK    6  A    between atoms: N_11  and  N_12
REMARK    7  A    between atoms: N_15  and  C_16
REMARK    8  A    between atoms: C_16  and  C_17
REMARK    9  A    between atoms: O_21  and  C_22
REMARK                            x       y       z     vdW  Elec       q    Type
REMARK                         _______ _______ _______ _____ _____    ______ ____
ROOT
ATOM      1  S   UNL     1      -0.054  -0.061   2.732  0.00  0.00    +0.074 S 
ATOM      2  O   UNL     1      -1.266   0.680   2.777  0.00  0.00    -0.152 OA
ATOM      3  O   UNL     1       0.218  -1.132   3.625  0.00  0.00    -0.152 OA
ENDROOT
BRANCH   1  10
ATOM      4  C   UNL     1       2.265  -1.735   1.753  0.00  0.00    +0.046 C 
ATOM      5  C   UNL     1       1.173  -1.476   0.747  0.00  0.00    -0.021 A 
ATOM      6  C   UNL     1       1.272  -1.998  -0.528  0.00  0.00    +0.051 A 
ATOM      7  C   UNL     1       0.267  -1.759  -1.454  0.00  0.00    +0.123 A 
ATOM      8  C   UNL     1      -0.836  -0.996  -1.096  0.00  0.00    -0.007 A 
ATOM      9  C   UNL     1      -0.929  -0.476   0.180  0.00  0.00    +0.035 A 
ATOM     10  C   UNL     1       0.072  -0.720   1.102  0.00  0.00    +0.110 A 
ATOM     11  C   UNL     1      -1.929  -0.734  -2.099  0.00  0.00    +0.047 C 
BRANCH   7  12
ATOM     12  O   UNL     1       0.361  -2.272  -2.709  0.00  0.00    -0.495 OA
ATOM     13  C   UNL     1       1.524  -3.048  -3.007  0.00  0.00    +0.277 C 
ENDBRANCH   7  12
ENDBRANCH   1  10
BRANCH   1  14
ATOM     14  N   UNL     1       1.176   1.032   2.914  0.00  0.00    -0.107 NA
ATOM     15  H   UNL     1       1.835   0.908   3.615  0.00  0.00    +0.172 HD
BRANCH  14  16
ATOM     16  N   UNL     1       1.266   2.136   2.056  0.00  0.00    -0.216 N 
ATOM     17  C   UNL     1       1.314   3.383   2.565  0.00  0.00    +0.315 C 
ATOM     18  O   UNL     1       1.392   4.341   1.821  0.00  0.00    -0.251 OA
ATOM     19  N   UNL     1       1.277   3.568   3.900  0.00  0.00    -0.298 N 
ATOM     20  H   UNL     1       1.293   2.003   1.096  0.00  0.00    +0.172 HD
ATOM     21  H   UNL     1       1.215   2.804   4.494  0.00  0.00    +0.150 HD
BRANCH  19  22
ATOM     22  C   UNL     1       1.329   4.924   4.453  0.00  0.00    +0.109 C 
BRANCH  22  23
ATOM     23  C   UNL     1       1.271   4.854   5.981  0.00  0.00    +0.006 C 
ATOM     24  C   UNL     1       0.062   5.487   6.671  0.00  0.00    +0.005 C 
ATOM     25  C   UNL     1       1.432   6.164   6.755  0.00  0.00    +0.005 C 
ENDBRANCH  22  23
ENDBRANCH  19  22
ENDBRANCH  14  16
ENDBRANCH   1  14
TORSDOF 6
