REMARK  Name = ZINC06883122
REMARK  10 active torsions:
REMARK  status: ('A' for Active; 'I' for Inactive)
REMARK    1  A    between atoms: C_1  and  C_2
REMARK    2  A    between atoms: C_2  and  C_3
REMARK    3  A    between atoms: C_2  and  C_4
REMARK    4  A    between atoms: C_2  and  N_43
REMARK    5  A    between atoms: C_4  and  O_5
REMARK    6  A    between atoms: C_6  and  C_7
REMARK    7  A    between atoms: C_6  and  N_43
REMARK    8  A    between atoms: C_12  and  O_13
REMARK    9  A    between atoms: O_13  and  C_14
REMARK   10  A    between atoms: C_14  and  C_15
REMARK                            x       y       z     vdW  Elec       q    Type
REMARK                         _______ _______ _______ _____ _____    ______ ____
ROOT
ATOM      1  C   UNL     1      -3.377   3.243   2.842  0.00  0.00    -0.022 A 
ATOM      2  C   UNL     1      -4.569   3.915   3.031  0.00  0.00    +0.020 A 
ATOM      3  C   UNL     1      -5.309   4.331   1.939  0.00  0.00    +0.018 A 
ATOM      4  C   UNL     1      -4.854   4.081   0.656  0.00  0.00    +0.019 A 
ATOM      5  C   UNL     1      -3.660   3.414   0.464  0.00  0.00    +0.047 A 
ATOM      6  C   UNL     1      -2.917   2.995   1.558  0.00  0.00    +0.122 A 
ATOM      7 BR   UNL     1      -6.944   5.245   2.199  0.00  0.00    -0.050 Br
ENDROOT
BRANCH   1   8
ATOM      8  C   UNL     1      -2.575   2.783   4.032  0.00  0.00    -0.042 C 
BRANCH   8   9
ATOM      9  N   UNL     1      -1.479   3.740   4.276  0.00  0.00    +0.387 N 
ATOM     10  H   UNL     1      -0.877   3.784   3.445  0.00  0.00    -0.085 HD
ATOM     11  H   UNL     1      -1.876   4.669   4.460  0.00  0.00    -0.085 HD
BRANCH   9  13
ATOM     12  C   UNL     1      -1.563   3.252   6.681  0.00  0.00    -0.008 C 
ATOM     13  C   UNL     1      -0.675   3.314   5.437  0.00  0.00    -0.050 C 
ATOM     14  C   UNL     1      -0.075   1.933   5.169  0.00  0.00    -0.008 C 
BRANCH  13  15
ATOM     15  C   UNL     1       0.451   4.324   5.665  0.00  0.00    +0.143 C 
BRANCH  15  16
ATOM     16  O   UNL     1       1.234   3.919   6.789  0.00  0.00    -0.396 OA
ATOM     17  H   UNL     1       1.969   4.514   6.992  0.00  0.00    +0.209 HD
ENDBRANCH  15  16
ENDBRANCH  13  15
ENDBRANCH   9  13
ENDBRANCH   8   9
ENDBRANCH   1   8
BRANCH   6  18
ATOM     18  O   UNL     1      -1.741   2.339   1.370  0.00  0.00    -0.487 OA
BRANCH  18  19
ATOM     19  C   UNL     1      -1.332   2.114   0.020  0.00  0.00    +0.264 C 
BRANCH  19  20
ATOM     20  C   UNL     1      -0.017   1.378   0.010  0.00  0.00    -0.010 A 
ATOM     21  C   UNL     1       1.171   2.086   0.002  0.00  0.00    +0.008 A 
ATOM     22  C   UNL     1       2.377   1.412  -0.013  0.00  0.00    +0.020 A 
ATOM     23  C   UNL     1       2.397   0.029  -0.021  0.00  0.00    +0.041 A 
ATOM     24  C   UNL     1       1.208  -0.679  -0.013  0.00  0.00    +0.020 A 
ATOM     25  C   UNL     1       0.002  -0.004   0.002  0.00  0.00    +0.008 A 
ATOM     26 CL   UNL     1       3.912  -0.818  -0.039  0.00  0.00    -0.084 Cl
ENDBRANCH  19  20
ENDBRANCH  18  19
ENDBRANCH   6  18
TORSDOF 8
