REMARK  Name = ZINC67643346
REMARK  9 active torsions:
REMARK  status: ('A' for Active; 'I' for Inactive)
REMARK    1  A    between atoms: C_1  and  C_2
REMARK    2  A    between atoms: C_4  and  C_7
REMARK    3  A    between atoms: C_11  and  S_13
REMARK    4  A    between atoms: S_13  and  N_16
REMARK    5  A    between atoms: C_18  and  N_29
REMARK    6  A    between atoms: C_21  and  C_23
REMARK    7  A    between atoms: N_25  and  C_26
REMARK    8  A    between atoms: C_26  and  C_27
REMARK    9  A    between atoms: C_26  and  C_28
REMARK                            x       y       z     vdW  Elec       q    Type
REMARK                         _______ _______ _______ _____ _____    ______ ____
ROOT
ATOM      1  N   UNL     1      -0.194  -8.225  -1.093  0.00  0.00    -0.166 NA
ATOM      2  C   UNL     1      -1.457  -8.875  -1.469  0.00  0.00    +0.094 C 
ATOM      3  C   UNL     1      -1.704  -8.569  -2.961  0.00  0.00    -0.057 C 
ATOM      4  C   UNL     1      -0.855  -7.292  -3.198  0.00  0.00    +0.015 C 
ATOM      5  C   UNL     1       0.362  -7.550  -2.279  0.00  0.00    +0.164 C 
ENDROOT
BRANCH   5   6
ATOM      6  C   UNL     1       1.009  -6.246  -1.886  0.00  0.00    +0.232 C 
ATOM      7  O   UNL     1       0.506  -5.555  -1.026  0.00  0.00    -0.274 OA
ATOM      8  N   UNL     1       2.146  -5.849  -2.490  0.00  0.00    -0.312 N 
ATOM      9  H   UNL     1       2.549  -6.402  -3.178  0.00  0.00    +0.149 HD
BRANCH   8  10
ATOM     10  C   UNL     1       2.775  -4.582  -2.108  0.00  0.00    +0.067 C 
ATOM     11  C   UNL     1       3.674  -4.806  -0.890  0.00  0.00    +0.027 C 
ATOM     12  C   UNL     1       3.617  -4.059  -3.273  0.00  0.00    +0.027 C 
ENDBRANCH   8  10
ENDBRANCH   5   6
BRANCH   3  13
ATOM     13  N   UNL     1      -3.127  -8.305  -3.210  0.00  0.00    +0.381 N 
ATOM     14  H   UNL     1      -3.429  -7.526  -2.643  0.00  0.00    -0.090 HD
ATOM     15  H   UNL     1      -3.263  -8.083  -4.185  0.00  0.00    -0.090 HD
ATOM     16  H   UNL     1      -3.667  -9.123  -2.972  0.00  0.00    -0.090 HD
ENDBRANCH   3  13
BRANCH   1  17
ATOM     17  S   UNL     1       0.488  -8.242   0.416  0.00  0.00    +0.061 S 
ATOM     18  O   UNL     1      -0.585  -8.309   1.346  0.00  0.00    -0.153 OA
ATOM     19  O   UNL     1       1.451  -7.197   0.439  0.00  0.00    -0.153 OA
BRANCH  17  24
ATOM     20  C   UNL     1       1.488 -12.047   1.268  0.00  0.00    +0.024 A 
ATOM     21  C   UNL     1       2.798 -12.125   0.800  0.00  0.00    +0.012 A 
ATOM     22  C   UNL     1       3.388 -11.019   0.222  0.00  0.00    +0.003 A 
ATOM     23  C   UNL     1       2.682  -9.836   0.106  0.00  0.00    +0.028 A 
ATOM     24  C   UNL     1       1.381  -9.753   0.568  0.00  0.00    +0.106 A 
ATOM     25  C   UNL     1       0.778 -10.854   1.143  0.00  0.00    +0.040 A 
BRANCH  20  29
ATOM     26  C   UNL     1       0.870 -16.686   3.006  0.00  0.00    +0.112 C 
ATOM     27  C   UNL     1       0.590 -15.251   2.643  0.00  0.00    +0.225 A 
ATOM     28  N   UNL     1       1.425 -14.434   2.067  0.00  0.00    -0.192 NA
ATOM     29  C   UNL     1       0.847 -13.232   1.890  0.00  0.00    +0.202 A 
ATOM     30  N   UNL     1      -0.374 -13.282   2.361  0.00  0.00    -0.056 NA
ATOM     31  O   UNL     1      -0.562 -14.601   2.853  0.00  0.00    -0.338 OA
ENDBRANCH  20  29
ENDBRANCH  17  24
ENDBRANCH   1  17
TORSDOF 6
