REMARK  Name = ZINC42889107
REMARK  3 active torsions:
REMARK  status: ('A' for Active; 'I' for Inactive)
REMARK    1  A    between atoms: C_1  and  C_2
REMARK    2  A    between atoms: C_12  and  C_14
REMARK    3  A    between atoms: C_14  and  C_15
REMARK                            x       y       z     vdW  Elec       q    Type
REMARK                         _______ _______ _______ _____ _____    ______ ____
ROOT
ATOM      1  C   UNL     1      -0.019   1.526   0.010  0.00  0.00    +0.033 C 
ATOM      2  C   UNL     1       0.002  -0.004   0.002  0.00  0.00    +0.104 C 
ATOM      3  C   UNL     1       0.733  -0.505  -1.242  0.00  0.00    -0.017 A 
ATOM      4  C   UNL     1       0.186  -0.449  -2.523  0.00  0.00    +0.013 A 
ATOM      5  C   UNL     1       0.893  -0.908  -3.581  0.00  0.00    +0.046 A 
ATOM      6  S   UNL     1       2.405  -1.456  -2.803  0.00  0.00    -0.101 S 
ATOM      7  C   UNL     1       1.981  -1.036  -1.133  0.00  0.00    -0.004 A 
ATOM      8  C   UNL     1       2.794  -1.224   0.106  0.00  0.00    +0.061 C 
ATOM      9  C   UNL     1       2.192  -0.360   1.225  0.00  0.00    +0.113 C 
ATOM     10  N   UNL     1       0.728  -0.498   1.180  0.00  0.00    -0.294 N 
ATOM     11  C   UNL     1       0.062  -1.070   2.203  0.00  0.00    +0.218 C 
ATOM     12  O   UNL     1      -1.145  -1.180   2.155  0.00  0.00    -0.276 OA
ENDROOT
BRANCH  11  13
ATOM     13  C   UNL     1       0.817  -1.574   3.406  0.00  0.00    +0.127 C 
BRANCH  13  14
ATOM     14  C   UNL     1      -0.168  -2.173   4.412  0.00  0.00    +0.169 C 
ATOM     15  C   UNL     1       0.562  -2.655   5.650  0.00  0.00    +0.241 C 
ATOM     16  O   UNL     1       1.215  -1.986   6.422  0.00  0.00    -0.273 OA
ATOM     17  N   UNL     1       0.334  -3.982   5.713  0.00  0.00    -0.239 N 
ATOM     18  C   UNL     1      -0.430  -4.400   4.699  0.00  0.00    +0.307 C 
ATOM     19  O   UNL     1      -0.772  -5.556   4.542  0.00  0.00    -0.252 OA
ATOM     20  N   UNL     1      -0.783  -3.396   3.869  0.00  0.00    -0.287 N 
ATOM     21  H   UNL     1       0.682  -4.562   6.409  0.00  0.00    +0.159 HD
ATOM     22  H   UNL     1      -1.332  -3.465   3.073  0.00  0.00    +0.151 HD
ENDBRANCH  13  14
ENDBRANCH  11  13
TORSDOF 2
