REMARK  Name = ZINC61569841
REMARK  6 active torsions:
REMARK  status: ('A' for Active; 'I' for Inactive)
REMARK    1  A    between atoms: C_1  and  C_2
REMARK    2  A    between atoms: C_2  and  C_4
REMARK    3  A    between atoms: C_6  and  N_18
REMARK    4  A    between atoms: C_9  and  N_10
REMARK    5  A    between atoms: C_14  and  C_16
REMARK    6  A    between atoms: C_16  and  O_17
REMARK                            x       y       z     vdW  Elec       q    Type
REMARK                         _______ _______ _______ _____ _____    ______ ____
ROOT
ATOM      1  C   UNL     1      -0.000  -0.730  -1.272  0.00  0.00    +0.040 A 
ATOM      2  C   UNL     1      -0.015  -0.029  -2.484  0.00  0.00    +0.046 A 
ATOM      3  C   UNL     1      -0.017  -0.718  -3.675  0.00  0.00    +0.127 A 
ATOM      4  C   UNL     1      -0.003  -2.104  -3.684  0.00  0.00    +0.034 A 
ATOM      5  C   UNL     1       0.012  -2.812  -2.500  0.00  0.00    +0.026 A 
ATOM      6  C   UNL     1       0.019  -2.137  -1.286  0.00  0.00    +0.041 A 
ENDROOT
BRANCH   6   7
ATOM      7  N   UNL     1       0.040  -2.846  -0.094  0.00  0.00    -0.324 N 
ATOM      8  C   UNL     1      -1.145  -3.307   0.653  0.00  0.00    +0.105 C 
ATOM      9  C   UNL     1      -0.658  -3.459   2.115  0.00  0.00    +0.021 C 
ATOM     10  C   UNL     1       0.783  -3.997   1.909  0.00  0.00    +0.026 C 
ATOM     11  C   UNL     1       1.247  -3.268   0.631  0.00  0.00    +0.099 C 
BRANCH  11  12
ATOM     12  C   UNL     1       2.074  -4.215  -0.241  0.00  0.00    +0.178 C 
BRANCH  12  13
ATOM     13  O   UNL     1       1.336  -5.417  -0.469  0.00  0.00    -0.393 OA
ATOM     14  H   UNL     1       1.800  -6.066  -1.016  0.00  0.00    +0.209 HD
ENDBRANCH  12  13
ENDBRANCH  11  12
ENDBRANCH   6   7
BRANCH   1  16
ATOM     15  C   UNL     1      -0.018   1.503   0.010  0.00  0.00    +0.091 C 
ATOM     16  C   UNL     1       0.002  -0.004   0.002  0.00  0.00    +0.162 C 
ATOM     17  O   UNL     1       0.020  -0.616   1.049  0.00  0.00    -0.292 OA
ENDBRANCH   1  16
BRANCH   3  18
ATOM     18  N   UNL     1      -0.033   0.026  -4.955  0.00  0.00    +0.056 N 
ATOM     19  O   UNL     1      -0.045   1.235  -4.952  0.00  0.00    -0.126 OA
ATOM     20  O   UNL     1      -0.035  -0.575  -6.004  0.00  0.00    -0.126 OA
ENDBRANCH   3  18
TORSDOF 5
