REMARK  Name = ZINC41023907
REMARK  4 active torsions:
REMARK  status: ('A' for Active; 'I' for Inactive)
REMARK    1  A    between atoms: C_6  and  C_10
REMARK    2  A    between atoms: C_10  and  S_11
REMARK    3  A    between atoms: S_11  and  C_12
REMARK    4  A    between atoms: C_16  and  N_18
REMARK                            x       y       z     vdW  Elec       q    Type
REMARK                         _______ _______ _______ _____ _____    ______ ____
ROOT
ATOM      1  C   UNL     1       5.015  -5.289   1.464  0.00  0.00    +0.192 A 
ATOM      2  N   UNL     1       5.298  -5.724   0.245  0.00  0.00    -0.207 NA
ATOM      3  C   UNL     1       6.016  -6.830   0.066  0.00  0.00    +0.122 A 
ATOM      4  C   UNL     1       6.472  -7.530   1.180  0.00  0.00    +0.086 A 
ATOM      5  C   UNL     1       6.155  -7.042   2.444  0.00  0.00    +0.122 A 
ATOM      6  N   UNL     1       5.436  -5.927   2.547  0.00  0.00    -0.207 NA
ATOM      7  N   UNL     1       6.307  -7.280  -1.213  0.00  0.00    -0.343 N 
ATOM      8  H   UNL     1       5.986  -6.787  -1.984  0.00  0.00    +0.144 HD
ATOM      9  H   UNL     1       6.831  -8.086  -1.336  0.00  0.00    +0.144 HD
ENDROOT
BRANCH   5  10
ATOM     10  N   UNL     1       6.587  -7.706   3.582  0.00  0.00    -0.343 N 
ATOM     11  H   UNL     1       7.113  -8.517   3.499  0.00  0.00    +0.144 HD
ATOM     12  H   UNL     1       6.363  -7.361   4.460  0.00  0.00    +0.144 HD
ENDBRANCH   5  10
BRANCH   1  13
ATOM     13  S   UNL     1       4.061  -3.820   1.651  0.00  0.00    -0.080 S 
BRANCH  13  14
ATOM     14  C   UNL     1       3.714  -3.302  -0.053  0.00  0.00    +0.134 C 
BRANCH  14  20
ATOM     15  C   UNL     1      -0.016   1.351   0.009  0.00  0.00    +0.038 A 
ATOM     16  C   UNL     1       1.197   2.055   0.002  0.00  0.00    +0.116 A 
ATOM     17  N   UNL     1       2.338   1.408  -0.013  0.00  0.00    -0.220 NA
ATOM     18  C   UNL     1       2.371   0.068  -0.020  0.00  0.00    +0.235 A 
ATOM     19  N   UNL     1       3.378  -0.793  -0.035  0.00  0.00    -0.215 NA
ATOM     20  C   UNL     1       2.893  -2.039  -0.037  0.00  0.00    +0.072 A 
ATOM     21  C   UNL     1       1.545  -1.976  -0.024  0.00  0.00    +0.118 A 
ATOM     22  N   UNL     1       1.204  -0.651  -0.013  0.00  0.00    -0.291 N 
ATOM     23  C   UNL     1       0.002  -0.004   0.002  0.00  0.00    +0.095 A 
ENDBRANCH  14  20
ENDBRANCH  13  14
ENDBRANCH   1  13
TORSDOF 4
