REMARK  Name = ZINC43370330
REMARK  8 active torsions:
REMARK  status: ('A' for Active; 'I' for Inactive)
REMARK    1  A    between atoms: C_1  and  C_2
REMARK    2  A    between atoms: C_2  and  C_4
REMARK    3  A    between atoms: C_2  and  C_9
REMARK    4  A    between atoms: C_4  and  C_5
REMARK    5  A    between atoms: C_5  and  O_7
REMARK    6  A    between atoms: O_7  and  C_8
REMARK    7  A    between atoms: C_9  and  C_11
REMARK    8  A    between atoms: C_9  and  O_21
REMARK                            x       y       z     vdW  Elec       q    Type
REMARK                         _______ _______ _______ _____ _____    ______ ____
ROOT
ATOM      1  C   UNL     1       0.742  -0.511   1.242  0.00  0.00    +0.148 C 
ENDROOT
BRANCH   1   2
ATOM      2  C   UNL     1      -0.030  -0.130   2.478  0.00  0.00    -0.014 A 
ATOM      3  C   UNL     1      -0.831  -1.065   3.107  0.00  0.00    +0.055 A 
ATOM      4  C   UNL     1      -1.542  -0.717   4.245  0.00  0.00    +0.168 A 
ATOM      5  C   UNL     1      -1.446   0.576   4.753  0.00  0.00    +0.184 A 
ATOM      6  C   UNL     1      -0.642   1.509   4.117  0.00  0.00    +0.087 A 
ATOM      7  C   UNL     1       0.069   1.153   2.985  0.00  0.00    +0.030 A 
ATOM      8 CL   UNL     1      -0.520   3.122   4.747  0.00  0.00    -0.080 Cl
ATOM      9  O   UNL     1      -2.232   0.667   5.866  0.00  0.00    -0.451 OA
ATOM     10  C   UNL     1      -3.124  -0.461   5.799  0.00  0.00    +0.466 C 
ATOM     11  O   UNL     1      -2.386  -1.437   5.039  0.00  0.00    -0.453 OA
ENDBRANCH   1   2
BRANCH   1  13
ATOM     12  C   UNL     1      -0.019   1.526   0.010  0.00  0.00    +0.011 C 
ATOM     13  C   UNL     1       0.002  -0.004   0.002  0.00  0.00    +0.030 C 
BRANCH  13  14
ATOM     14  C   UNL     1       0.718  -0.497  -1.257  0.00  0.00    +0.126 C 
BRANCH  14  15
ATOM     15  C   UNL     1      -0.077  -0.103  -2.474  0.00  0.00    +0.307 C 
ATOM     16  O   UNL     1      -1.111   0.510  -2.348  0.00  0.00    -0.251 OA
BRANCH  15  17
ATOM     17  O   UNL     1       0.363  -0.432  -3.699  0.00  0.00    -0.468 OA
ATOM     18  C   UNL     1      -0.442  -0.026  -4.808  0.00  0.00    +0.280 C 
ENDBRANCH  15  17
ENDBRANCH  14  15
ENDBRANCH  13  14
ENDBRANCH   1  13
BRANCH   1  19
ATOM     19  O   UNL     1       2.044   0.076   1.292  0.00  0.00    -0.387 OA
ATOM     20  H   UNL     1       2.038   1.042   1.339  0.00  0.00    +0.210 HD
ENDBRANCH   1  19
TORSDOF 6
