REMARK  Name = ZINC08947717
REMARK  10 active torsions:
REMARK  status: ('A' for Active; 'I' for Inactive)
REMARK    1  A    between atoms: C_1  and  C_2
REMARK    2  A    between atoms: C_5  and  C_14
REMARK    3  A    between atoms: C_12  and  C_13
REMARK    4  A    between atoms: C_14  and  N_15
REMARK    5  A    between atoms: C_18  and  C_22
REMARK    6  A    between atoms: C_18  and  C_23
REMARK    7  A    between atoms: C_26  and  C_29
REMARK    8  A    between atoms: C_29  and  C_30
REMARK    9  A    between atoms: C_29  and  C_31
REMARK   10  A    between atoms: C_29  and  C_32
REMARK                            x       y       z     vdW  Elec       q    Type
REMARK                         _______ _______ _______ _____ _____    ______ ____
ROOT
ATOM      1  N   UNL     1       1.043   2.020   0.005  0.00  0.00    -0.220 N 
ATOM      2  C   UNL     1      -0.009   1.178   0.027  0.00  0.00    +0.251 C 
ATOM      3  O   UNL     1       0.022  -0.034   0.037  0.00  0.00    -0.272 OA
ATOM      4  C   UNL     1      -1.241   2.062   0.032  0.00  0.00    +0.135 C 
ATOM      5  N   UNL     1      -0.687   3.427   0.017  0.00  0.00    -0.281 N 
ATOM      6  C   UNL     1       0.652   3.299  -0.001  0.00  0.00    +0.310 C 
ATOM      7  O   UNL     1       1.421   4.240  -0.021  0.00  0.00    -0.252 OA
ATOM      8  C   UNL     1      -2.064   1.832   1.300  0.00  0.00    +0.047 C 
ATOM      9  H   UNL     1      -1.190   4.257   0.018  0.00  0.00    +0.152 HD
ENDROOT
BRANCH   4  10
ATOM     10  C   UNL     1      -2.076   1.813  -1.197  0.00  0.00    -0.015 A 
ATOM     11  C   UNL     1      -2.075   0.566  -1.793  0.00  0.00    +0.006 A 
ATOM     12  C   UNL     1      -2.845   0.337  -2.918  0.00  0.00    +0.004 A 
ATOM     13  C   UNL     1      -3.609   1.357  -3.453  0.00  0.00    -0.042 A 
ATOM     14  C   UNL     1      -3.606   2.606  -2.860  0.00  0.00    +0.004 A 
ATOM     15  C   UNL     1      -2.839   2.834  -1.733  0.00  0.00    +0.006 A 
BRANCH  13  16
ATOM     16  C   UNL     1      -4.444   1.108  -4.682  0.00  0.00    -0.013 C 
ATOM     17  C   UNL     1      -3.995   2.048  -5.803  0.00  0.00    +0.015 C 
ATOM     18  C   UNL     1      -4.269  -0.343  -5.133  0.00  0.00    +0.015 C 
ATOM     19  C   UNL     1      -5.917   1.367  -4.359  0.00  0.00    +0.015 C 
ENDBRANCH  13  16
ENDBRANCH   4  10
BRANCH   1  20
ATOM     20  C   UNL     1       2.443   1.587  -0.011  0.00  0.00    +0.154 C 
BRANCH  20  25
ATOM     21  C   UNL     1       7.270  -0.440   0.097  0.00  0.00    +0.044 C 
ATOM     22  C   UNL     1       6.304  -0.100  -1.008  0.00  0.00    -0.047 A 
ATOM     23  C   UNL     1       5.083   0.433  -0.701  0.00  0.00    +0.015 A 
ATOM     24  C   UNL     1       4.187   0.748  -1.727  0.00  0.00    +0.023 A 
ATOM     25  C   UNL     1       2.870   1.321  -1.432  0.00  0.00    -0.012 A 
ATOM     26  C   UNL     1       2.045   1.599  -2.472  0.00  0.00    +0.098 A 
ATOM     27  C   UNL     1       2.472   1.347  -3.794  0.00  0.00    +0.338 A 
ATOM     28  O   UNL     1       1.723   1.606  -4.719  0.00  0.00    -0.245 OA
ATOM     29  O   UNL     1       3.679   0.822  -4.056  0.00  0.00    -0.422 OA
ATOM     30  C   UNL     1       4.545   0.517  -3.067  0.00  0.00    +0.140 A 
ATOM     31  C   UNL     1       5.790  -0.025  -3.355  0.00  0.00    +0.050 A 
ATOM     32  C   UNL     1       6.660  -0.330  -2.329  0.00  0.00    -0.044 A 
ATOM     33  C   UNL     1       8.011  -0.918  -2.645  0.00  0.00    +0.044 C 
ENDBRANCH  20  25
ENDBRANCH   1  20
TORSDOF 4
