REMARK  Name = ZINC61591487
REMARK  4 active torsions:
REMARK  status: ('A' for Active; 'I' for Inactive)
REMARK    1  A    between atoms: C_1  and  C_2
REMARK    2  A    between atoms: C_2  and  C_4
REMARK    3  A    between atoms: C_2  and  N_11
REMARK    4  A    between atoms: C_4  and  N_5
REMARK                            x       y       z     vdW  Elec       q    Type
REMARK                         _______ _______ _______ _____ _____    ______ ____
ROOT
ATOM      1  C   UNL     1      -0.019   1.526   0.010  0.00  0.00    +0.029 C 
ATOM      2  C   UNL     1       0.002  -0.004   0.002  0.00  0.00    +0.075 C 
ENDROOT
BRANCH   2   3
ATOM      3  N   UNL     1      -1.372  -0.511   0.012  0.00  0.00    -0.269 N 
ATOM      4  C   UNL     1      -1.931  -1.296  -0.930  0.00  0.00    +0.345 A 
ATOM      5  O   UNL     1      -1.386  -1.709  -1.938  0.00  0.00    -0.245 OA
ATOM      6  N   UNL     1      -3.203  -1.542  -0.554  0.00  0.00    -0.226 N 
ATOM      7  H   UNL     1      -3.851  -2.079  -1.037  0.00  0.00    +0.194 HD
ATOM      8  N   UNL     1      -3.417  -0.878   0.661  0.00  0.00    -0.144 NA
ATOM      9  C   UNL     1      -2.312  -0.272   0.990  0.00  0.00    +0.203 A 
ATOM     10  S   UNL     1      -2.063   0.696   2.440  0.00  0.00    -0.009 SA
ENDBRANCH   2   3
BRANCH   2  11
ATOM     11  C   UNL     1       0.742  -0.511   1.242  0.00  0.00    -0.054 C 
BRANCH  11  12
ATOM     12  N   UNL     1       0.659  -1.976   1.296  0.00  0.00    +0.381 N 
ATOM     13  C   UNL     1       1.371  -2.549   0.147  0.00  0.00    -0.079 C 
ATOM     14  C   UNL     1       1.219  -4.071   0.155  0.00  0.00    -0.019 C 
ATOM     15  C   UNL     1       1.808  -4.631   1.453  0.00  0.00    -0.004 C 
ATOM     16  C   UNL     1       1.108  -3.972   2.646  0.00  0.00    -0.019 C 
ATOM     17  C   UNL     1       1.264  -2.453   2.546  0.00  0.00    -0.079 C 
ATOM     18  H   UNL     1      -0.309  -2.259   1.264  0.00  0.00    -0.082 HD
ENDBRANCH  11  12
ENDBRANCH   2  11
TORSDOF 3
