REMARK  Name = ZINC49509794
REMARK  4 active torsions:
REMARK  status: ('A' for Active; 'I' for Inactive)
REMARK    1  A    between atoms: C_3  and  C_6
REMARK    2  A    between atoms: C_14  and  N_17
REMARK    3  A    between atoms: N_17  and  S_18
REMARK    4  A    between atoms: S_18  and  C_21
REMARK                            x       y       z     vdW  Elec       q    Type
REMARK                         _______ _______ _______ _____ _____    ______ ____
ROOT
ATOM      1  C   UNL     1       3.561   0.619  -0.029  0.00  0.00    +0.286 C 
ATOM      2  O   UNL     1       4.194   1.658  -0.030  0.00  0.00    -0.266 OA
ATOM      3  N   UNL     1       4.206  -0.564  -0.042  0.00  0.00    -0.264 N 
ATOM      4  C   UNL     1       3.554  -1.876  -0.048  0.00  0.00    +0.119 C 
ATOM      5  C   UNL     1       4.703  -2.898  -0.063  0.00  0.00    +0.056 C 
ATOM      6  C   UNL     1       5.960  -2.057  -0.064  0.00  0.00    -0.024 A 
ATOM      7  C   UNL     1       5.595  -0.719  -0.056  0.00  0.00    +0.042 A 
ATOM      8  C   UNL     1       6.592   0.257  -0.060  0.00  0.00    +0.050 A 
ATOM      9  C   UNL     1       7.927  -0.111  -0.074  0.00  0.00    +0.076 A 
ATOM     10  C   UNL     1       8.279  -1.455  -0.085  0.00  0.00    +0.027 A 
ATOM     11  C   UNL     1       7.293  -2.422  -0.074  0.00  0.00    +0.007 A 
ENDROOT
BRANCH   1  14
ATOM     12  C   UNL     1      -0.016   1.347   0.009  0.00  0.00    +0.042 A 
ATOM     13  C   UNL     1       1.319   1.778  -0.001  0.00  0.00    +0.054 A 
ATOM     14  C   UNL     1       2.095   0.654  -0.014  0.00  0.00    +0.190 A 
ATOM     15  O   UNL     1       1.276  -0.418  -0.012  0.00  0.00    -0.458 OA
ATOM     16  C   UNL     1       0.002  -0.004   0.002  0.00  0.00    +0.196 A 
ENDBRANCH   1  14
BRANCH   9  17
ATOM     17  N   UNL     1       8.921   0.870  -0.078  0.00  0.00    -0.097 NA
BRANCH  17  18
ATOM     18  S   UNL     1      10.518   0.432  -0.095  0.00  0.00    +0.098 S 
ATOM     19  O   UNL     1      10.775  -0.214   1.145  0.00  0.00    -0.148 OA
ATOM     20  O   UNL     1      10.752  -0.200  -1.346  0.00  0.00    -0.148 OA
BRANCH  18  21
ATOM     21  C   UNL     1      11.466   1.917  -0.095  0.00  0.00    +0.149 A 
ATOM     22  C   UNL     1      11.940   2.627   0.957  0.00  0.00    +0.038 A 
ATOM     23  C   UNL     1      12.669   3.776   0.717  0.00  0.00    +0.025 A 
ATOM     24  C   UNL     1      12.889   4.159  -0.566  0.00  0.00    +0.057 A 
ATOM     25  S   UNL     1      12.059   2.871  -1.482  0.00  0.00    -0.061 S 
ATOM     26 BR   UNL     1      13.836   5.662  -1.214  0.00  0.00    -0.043 Br
ENDBRANCH  18  21
ENDBRANCH  17  18
ENDBRANCH   9  17
TORSDOF 4
