REMARK  Name = ZINC40795817
REMARK  6 active torsions:
REMARK  status: ('A' for Active; 'I' for Inactive)
REMARK    1  A    between atoms: C_1  and  C_2
REMARK    2  A    between atoms: C_2  and  O_3
REMARK    3  A    between atoms: O_3  and  C_4
REMARK    4  A    between atoms: C_5  and  N_22
REMARK    5  A    between atoms: C_6  and  N_10
REMARK    6  A    between atoms: C_14  and  C_17
REMARK                            x       y       z     vdW  Elec       q    Type
REMARK                         _______ _______ _______ _____ _____    ______ ____
ROOT
ATOM      1  N   UNL     1       2.182  -4.346   3.595  0.00  0.00    -0.282 N 
ATOM      2  C   UNL     1       2.259  -5.733   3.686  0.00  0.00    +0.142 A 
ATOM      3  C   UNL     1       2.898  -6.319   4.774  0.00  0.00    +0.081 A 
ATOM      4  C   UNL     1       2.966  -7.699   4.851  0.00  0.00    +0.037 A 
ATOM      5  C   UNL     1       2.391  -8.449   3.834  0.00  0.00    +0.074 A 
ATOM      6  C   UNL     1       1.772  -7.801   2.783  0.00  0.00    +0.125 A 
ATOM      7  N   UNL     1       1.718  -6.483   2.738  0.00  0.00    -0.238 NA
ATOM      8 CL   UNL     1       3.601  -5.332   6.018  0.00  0.00    -0.080 Cl
ATOM      9  H   UNL     1       2.577  -3.792   4.287  0.00  0.00    +0.155 HD
ENDROOT
BRANCH   1  12
ATOM     10  C   UNL     1       0.802  -1.822   1.305  0.00  0.00    +0.241 A 
ATOM     11  C   UNL     1       1.456  -2.363   2.411  0.00  0.00    +0.128 A 
ATOM     12  C   UNL     1       1.540  -3.754   2.513  0.00  0.00    +0.152 A 
ATOM     13  N   UNL     1       0.995  -4.503   1.558  0.00  0.00    -0.218 NA
ATOM     14  C   UNL     1       0.385  -3.950   0.529  0.00  0.00    +0.227 A 
ATOM     15  N   UNL     1       0.281  -2.643   0.399  0.00  0.00    -0.200 NA
BRANCH  11  16
ATOM     16  N   UNL     1       2.017  -1.534   3.394  0.00  0.00    -0.351 N 
ATOM     17  H   UNL     1       1.952  -0.570   3.310  0.00  0.00    +0.143 HD
ATOM     18  H   UNL     1       2.470  -1.924   4.158  0.00  0.00    +0.143 HD
ENDBRANCH  11  16
BRANCH  10  19
ATOM     19  O   UNL     1       0.693  -0.477   1.160  0.00  0.00    -0.475 OA
BRANCH  19  21
ATOM     20  C   UNL     1      -0.019   1.526   0.010  0.00  0.00    +0.048 C 
ATOM     21  C   UNL     1       0.002  -0.004   0.002  0.00  0.00    +0.227 C 
ENDBRANCH  19  21
ENDBRANCH  10  19
ENDBRANCH   1  12
BRANCH   5  22
ATOM     22  C   UNL     1       2.441  -9.954   3.875  0.00  0.00    +0.419 C 
ATOM     23  F   UNL     1       1.315 -10.440   4.549  0.00  0.00    -0.166 F 
ATOM     24  F   UNL     1       2.457 -10.457   2.570  0.00  0.00    -0.166 F 
ATOM     25  F   UNL     1       3.598 -10.364   4.546  0.00  0.00    -0.166 F 
ENDBRANCH   5  22
TORSDOF 5
