REMARK  Name = ZINC16926982
REMARK  10 active torsions:
REMARK  status: ('A' for Active; 'I' for Inactive)
REMARK    1  A    between atoms: C_1  and  C_2
REMARK    2  A    between atoms: C_2  and  O_3
REMARK    3  A    between atoms: O_3  and  C_4
REMARK    4  A    between atoms: C_6  and  C_11
REMARK    5  A    between atoms: C_9  and  O_10
REMARK    6  A    between atoms: N_15  and  C_28
REMARK    7  A    between atoms: N_17  and  C_18
REMARK    8  A    between atoms: C_21  and  O_26
REMARK    9  A    between atoms: C_23  and  C_24
REMARK   10  A    between atoms: C_28  and  C_29
REMARK                            x       y       z     vdW  Elec       q    Type
REMARK                         _______ _______ _______ _____ _____    ______ ____
ROOT
ATOM      1  C   UNL     1       6.467   4.297   5.024  0.00  0.00    +0.028 C 
ATOM      2  C   UNL     1       6.489   3.895   3.728  0.00  0.00    +0.078 C 
ATOM      3  C   UNL     1       7.442   4.240   2.656  0.00  0.00    +0.259 C 
ATOM      4  O   UNL     1       8.382   4.986   2.857  0.00  0.00    -0.269 OA
ATOM      5  N   UNL     1       7.228   3.701   1.468  0.00  0.00    -0.242 N 
ATOM      6  C   UNL     1       6.159   2.860   1.260  0.00  0.00    +0.169 C 
ATOM      7  N   UNL     1       5.804   2.246   0.150  0.00  0.00    -0.225 NA
ATOM      8  S   UNL     1       5.366   2.810   2.859  0.00  0.00    -0.049 S 
ENDROOT
BRANCH   1  11
ATOM      9  C   UNL     1       4.474   3.641   8.133  0.00  0.00    +0.162 A 
ATOM     10  C   UNL     1       5.367   4.220   7.252  0.00  0.00    +0.057 A 
ATOM     11  C   UNL     1       5.525   3.683   5.968  0.00  0.00    -0.020 A 
ATOM     12  C   UNL     1       4.785   2.556   5.590  0.00  0.00    +0.012 A 
ATOM     13  C   UNL     1       3.902   1.983   6.477  0.00  0.00    +0.050 A 
ATOM     14  C   UNL     1       3.742   2.519   7.748  0.00  0.00    +0.158 A 
BRANCH  14  15
ATOM     15  O   UNL     1       2.869   1.949   8.619  0.00  0.00    -0.503 OA
ATOM     16  H   UNL     1       3.260   1.260   9.173  0.00  0.00    +0.292 HD
ENDBRANCH  14  15
BRANCH   9  17
ATOM     17  O   UNL     1       4.314   4.163   9.379  0.00  0.00    -0.489 OA
BRANCH  17  19
ATOM     18  C   UNL     1       4.782   5.753  11.137  0.00  0.00    +0.048 C 
ATOM     19  C   UNL     1       5.096   5.313   9.706  0.00  0.00    +0.226 C 
ENDBRANCH  17  19
ENDBRANCH   9  17
ENDBRANCH   1  11
BRANCH   7  20
ATOM     20  C   UNL     1       4.776   1.353   0.165  0.00  0.00    +0.081 A 
ATOM     21  C   UNL     1       4.686   0.401   1.185  0.00  0.00    +0.032 A 
ATOM     22  C   UNL     1       3.642  -0.496   1.200  0.00  0.00    +0.047 A 
ATOM     23  C   UNL     1       2.675  -0.472   0.199  0.00  0.00    +0.118 A 
ATOM     24  C   UNL     1       2.745   0.460  -0.818  0.00  0.00    +0.062 A 
ATOM     25  C   UNL     1       3.794   1.383  -0.848  0.00  0.00    +0.092 A 
BRANCH  25  26
ATOM     26  C   UNL     1       3.874   2.378  -1.928  0.00  0.00    +0.389 C 
ATOM     27  O   UNL     1       4.789   3.179  -1.950  0.00  0.00    -0.241 OA
ATOM     28  O   UNL     1       2.934   2.402  -2.894  0.00  0.00    -0.241 OA
ENDBRANCH  25  26
BRANCH  23  29
ATOM     29  O   UNL     1       1.653  -1.369   0.225  0.00  0.00    -0.507 OA
ATOM     30  H   UNL     1       1.839  -2.191  -0.250  0.00  0.00    +0.292 HD
ENDBRANCH  23  29
ENDBRANCH   7  20
BRANCH   5  31
ATOM     31  C   UNL     1       8.139   4.004   0.360  0.00  0.00    +0.142 C 
BRANCH  31  32
ATOM     32  C   UNL     1       7.645   5.221  -0.378  0.00  0.00    -0.015 C 
ATOM     33  C   UNL     1       8.436   6.251  -0.546  0.00  0.00    +0.005 C 
ENDBRANCH  31  32
ENDBRANCH   5  31
TORSDOF 9
