REMARK  Name = ZINC20201219
REMARK  6 active torsions:
REMARK  status: ('A' for Active; 'I' for Inactive)
REMARK    1  A    between atoms: C_1  and  C_2
REMARK    2  A    between atoms: C_3  and  C_11
REMARK    3  A    between atoms: C_7  and  N_8
REMARK    4  A    between atoms: N_13  and  C_14
REMARK    5  A    between atoms: C_14  and  C_15
REMARK    6  A    between atoms: C_15  and  C_16
REMARK                            x       y       z     vdW  Elec       q    Type
REMARK                         _______ _______ _______ _____ _____    ______ ____
ROOT
ATOM      1  C   UNL     1      -0.768  -0.163  -2.475  0.00  0.00    +0.244 C 
ATOM      2  O   UNL     1      -0.931   1.040  -2.530  0.00  0.00    -0.270 OA
ATOM      3  N   UNL     1      -0.959  -0.919  -3.574  0.00  0.00    -0.311 N 
ATOM      4  H   UNL     1      -0.829  -1.880  -3.531  0.00  0.00    +0.149 HD
ENDROOT
BRANCH   1   7
ATOM      5  C   UNL     1      -0.618   1.432  -0.065  0.00  0.00    +0.047 C 
ATOM      6  C   UNL     1      -0.285  -0.038  -0.034  0.00  0.00    -0.008 A 
ATOM      7  C   UNL     1      -0.361  -0.797  -1.203  0.00  0.00    +0.042 A 
ATOM      8  C   UNL     1      -0.050  -2.157  -1.166  0.00  0.00    +0.013 A 
ATOM      9  C   UNL     1       0.329  -2.743   0.025  0.00  0.00    +0.003 A 
ATOM     10  C   UNL     1       0.402  -1.985   1.179  0.00  0.00    +0.033 A 
ATOM     11  C   UNL     1       0.102  -0.634   1.148  0.00  0.00    +0.130 A 
BRANCH  11  12
ATOM     12  N   UNL     1       0.189   0.171   2.387  0.00  0.00    +0.057 N 
ATOM     13  O   UNL     1       0.396  -0.372   3.447  0.00  0.00    -0.126 OA
ATOM     14  O   UNL     1       0.054   1.371   2.339  0.00  0.00    -0.126 OA
ENDBRANCH  11  12
ENDBRANCH   1   7
BRANCH   3  15
ATOM     15  C   UNL     1      -1.363  -0.291  -4.835  0.00  0.00    +0.111 C 
BRANCH  15  16
ATOM     16  C   UNL     1      -1.510  -1.365  -5.915  0.00  0.00    +0.083 C 
BRANCH  16  17
ATOM     17  C   UNL     1      -1.926  -0.718  -7.212  0.00  0.00    +0.105 A 
ATOM     18  N   UNL     1      -1.189  -0.240  -8.194  0.00  0.00    -0.145 NA
ATOM     19  N   UNL     1      -1.698   0.276  -9.226  0.00  0.00    -0.126 NA
ATOM     20  C   UNL     1      -3.011   0.369  -9.386  0.00  0.00    +0.179 A 
ATOM     21  S   UNL     1      -3.562  -0.388  -7.860  0.00  0.00    -0.036 S 
ATOM     22  N   UNL     1      -3.747   0.897 -10.437  0.00  0.00    -0.336 N 
ATOM     23  H   UNL     1      -3.292   1.273 -11.207  0.00  0.00    +0.144 HD
ATOM     24  H   UNL     1      -4.716   0.890 -10.402  0.00  0.00    +0.144 HD
ENDBRANCH  16  17
ENDBRANCH  15  16
ENDBRANCH   3  15
TORSDOF 5
