REMARK  Name = ZINC20467320
REMARK  11 active torsions:
REMARK  status: ('A' for Active; 'I' for Inactive)
REMARK    1  A    between atoms: C_1  and  C_2
REMARK    2  A    between atoms: C_2  and  N_3
REMARK    3  A    between atoms: N_6  and  C_7
REMARK    4  A    between atoms: C_11  and  C_37
REMARK    5  A    between atoms: C_14  and  C_24
REMARK    6  A    between atoms: C_16  and  O_23
REMARK    7  A    between atoms: C_20  and  C_22
REMARK    8  A    between atoms: C_24  and  C_26
REMARK    9  A    between atoms: C_24  and  C_27
REMARK   10  A    between atoms: N_29  and  C_30
REMARK   11  A    between atoms: C_30  and  C_31
REMARK                            x       y       z     vdW  Elec       q    Type
REMARK                         _______ _______ _______ _____ _____    ______ ____
ROOT
ATOM      1  C   UNL     1       1.871   0.473   1.423  0.00  0.00    +0.078 C 
ATOM      2  C   UNL     1       0.417  -0.002   1.450  0.00  0.00    +0.023 C 
ATOM      3  C   UNL     1      -0.347   0.627   0.284  0.00  0.00    +0.009 C 
ATOM      4  C   UNL     1      -0.306   2.152   0.410  0.00  0.00    -0.027 C 
ATOM      5  C   UNL     1      -1.070   2.781  -0.756  0.00  0.00    +0.007 C 
ATOM      6  C   UNL     1      -1.029   4.305  -0.629  0.00  0.00    +0.007 C 
ATOM      7  C   UNL     1       0.425   4.780  -0.657  0.00  0.00    +0.029 C 
ATOM      8  C   UNL     1       1.189   4.151   0.510  0.00  0.00    +0.122 C 
ATOM      9  C   UNL     1       1.148   2.627   0.383  0.00  0.00    +0.028 C 
ATOM     10  C   UNL     1       1.912   1.997   1.550  0.00  0.00    +0.012 C 
ATOM     11  C   UNL     1       3.366   2.472   1.522  0.00  0.00    +0.010 C 
ATOM     12  C   UNL     1      -0.955   2.571   1.731  0.00  0.00    +0.011 C 
ENDROOT
BRANCH   1  16
ATOM     13  N   UNL     1       3.811  -1.914   3.437  0.00  0.00    -0.300 N 
ATOM     14  C   UNL     1       3.138  -1.360   2.409  0.00  0.00    +0.300 C 
ATOM     15  O   UNL     1       3.013  -1.969   1.365  0.00  0.00    -0.253 OA
ATOM     16  N   UNL     1       2.603  -0.130   2.540  0.00  0.00    -0.296 N 
ATOM     17  H   UNL     1       3.924  -1.363   4.382  0.00  0.00    +0.150 HD
ATOM     18  H   UNL     1       2.716   0.422   3.485  0.00  0.00    +0.151 HD
BRANCH  13  20
ATOM     19  C   UNL     1       5.096  -3.642   4.597  0.00  0.00    +0.024 C 
ATOM     20  C   UNL     1       4.393  -3.251   3.295  0.00  0.00    +0.102 C 
ENDBRANCH  13  20
ENDBRANCH   1  16
BRANCH   8  21
ATOM     21  O   UNL     1       2.547   4.595   0.484  0.00  0.00    -0.391 OA
ATOM     22  H   UNL     1       3.255   4.245   1.250  0.00  0.00    +0.210 HD
ENDBRANCH   8  21
BRANCH   7  23
ATOM     23  C   UNL     1       1.074   4.361  -1.977  0.00  0.00    +0.077 C 
ATOM     24  C   UNL     1       2.551   4.760  -1.969  0.00  0.00    +0.017 C 
BRANCH  23  25
ATOM     25  C   UNL     1       0.374   5.048  -3.122  0.00  0.00    +0.217 C 
ATOM     26  O   UNL     1      -0.552   5.799  -2.903  0.00  0.00    -0.276 OA
ATOM     27  N   UNL     1       0.778   4.827  -4.388  0.00  0.00    -0.309 N 
ATOM     28  H   UNL     1       1.618   4.146  -4.587  0.00  0.00    +0.149 HD
BRANCH  27  29
ATOM     29  C   UNL     1       0.098   5.495  -5.501  0.00  0.00    +0.159 C 
BRANCH  29  30
ATOM     30  C   UNL     1       0.737   5.082  -6.801  0.00  0.00    +0.058 A 
ATOM     31  C   UNL     1       0.195   4.037  -7.527  0.00  0.00    +0.025 A 
ATOM     32  C   UNL     1       0.790   3.665  -8.723  0.00  0.00    +0.003 A 
ATOM     33  C   UNL     1       1.913   4.361  -9.145  0.00  0.00    +0.020 A 
ATOM     34  C   UNL     1       2.398   5.394  -8.366  0.00  0.00    +0.111 A 
ATOM     35  N   UNL     1       1.803   5.724  -7.237  0.00  0.00    -0.258 NA
ENDBRANCH  29  30
ENDBRANCH  27  29
ENDBRANCH  23  25
ENDBRANCH   7  23
TORSDOF 7
