REMARK  Name = ZINC15546684
REMARK  9 active torsions:
REMARK  status: ('A' for Active; 'I' for Inactive)
REMARK    1  A    between atoms: C_1  and  C_2
REMARK    2  A    between atoms: C_9  and  N_15
REMARK    3  A    between atoms: C_10  and  C_11
REMARK    4  A    between atoms: C_11  and  O_13
REMARK    5  A    between atoms: O_13  and  C_14
REMARK    6  A    between atoms: C_16  and  C_18
REMARK    7  A    between atoms: C_18  and  N_19
REMARK    8  A    between atoms: C_21  and  C_30
REMARK    9  A    between atoms: N_32  and  C_33
REMARK                            x       y       z     vdW  Elec       q    Type
REMARK                         _______ _______ _______ _____ _____    ______ ____
ROOT
ATOM      1  N   UNL     1      -5.146   1.226   3.342  0.00  0.00    -0.278 N 
ATOM      2  C   UNL     1      -4.210   0.829   2.457  0.00  0.00    +0.235 C 
ATOM      3  O   UNL     1      -4.436  -0.101   1.712  0.00  0.00    -0.274 OA
ATOM      4  H   UNL     1      -4.965   1.970   3.938  0.00  0.00    +0.155 HD
ENDROOT
BRANCH   1  12
ATOM      5  C   UNL     1     -11.930  -2.667   3.287  0.00  0.00    +0.008 C 
ATOM      6  C   UNL     1     -10.916  -1.524   3.376  0.00  0.00    -0.009 C 
ATOM      7  C   UNL     1     -10.698  -1.145   4.843  0.00  0.00    +0.008 C 
ATOM      8  C   UNL     1      -9.884   0.147   4.931  0.00  0.00    +0.037 C 
ATOM      9  C   UNL     1      -8.622  -0.011   4.092  0.00  0.00    -0.021 A 
ATOM     10  C   UNL     1      -8.531  -0.970   3.146  0.00  0.00    -0.004 A 
ATOM     11  S   UNL     1      -6.916  -0.768   2.449  0.00  0.00    -0.077 S 
ATOM     12  C   UNL     1      -6.366   0.572   3.400  0.00  0.00    +0.086 A 
ATOM     13  C   UNL     1      -7.444   0.828   4.238  0.00  0.00    +0.091 A 
ATOM     14  C   UNL     1      -9.577  -1.977   2.777  0.00  0.00    +0.046 C 
BRANCH  13  15
ATOM     15  C   UNL     1      -7.396   1.905   5.229  0.00  0.00    +0.342 C 
ATOM     16  O   UNL     1      -7.770   3.023   4.930  0.00  0.00    -0.245 OA
BRANCH  15  17
ATOM     17  O   UNL     1      -6.937   1.657   6.473  0.00  0.00    -0.464 OA
ATOM     18  C   UNL     1      -6.919   2.772   7.403  0.00  0.00    +0.280 C 
ENDBRANCH  15  17
ENDBRANCH  13  15
ENDBRANCH   1  12
BRANCH   2  19
ATOM     19  C   UNL     1      -2.883   1.540   2.394  0.00  0.00    +0.201 C 
BRANCH  19  20
ATOM     20  N   UNL     1      -1.994   0.837   1.459  0.00  0.00    -0.314 N 
ATOM     21  C   UNL     1      -1.602  -0.473   1.991  0.00  0.00    +0.160 C 
ATOM     22  C   UNL     1      -0.582  -1.104   1.034  0.00  0.00    +0.276 C 
ATOM     23  O   UNL     1       0.582  -0.271   1.018  0.00  0.00    -0.476 OA
ATOM     24  C   UNL     1       0.369   1.071   0.912  0.00  0.00    +0.143 A 
ATOM     25  C   UNL     1      -0.886   1.625   1.131  0.00  0.00    +0.073 A 
ATOM     26  C   UNL     1      -1.057   3.002   1.023  0.00  0.00    +0.027 A 
ATOM     27  C   UNL     1       0.013   3.812   0.697  0.00  0.00    +0.002 A 
ATOM     28  C   UNL     1       1.260   3.258   0.477  0.00  0.00    +0.004 A 
ATOM     29  C   UNL     1       1.439   1.892   0.584  0.00  0.00    +0.047 A 
BRANCH  22  30
ATOM     30  C   UNL     1      -0.214  -2.483   1.518  0.00  0.00    +0.255 C 
ATOM     31  O   UNL     1       0.916  -2.713   1.894  0.00  0.00    -0.272 OA
ATOM     32  N   UNL     1      -1.141  -3.462   1.532  0.00  0.00    -0.315 N 
ATOM     33  C   UNL     1      -0.784  -4.802   2.003  0.00  0.00    +0.128 C 
ATOM     34  H   UNL     1      -2.045  -3.278   1.232  0.00  0.00    +0.148 HD
ENDBRANCH  22  30
ENDBRANCH  19  20
ENDBRANCH   2  19
TORSDOF 6
