REMARK  Name = ZINC06446295
REMARK  8 active torsions:
REMARK  status: ('A' for Active; 'I' for Inactive)
REMARK    1  A    between atoms: C_4  and  C_7
REMARK    2  A    between atoms: C_7  and  O_8
REMARK    3  A    between atoms: O_8  and  C_9
REMARK    4  A    between atoms: C_18  and  C_30
REMARK    5  A    between atoms: C_20  and  C_26
REMARK    6  A    between atoms: C_20  and  C_28
REMARK    7  A    between atoms: C_21  and  N_25
REMARK    8  A    between atoms: C_22  and  C_23
REMARK                            x       y       z     vdW  Elec       q    Type
REMARK                         _______ _______ _______ _____ _____    ______ ____
ROOT
ATOM      1  C   UNL     1       5.244  -1.531   1.600  0.00  0.00    +0.403 C 
ATOM      2  O   UNL     1       5.838  -1.918   0.613  0.00  0.00    -0.226 OA
ATOM      3  N   UNL     1       5.742  -1.782   2.827  0.00  0.00    -0.263 N 
ATOM      4  C   UNL     1       5.044  -1.333   4.046  0.00  0.00    +0.138 C 
ATOM      5  C   UNL     1       6.018  -0.487   4.827  0.00  0.00    -0.003 C 
ATOM      6  C   UNL     1       7.319  -0.680   4.732  0.00  0.00    -0.026 C 
ATOM      7  C   UNL     1       7.957  -1.748   3.894  0.00  0.00    +0.048 C 
ATOM      8  C   UNL     1       6.998  -2.517   3.007  0.00  0.00    +0.120 C 
ATOM      9  C   UNL     1       9.101  -1.117   3.100  0.00  0.00    +0.069 C 
ATOM     10  C   UNL     1      10.159  -0.607   4.079  0.00  0.00    +0.188 C 
ATOM     11  C   UNL     1       9.554   0.240   5.158  0.00  0.00    +0.054 C 
ATOM     12  C   UNL     1       8.239   0.213   5.486  0.00  0.00    +0.074 C 
ENDROOT
BRANCH   9  13
ATOM     13  C   UNL     1       8.573   0.032   2.280  0.00  0.00    -0.023 A 
ATOM     14  C   UNL     1       8.404   1.284   2.851  0.00  0.00    +0.007 A 
ATOM     15  C   UNL     1       7.915   2.310   2.059  0.00  0.00    +0.020 A 
ATOM     16  C   UNL     1       7.615   2.054   0.734  0.00  0.00    +0.111 A 
ATOM     17  N   UNL     1       7.788   0.851   0.224  0.00  0.00    -0.263 NA
ATOM     18  C   UNL     1       8.256  -0.148   0.947  0.00  0.00    +0.114 A 
ENDBRANCH   9  13
BRANCH  11  19
ATOM     19  N   UNL     1      10.375   1.087   5.849  0.00  0.00    -0.358 N 
ATOM     20  H   UNL     1      11.320   1.128   5.636  0.00  0.00    +0.142 HD
ATOM     21  H   UNL     1      10.011   1.647   6.552  0.00  0.00    +0.142 HD
ENDBRANCH  11  19
BRANCH  12  22
ATOM     22  C   UNL     1       7.740   1.036   6.547  0.00  0.00    +0.101 C 
ATOM     23  N   UNL     1       7.345   1.688   7.389  0.00  0.00    -0.191 NA
ENDBRANCH  12  22
BRANCH  10  24
ATOM     24  C   UNL     1      11.151   0.192   3.341  0.00  0.00    +0.091 C 
ATOM     25  N   UNL     1      11.916   0.809   2.771  0.00  0.00    -0.194 NA
ENDBRANCH  10  24
BRANCH  10  26
ATOM     26  C   UNL     1      10.837  -1.758   4.697  0.00  0.00    +0.091 C 
ATOM     27  N   UNL     1      11.360  -2.647   5.173  0.00  0.00    -0.194 NA
ENDBRANCH  10  26
BRANCH   1  28
ATOM     28  O   UNL     1       4.089  -0.853   1.468  0.00  0.00    -0.445 OA
BRANCH  28  29
ATOM     29  C   UNL     1       3.620  -0.624   0.138  0.00  0.00    +0.269 C 
BRANCH  29  33
ATOM     30  C   UNL     1      -0.054   1.552   0.276  0.00  0.00    +0.000 A 
ATOM     31  C   UNL     1       1.149   2.230   0.218  0.00  0.00    +0.000 A 
ATOM     32  C   UNL     1       2.338   1.526   0.173  0.00  0.00    +0.007 A 
ATOM     33  C   UNL     1       2.324   0.143   0.188  0.00  0.00    -0.010 A 
ATOM     34  C   UNL     1       1.121  -0.535   0.247  0.00  0.00    +0.007 A 
ATOM     35  C   UNL     1      -0.068   0.169   0.290  0.00  0.00    +0.000 A 
ENDBRANCH  29  33
ENDBRANCH  28  29
ENDBRANCH   1  28
TORSDOF 8
