REMARK  Name = ZINC10224542
REMARK  9 active torsions:
REMARK  status: ('A' for Active; 'I' for Inactive)
REMARK    1  A    between atoms: C_1  and  C_2
REMARK    2  A    between atoms: C_3  and  C_24
REMARK    3  A    between atoms: C_5  and  S_9
REMARK    4  A    between atoms: C_7  and  C_8
REMARK    5  A    between atoms: S_9  and  C_10
REMARK    6  A    between atoms: C_10  and  C_12
REMARK    7  A    between atoms: C_10  and  C_13
REMARK    8  A    between atoms: N_15  and  C_16
REMARK    9  A    between atoms: C_16  and  C_22
REMARK                            x       y       z     vdW  Elec       q    Type
REMARK                         _______ _______ _______ _____ _____    ______ ____
ROOT
ATOM      1  C   UNL     1      -4.495   3.091   4.282  0.00  0.00    +0.137 C 
ATOM      2  C   UNL     1      -4.587   4.157   3.189  0.00  0.00    +0.029 C 
ENDROOT
BRANCH   1   3
ATOM      3  C   UNL     1      -5.423   3.449   5.413  0.00  0.00    +0.227 C 
ATOM      4  O   UNL     1      -5.002   4.057   6.374  0.00  0.00    -0.275 OA
ATOM      5  N   UNL     1      -6.723   3.095   5.357  0.00  0.00    -0.296 N 
ATOM      6  H   UNL     1      -7.060   2.609   4.588  0.00  0.00    +0.150 HD
BRANCH   5   7
ATOM      7  C   UNL     1      -7.625   3.444   6.457  0.00  0.00    +0.121 C 
ATOM      8  C   UNL     1      -7.123   2.802   7.752  0.00  0.00    +0.041 C 
ATOM      9  C   UNL     1      -8.066   3.166   8.900  0.00  0.00    +0.003 C 
ATOM     10  C   UNL     1      -9.473   2.651   8.588  0.00  0.00    +0.000 C 
ATOM     11  C   UNL     1      -9.975   3.293   7.293  0.00  0.00    +0.003 C 
ATOM     12  C   UNL     1      -9.032   2.929   6.144  0.00  0.00    +0.041 C 
BRANCH   7  13
ATOM     13  C   UNL     1      -7.662   4.907   6.616  0.00  0.00    +0.088 C 
ATOM     14  N   UNL     1      -7.691   6.035   6.739  0.00  0.00    -0.194 NA
ENDBRANCH   7  13
ENDBRANCH   5   7
ENDBRANCH   1   3
BRANCH   1  15
ATOM     15  S   UNL     1      -2.796   3.005   4.900  0.00  0.00    -0.074 S 
BRANCH  15  20
ATOM     16  C   UNL     1      -0.013   1.086   0.008  0.00  0.00    +0.047 C 
ATOM     17  C   UNL     1      -0.718   1.572   1.248  0.00  0.00    -0.008 A 
ATOM     18  C   UNL     1      -2.086   1.795   1.243  0.00  0.00    +0.046 A 
ATOM     19  N   UNL     1      -2.675   2.216   2.349  0.00  0.00    -0.227 NA
ATOM     20  C   UNL     1      -1.971   2.436   3.450  0.00  0.00    +0.189 A 
ATOM     21  N   UNL     1      -0.661   2.237   3.487  0.00  0.00    -0.227 NA
ATOM     22  C   UNL     1      -0.012   1.811   2.417  0.00  0.00    +0.046 A 
ATOM     23  C   UNL     1       1.478   1.587   2.467  0.00  0.00    +0.066 C 
ATOM     24  C   UNL     1      -2.893   1.554  -0.007  0.00  0.00    +0.066 C 
ENDBRANCH  15  20
ENDBRANCH   1  15
TORSDOF 5
