REMARK  Name = ZINC62160104
REMARK  5 active torsions:
REMARK  status: ('A' for Active; 'I' for Inactive)
REMARK    1  A    between atoms: C_3  and  N_9
REMARK    2  A    between atoms: C_6  and  C_7
REMARK    3  A    between atoms: N_9  and  S_10
REMARK    4  A    between atoms: S_10  and  N_13
REMARK    5  A    between atoms: N_13  and  C_14
REMARK                            x       y       z     vdW  Elec       q    Type
REMARK                         _______ _______ _______ _____ _____    ______ ____
ROOT
ATOM      1  N   UNL     1       3.576   2.131  -0.021  0.00  0.00    -0.207 N 
ATOM      2  H   UNL     1       3.682   2.893  -0.612  0.00  0.00    +0.175 HD
ENDROOT
BRANCH   1   5
ATOM      3  C   UNL     1      -0.017   1.394   0.010  0.00  0.00    +0.021 A 
ATOM      4  C   UNL     1       1.167   2.097   0.002  0.00  0.00    +0.026 A 
ATOM      5  C   UNL     1       2.381   1.417  -0.013  0.00  0.00    +0.049 A 
ATOM      6  C   UNL     1       2.404   0.026  -0.021  0.00  0.00    +0.026 A 
ATOM      7  C   UNL     1       1.224  -0.683  -0.014  0.00  0.00    +0.021 A 
ATOM      8  C   UNL     1       0.002  -0.004   0.002  0.00  0.00    +0.052 A 
BRANCH   8   9
ATOM      9  C   UNL     1      -1.227  -0.739   0.010  0.00  0.00    +0.099 C 
ATOM     10  N   UNL     1      -2.202  -1.321   0.017  0.00  0.00    -0.191 NA
ENDBRANCH   8   9
ENDBRANCH   1   5
BRANCH   1  11
ATOM     11  S   UNL     1       4.817   1.680   0.979  0.00  0.00    +0.109 S 
ATOM     12  O   UNL     1       5.891   2.574   0.721  0.00  0.00    -0.138 OA
ATOM     13  O   UNL     1       4.256   1.517   2.274  0.00  0.00    -0.138 OA
BRANCH  11  14
ATOM     14  N   UNL     1       5.320   0.180   0.489  0.00  0.00    -0.174 NA
ATOM     15  H   UNL     1       5.213  -0.583   1.077  0.00  0.00    +0.150 HD
BRANCH  14  16
ATOM     16  C   UNL     1       5.928   0.007  -0.833  0.00  0.00    +0.078 C 
ATOM     17  C   UNL     1       7.466   0.003  -0.711  0.00  0.00    +0.020 C 
ATOM     18  C   UNL     1       7.837  -1.499  -0.643  0.00  0.00    +0.002 C 
ATOM     19  C   UNL     1       6.839  -2.143  -1.637  0.00  0.00    +0.002 C 
ATOM     20  C   UNL     1       5.530  -1.357  -1.422  0.00  0.00    +0.020 C 
ENDBRANCH  14  16
ENDBRANCH  11  14
ENDBRANCH   1  11
TORSDOF 5
