REMARK  Name = ZINC40334254
REMARK  5 active torsions:
REMARK  status: ('A' for Active; 'I' for Inactive)
REMARK    1  A    between atoms: C_3  and  N_21
REMARK    2  A    between atoms: C_4  and  S_8
REMARK    3  A    between atoms: S_8  and  N_11
REMARK    4  A    between atoms: C_14  and  C_17
REMARK    5  A    between atoms: C_17  and  C_18
REMARK                            x       y       z     vdW  Elec       q    Type
REMARK                         _______ _______ _______ _____ _____    ______ ____
ROOT
ATOM      1  S   UNL     1       4.122  -0.367  -0.533  0.00  0.00    +0.063 S 
ATOM      2  O   UNL     1       5.148   0.058   0.354  0.00  0.00    -0.153 OA
ATOM      3  O   UNL     1       3.746  -1.731  -0.665  0.00  0.00    -0.153 OA
ENDROOT
BRANCH   1   7
ATOM      4  C   UNL     1       0.376   1.899   0.640  0.00  0.00    +0.017 A 
ATOM      5  C   UNL     1       0.335   1.002  -0.409  0.00  0.00    +0.026 A 
ATOM      6  C   UNL     1       1.480   0.306  -0.771  0.00  0.00    +0.051 A 
ATOM      7  C   UNL     1       2.666   0.514  -0.077  0.00  0.00    +0.127 A 
ATOM      8  C   UNL     1       2.701   1.413   0.971  0.00  0.00    +0.045 A 
ATOM      9  C   UNL     1       1.558   2.105   1.330  0.00  0.00    +0.020 A 
ATOM     10 BR   UNL     1       1.611   3.335   2.766  0.00  0.00    -0.050 Br
BRANCH   6  11
ATOM     11  N   UNL     1       1.441  -0.603  -1.832  0.00  0.00    -0.356 N 
ATOM     12  H   UNL     1       0.655  -0.654  -2.398  0.00  0.00    +0.142 HD
ATOM     13  H   UNL     1       2.200  -1.183  -2.002  0.00  0.00    +0.142 HD
ENDBRANCH   6  11
ENDBRANCH   1   7
BRANCH   1  14
ATOM     14  N   UNL     1       4.556   0.153  -2.044  0.00  0.00    -0.177 NA
ATOM     15  C   UNL     1       4.169  -0.609  -3.238  0.00  0.00    +0.110 C 
ATOM     16  C   UNL     1       3.446   0.329  -4.210  0.00  0.00    +0.021 C 
ATOM     17  C   UNL     1       4.335   1.541  -4.499  0.00  0.00    +0.000 C 
ATOM     18  C   UNL     1       4.600   2.303  -3.198  0.00  0.00    +0.021 C 
ATOM     19  C   UNL     1       5.331   1.390  -2.216  0.00  0.00    +0.110 C 
BRANCH  17  20
ATOM     20  C   UNL     1       3.631   2.463  -5.496  0.00  0.00    +0.099 C 
BRANCH  20  21
ATOM     21  C   UNL     1       4.555   3.592  -5.874  0.00  0.00    +0.211 C 
ATOM     22  O   UNL     1       5.667   3.653  -5.394  0.00  0.00    -0.276 OA
ATOM     23  N   UNL     1       4.145   4.535  -6.747  0.00  0.00    -0.329 N 
ATOM     24  H   UNL     1       3.256   4.486  -7.131  0.00  0.00    +0.145 HD
ATOM     25  H   UNL     1       4.740   5.261  -6.990  0.00  0.00    +0.145 HD
ENDBRANCH  20  21
ENDBRANCH  17  20
ENDBRANCH   1  14
TORSDOF 5
