REMARK  Name = ZINC67179921
REMARK  7 active torsions:
REMARK  status: ('A' for Active; 'I' for Inactive)
REMARK    1  A    between atoms: C_1  and  C_2
REMARK    2  A    between atoms: C_2  and  C_3
REMARK    3  A    between atoms: N_5  and  C_6
REMARK    4  A    between atoms: C_9  and  O_29
REMARK    5  A    between atoms: C_10  and  C_12
REMARK    6  A    between atoms: N_14  and  C_15
REMARK    7  A    between atoms: C_24  and  C_27
REMARK                            x       y       z     vdW  Elec       q    Type
REMARK                         _______ _______ _______ _____ _____    ______ ____
ROOT
ATOM      1  C   UNL     1       2.039  -5.634  -4.278  0.00  0.00    +0.248 C 
ATOM      2  O   UNL     1       2.529  -6.064  -5.305  0.00  0.00    -0.270 OA
ATOM      3  N   UNL     1       1.523  -6.486  -3.370  0.00  0.00    -0.308 N 
ATOM      4  H   UNL     1       1.132  -6.143  -2.551  0.00  0.00    +0.149 HD
ENDROOT
BRANCH   3   5
ATOM      5  C   UNL     1       1.552  -7.929  -3.619  0.00  0.00    +0.076 C 
ATOM      6  C   UNL     1       0.340  -8.325  -4.464  0.00  0.00    +0.041 C 
ATOM      7  C   UNL     1       0.393  -9.829  -4.752  0.00  0.00    +0.108 C 
ATOM      8  N   UNL     1       0.501 -10.551  -3.477  0.00  0.00    -0.315 N 
ATOM      9  C   UNL     1       1.579 -10.185  -2.547  0.00  0.00    +0.108 C 
ATOM     10  C   UNL     1       1.513  -8.677  -2.284  0.00  0.00    +0.041 C 
ATOM     11  C   UNL     1      -0.397 -11.557  -3.156  0.00  0.00    +0.121 A 
ATOM     12  C   UNL     1      -1.272 -12.032  -4.131  0.00  0.00    +0.045 A 
ATOM     13  C   UNL     1      -2.158 -13.026  -3.811  0.00  0.00    +0.024 A 
ATOM     14  C   UNL     1      -2.150 -13.534  -2.503  0.00  0.00    +0.070 A 
ATOM     15  C   UNL     1      -1.245 -13.010  -1.578  0.00  0.00    +0.131 A 
ATOM     16  N   UNL     1      -0.406 -12.058  -1.929  0.00  0.00    -0.239 NA
BRANCH  14  17
ATOM     17  C   UNL     1      -3.059 -14.573  -2.122  0.00  0.00    +0.101 C 
ATOM     18  N   UNL     1      -3.779 -15.398  -1.820  0.00  0.00    -0.191 NA
ENDBRANCH  14  17
ENDBRANCH   3   5
BRANCH   1  23
ATOM     19  C   UNL     1       1.423  -2.318  -2.621  0.00  0.00    +0.034 A 
ATOM     20  C   UNL     1       1.957  -1.443  -3.561  0.00  0.00    +0.027 A 
ATOM     21  C   UNL     1       2.514  -1.927  -4.727  0.00  0.00    +0.048 A 
ATOM     22  C   UNL     1       2.545  -3.293  -4.970  0.00  0.00    +0.129 A 
ATOM     23  C   UNL     1       2.009  -4.181  -4.027  0.00  0.00    +0.080 A 
ATOM     24  C   UNL     1       1.452  -3.683  -2.847  0.00  0.00    +0.040 A 
BRANCH  19  27
ATOM     25  C   UNL     1       0.188  -0.649  -1.457  0.00  0.00    +0.217 C 
ATOM     26  O   UNL     1       0.141   0.010  -2.474  0.00  0.00    -0.275 OA
ATOM     27  N   UNL     1       0.859  -1.817  -1.440  0.00  0.00    -0.285 N 
ATOM     28  H   UNL     1       0.952  -2.311  -0.611  0.00  0.00    +0.155 HD
BRANCH  25  30
ATOM     29  C   UNL     1      -1.187   1.179  -0.498  0.00  0.00    +0.013 C 
ATOM     30  C   UNL     1      -0.506  -0.161  -0.211  0.00  0.00    +0.093 C 
ENDBRANCH  25  30
ENDBRANCH  19  27
BRANCH  22  31
ATOM     31  O   UNL     1       3.093  -3.767  -6.117  0.00  0.00    -0.506 OA
ATOM     32  H   UNL     1       4.039  -3.957  -6.052  0.00  0.00    +0.292 HD
ENDBRANCH  22  31
ENDBRANCH   1  23
TORSDOF 6
