REMARK  Name = ZINC36562468
REMARK  13 active torsions:
REMARK  status: ('A' for Active; 'I' for Inactive)
REMARK    1  A    between atoms: C_1  and  C_2
REMARK    2  A    between atoms: C_2  and  C_3
REMARK    3  A    between atoms: C_3  and  N_4
REMARK    4  A    between atoms: N_4  and  C_5
REMARK    5  A    between atoms: C_5  and  C_7
REMARK    6  A    between atoms: C_5  and  C_16
REMARK    7  A    between atoms: C_8  and  O_15
REMARK    8  A    between atoms: C_10  and  O_14
REMARK    9  A    between atoms: C_12  and  O_13
REMARK   10  A    between atoms: N_18  and  C_19
REMARK   11  A    between atoms: C_25  and  C_27
REMARK   12  A    between atoms: C_27  and  C_28
REMARK   13  A    between atoms: C_28  and  C_29
REMARK                            x       y       z     vdW  Elec       q    Type
REMARK                         _______ _______ _______ _____ _____    ______ ____
ROOT
ATOM      1  C   UNL     1      -1.549  -2.411   1.622  0.00  0.00    +0.199 C 
ENDROOT
BRANCH   1   2
ATOM      2  C   UNL     1      -0.274  -2.410   2.425  0.00  0.00    +0.065 A 
ATOM      3  C   UNL     1      -0.015  -3.440   3.317  0.00  0.00    +0.129 A 
ATOM      4  C   UNL     1       1.159  -3.439   4.056  0.00  0.00    +0.091 A 
ATOM      5  C   UNL     1       2.074  -2.408   3.902  0.00  0.00    +0.124 A 
ATOM      6  C   UNL     1       1.815  -1.379   3.010  0.00  0.00    +0.091 A 
ATOM      7  C   UNL     1       0.643  -1.382   2.268  0.00  0.00    +0.129 A 
BRANCH   7   8
ATOM      8  O   UNL     1       0.392  -0.376   1.390  0.00  0.00    -0.506 OA
ATOM      9  H   UNL     1      -0.166   0.328   1.747  0.00  0.00    +0.292 HD
ENDBRANCH   7   8
BRANCH   5  10
ATOM     10  O   UNL     1       3.223  -2.406   4.627  0.00  0.00    -0.507 OA
ATOM     11  H   UNL     1       3.960  -2.860   4.196  0.00  0.00    +0.292 HD
ENDBRANCH   5  10
BRANCH   3  12
ATOM     12  O   UNL     1      -0.912  -4.450   3.467  0.00  0.00    -0.506 OA
ATOM     13  H   UNL     1      -0.723  -5.228   2.925  0.00  0.00    +0.292 HD
ENDBRANCH   3  12
ENDBRANCH   1   2
BRANCH   1  14
ATOM     14  C   UNL     1      -2.675  -1.870   2.466  0.00  0.00    +0.239 C 
ATOM     15  O   UNL     1      -3.571  -1.239   1.948  0.00  0.00    -0.273 OA
ATOM     16  N   UNL     1      -2.684  -2.086   3.796  0.00  0.00    -0.311 N 
ATOM     17  H   UNL     1      -1.939  -2.542   4.219  0.00  0.00    +0.149 HD
BRANCH  16  18
ATOM     18  C   UNL     1      -3.819  -1.633   4.604  0.00  0.00    +0.073 C 
ATOM     19  C   UNL     1      -3.616  -0.167   4.992  0.00  0.00    +0.022 C 
ATOM     20  C   UNL     1      -4.801   0.306   5.836  0.00  0.00    +0.002 C 
ATOM     21  C   UNL     1      -4.899  -0.548   7.102  0.00  0.00    +0.000 C 
ATOM     22  C   UNL     1      -5.102  -2.014   6.714  0.00  0.00    +0.002 C 
ATOM     23  C   UNL     1      -3.917  -2.487   5.870  0.00  0.00    +0.022 C 
ENDBRANCH  16  18
ENDBRANCH   1  14
BRANCH   1  24
ATOM     24  N   UNL     1      -1.380  -1.569   0.435  0.00  0.00    -0.286 N 
ATOM     25  C   UNL     1      -1.635  -0.248   0.505  0.00  0.00    +0.216 C 
ATOM     26  O   UNL     1      -2.050   0.236   1.536  0.00  0.00    -0.276 OA
BRANCH  24  27
ATOM     27  C   UNL     1      -0.934  -2.164  -0.827  0.00  0.00    +0.108 C 
BRANCH  27  29
ATOM     28  C   UNL     1      -1.687  -3.031  -3.046  0.00  0.00    +0.005 C 
ATOM     29  C   UNL     1      -2.152  -2.526  -1.679  0.00  0.00    +0.016 C 
ENDBRANCH  27  29
ENDBRANCH  24  27
BRANCH  25  30
ATOM     30  C   UNL     1      -1.404   0.628  -0.700  0.00  0.00    +0.096 C 
BRANCH  30  31
ATOM     31  C   UNL     1      -1.768   2.074  -0.356  0.00  0.00    +0.013 C 
BRANCH  31  32
ATOM     32  C   UNL     1      -1.534   2.963  -1.579  0.00  0.00    -0.011 C 
ATOM     33  C   UNL     1      -2.498   2.558  -2.696  0.00  0.00    +0.003 C 
ATOM     34  C   UNL     1      -2.264   3.447  -3.919  0.00  0.00    +0.000 C 
ATOM     35  C   UNL     1      -2.508   4.909  -3.541  0.00  0.00    +0.000 C 
ATOM     36  C   UNL     1      -1.544   5.315  -2.423  0.00  0.00    +0.000 C 
ATOM     37  C   UNL     1      -1.778   4.425  -1.200  0.00  0.00    +0.003 C 
ENDBRANCH  31  32
ENDBRANCH  30  31
ENDBRANCH  25  30
ENDBRANCH   1  24
TORSDOF 12
