REMARK  Name = ZINC67266407
REMARK  6 active torsions:
REMARK  status: ('A' for Active; 'I' for Inactive)
REMARK    1  A    between atoms: C_1  and  C_2
REMARK    2  A    between atoms: N_5  and  S_8
REMARK    3  A    between atoms: S_8  and  C_11
REMARK    4  A    between atoms: C_14  and  C_16
REMARK    5  A    between atoms: N_18  and  C_19
REMARK    6  A    between atoms: C_19  and  C_20
REMARK                            x       y       z     vdW  Elec       q    Type
REMARK                         _______ _______ _______ _____ _____    ______ ____
ROOT
ATOM      1  C   UNL     1      -0.795  -5.265   1.507  0.00  0.00    +0.143 A 
ATOM      2  C   UNL     1       0.313  -6.013   1.735  0.00  0.00    +0.037 A 
ATOM      3  C   UNL     1       0.422  -7.245   1.137  0.00  0.00    +0.023 A 
ATOM      4  C   UNL     1      -0.643  -7.620   0.332  0.00  0.00    +0.076 A 
ATOM      5  S   UNL     1      -1.727  -6.213   0.480  0.00  0.00    -0.064 S 
ENDROOT
BRANCH   4   6
ATOM      6  C   UNL     1      -0.831  -8.855  -0.435  0.00  0.00    +0.251 C 
ATOM      7  O   UNL     1       0.024  -9.721  -0.414  0.00  0.00    -0.270 OA
ATOM      8  N   UNL     1      -1.951  -9.031  -1.165  0.00  0.00    -0.302 N 
ATOM      9  H   UNL     1      -2.632  -8.341  -1.181  0.00  0.00    +0.150 HD
BRANCH   8  10
ATOM     10  C   UNL     1      -2.139 -10.264  -1.932  0.00  0.00    +0.200 C 
BRANCH  10  11
ATOM     11  C   UNL     1      -3.461 -10.211  -2.653  0.00  0.00    +0.228 C 
ATOM     12  O   UNL     1      -4.176  -9.238  -2.538  0.00  0.00    -0.274 OA
ATOM     13  N   UNL     1      -3.849 -11.244  -3.426  0.00  0.00    -0.328 N 
ATOM     14  H   UNL     1      -3.278 -12.022  -3.519  0.00  0.00    +0.145 HD
ATOM     15  H   UNL     1      -4.700 -11.210  -3.891  0.00  0.00    +0.145 HD
ENDBRANCH  10  11
ENDBRANCH   8  10
ENDBRANCH   4   6
BRANCH   1  16
ATOM     16  S   UNL     1      -1.173  -3.668   2.148  0.00  0.00    +0.067 S 
ATOM     17  O   UNL     1      -0.421  -3.521   3.344  0.00  0.00    -0.152 OA
ATOM     18  O   UNL     1      -2.589  -3.544   2.119  0.00  0.00    -0.152 OA
BRANCH  16  23
ATOM     19  C   UNL     1      -0.019   1.526   0.010  0.00  0.00    +0.007 C 
ATOM     20  C   UNL     1       0.002  -0.004   0.002  0.00  0.00    -0.012 C 
ATOM     21  C   UNL     1      -1.434  -0.533   0.011  0.00  0.00    +0.020 C 
ATOM     22  C   UNL     1      -1.409  -2.065  -0.032  0.00  0.00    +0.110 C 
ATOM     23  N   UNL     1      -0.578  -2.556   1.075  0.00  0.00    -0.176 NA
ATOM     24  C   UNL     1       0.791  -2.042   1.212  0.00  0.00    +0.110 C 
ATOM     25  C   UNL     1       0.742  -0.511   1.242  0.00  0.00    +0.020 C 
ENDBRANCH  16  23
ENDBRANCH   1  16
TORSDOF 5
