REMARK  Name = ZINC39590263
REMARK  4 active torsions:
REMARK  status: ('A' for Active; 'I' for Inactive)
REMARK    1  A    between atoms: C_6  and  N_7
REMARK    2  A    between atoms: C_8  and  C_10
REMARK    3  A    between atoms: C_13  and  N_17
REMARK    4  A    between atoms: C_18  and  C_20
REMARK                            x       y       z     vdW  Elec       q    Type
REMARK                         _______ _______ _______ _____ _____    ______ ____
ROOT
ATOM      1  C   UNL     1      -3.580  -0.827   0.265  0.00  0.00    +0.087 C 
ATOM      2  C   UNL     1      -4.752  -0.168   0.371  0.00  0.00    +0.021 C 
ATOM      3  N   UNL     1      -5.925  -0.826   0.488  0.00  0.00    -0.320 N 
ATOM      4  C   UNL     1      -7.043  -0.092   1.121  0.00  0.00    +0.219 C 
ATOM      5  S   UNL     1      -6.612   1.640   0.651  0.00  0.00    -0.114 S 
ATOM      6  C   UNL     1      -4.814   1.351   0.370  0.00  0.00    +0.123 C 
ATOM      7  H   UNL     1      -6.029  -1.737   0.172  0.00  0.00    +0.148 HD
ENDROOT
BRANCH   1   9
ATOM      8  N   UNL     1      -1.199  -0.763   0.043  0.00  0.00    -0.282 N 
ATOM      9  C   UNL     1      -2.370  -0.104   0.149  0.00  0.00    +0.243 C 
ATOM     10  O   UNL     1      -2.386   1.113   0.146  0.00  0.00    -0.270 OA
ATOM     11  H   UNL     1      -1.191  -1.731  -0.018  0.00  0.00    +0.155 HD
BRANCH   8  17
ATOM     12  C   UNL     1       1.139  -0.583   0.621  0.00  0.00    +0.027 A 
ATOM     13  C   UNL     1       2.328   0.120   0.601  0.00  0.00    +0.051 A 
ATOM     14  C   UNL     1       2.394   1.360  -0.017  0.00  0.00    +0.162 A 
ATOM     15  C   UNL     1       1.261   1.896  -0.619  0.00  0.00    +0.164 A 
ATOM     16  C   UNL     1       0.068   1.191  -0.598  0.00  0.00    +0.072 A 
ATOM     17  C   UNL     1       0.006  -0.050   0.022  0.00  0.00    +0.037 A 
ATOM     18  O   UNL     1       1.308   3.108  -1.237  0.00  0.00    -0.485 OA
ATOM     19  C   UNL     1       2.420   3.951  -0.916  0.00  0.00    +0.270 C 
ATOM     20  C   UNL     1       3.698   3.104  -0.973  0.00  0.00    +0.270 C 
ATOM     21  O   UNL     1       3.574   2.041  -0.023  0.00  0.00    -0.485 OA
ENDBRANCH   8  17
ENDBRANCH   1   9
BRANCH   4  22
ATOM     22  N   UNL     1      -8.331  -0.492   0.549  0.00  0.00    -0.284 N 
ATOM     23  C   UNL     1      -9.477  -0.174   1.183  0.00  0.00    +0.251 C 
ATOM     24  O   UNL     1      -9.448   0.523   2.179  0.00  0.00    -0.270 OA
ATOM     25  H   UNL     1      -8.359  -0.987  -0.285  0.00  0.00    +0.152 HD
BRANCH  23  26
ATOM     26  C   UNL     1     -10.763  -0.670   0.670  0.00  0.00    +0.101 A 
ATOM     27  C   UNL     1     -11.942  -0.447   1.378  0.00  0.00    +0.020 A 
ATOM     28  C   UNL     1     -13.143  -0.933   0.860  0.00  0.00    +0.018 A 
ATOM     29  C   UNL     1     -13.153  -1.612  -0.316  0.00  0.00    +0.086 A 
ATOM     30  N   UNL     1     -12.011  -1.833  -1.009  0.00  0.00    -0.328 N 
ATOM     31  C   UNL     1     -10.825  -1.380  -0.557  0.00  0.00    +0.261 A 
ATOM     32  O   UNL     1      -9.809  -1.585  -1.198  0.00  0.00    -0.267 OA
ATOM     33  H   UNL     1     -12.047  -2.322  -1.846  0.00  0.00    +0.168 HD
ENDBRANCH  23  26
ENDBRANCH   4  22
TORSDOF 4
