REMARK  Name = ZINC39922905
REMARK  6 active torsions:
REMARK  status: ('A' for Active; 'I' for Inactive)
REMARK    1  A    between atoms: C_1  and  C_2
REMARK    2  A    between atoms: C_2  and  C_10
REMARK    3  A    between atoms: C_3  and  C_4
REMARK    4  A    between atoms: N_11  and  N_12
REMARK    5  A    between atoms: C_13  and  C_15
REMARK    6  A    between atoms: C_18  and  C_21
REMARK                            x       y       z     vdW  Elec       q    Type
REMARK                         _______ _______ _______ _____ _____    ______ ____
ROOT
ATOM      1  N   UNL     1      -0.335  -0.693  -3.555  0.00  0.00    -0.205 N 
ATOM      2  C   UNL     1      -0.675  -0.048  -4.689  0.00  0.00    +0.263 C 
ATOM      3  O   UNL     1      -1.105   1.085  -4.636  0.00  0.00    -0.271 OA
ATOM      4  H   UNL     1       0.008  -1.599  -3.598  0.00  0.00    +0.177 HD
ENDROOT
BRANCH   2   5
ATOM      5  C   UNL     1      -0.521  -0.734  -6.021  0.00  0.00    +0.240 C 
ATOM      6  C   UNL     1      -1.711  -1.635  -6.301  0.00  0.00    +0.041 C 
ATOM      7  C   UNL     1      -2.254  -1.115  -7.419  0.00  0.00    +0.093 C 
ATOM      8  N   UNL     1      -1.544  -0.032  -7.832  0.00  0.00    -0.153 NA
ATOM      9  N   UNL     1      -0.572   0.245  -7.120  0.00  0.00    -0.170 NA
BRANCH   7  10
ATOM     10  C   UNL     1      -3.457  -1.649  -8.103  0.00  0.00    +0.020 A 
ATOM     11  C   UNL     1      -4.046  -2.832  -7.661  0.00  0.00    +0.011 A 
ATOM     12  C   UNL     1      -5.166  -3.324  -8.301  0.00  0.00    +0.001 A 
ATOM     13  C   UNL     1      -5.704  -2.646  -9.380  0.00  0.00    +0.001 A 
ATOM     14  C   UNL     1      -5.125  -1.471  -9.824  0.00  0.00    +0.020 A 
ATOM     15  C   UNL     1      -4.007  -0.966  -9.188  0.00  0.00    +0.050 A 
ATOM     16 CL   UNL     1      -3.284   0.512  -9.741  0.00  0.00    -0.083 Cl
ENDBRANCH   7  10
ENDBRANCH   2   5
BRANCH   1  18
ATOM     17  C   UNL     1      -0.150  -0.679  -1.221  0.00  0.00    +0.133 C 
ATOM     18  N   UNL     1      -0.478  -0.055  -2.316  0.00  0.00    -0.188 NA
BRANCH  17  20
ATOM     19  C   UNL     1      -0.828   1.375   0.099  0.00  0.00    +0.045 C 
ATOM     20  C   UNL     1      -0.294  -0.033   0.033  0.00  0.00    -0.030 C 
ATOM     21  C   UNL     1       0.046  -0.679   1.167  0.00  0.00    +0.012 C 
BRANCH  21  22
ATOM     22  C   UNL     1       0.051   0.041   2.451  0.00  0.00    -0.025 A 
ATOM     23  C   UNL     1      -0.357  -0.606   3.622  0.00  0.00    +0.008 A 
ATOM     24  C   UNL     1      -0.349   0.075   4.820  0.00  0.00    +0.001 A 
ATOM     25  C   UNL     1       0.061   1.397   4.867  0.00  0.00    +0.000 A 
ATOM     26  C   UNL     1       0.466   2.044   3.713  0.00  0.00    +0.001 A 
ATOM     27  C   UNL     1       0.469   1.374   2.507  0.00  0.00    +0.008 A 
ENDBRANCH  21  22
ENDBRANCH  17  20
ENDBRANCH   1  18
TORSDOF 5
