REMARK  Name = ZINC66243922
REMARK  5 active torsions:
REMARK  status: ('A' for Active; 'I' for Inactive)
REMARK    1  A    between atoms: C_3  and  C_6
REMARK    2  A    between atoms: C_6  and  N_7
REMARK    3  A    between atoms: N_10  and  C_11
REMARK    4  A    between atoms: C_11  and  C_12
REMARK    5  A    between atoms: C_15  and  C_18
REMARK                            x       y       z     vdW  Elec       q    Type
REMARK                         _______ _______ _______ _____ _____    ______ ____
ROOT
ATOM      1  C   UNL     1       7.298   0.523   3.117  0.00  0.00    +0.151 C 
ENDROOT
BRANCH   1   5
ATOM      2  N   UNL     1       4.101   0.607   1.347  0.00  0.00    -0.351 N 
ATOM      3  C   UNL     1       5.384   0.576   1.572  0.00  0.00    +0.169 C 
ATOM      4  N   UNL     1       6.267   0.560   0.518  0.00  0.00    -0.371 N 
ATOM      5  N   UNL     1       5.855   0.558   2.864  0.00  0.00    -0.354 N 
ATOM      6  H   UNL     1       5.935   0.573  -0.393  0.00  0.00    +0.159 HD
ATOM      7  H   UNL     1       7.222   0.537   0.686  0.00  0.00    +0.159 HD
ATOM      8  H   UNL     1       5.232   0.569   3.607  0.00  0.00    +0.163 HD
ATOM      9  H   UNL     1       3.478   0.617   2.090  0.00  0.00    +0.163 HD
BRANCH   2  10
ATOM     10  C   UNL     1       3.599   0.625  -0.029  0.00  0.00    +0.190 C 
BRANCH  10  13
ATOM     11  C   UNL     1      -0.016   1.341   0.009  0.00  0.00    +0.041 A 
ATOM     12  C   UNL     1       1.331   1.769  -0.001  0.00  0.00    +0.046 A 
ATOM     13  C   UNL     1       2.092   0.660  -0.014  0.00  0.00    +0.124 A 
ATOM     14  O   UNL     1       1.282  -0.411  -0.012  0.00  0.00    -0.466 OA
ATOM     15  C   UNL     1       0.002  -0.004   0.002  0.00  0.00    +0.195 A 
ENDBRANCH  10  13
ENDBRANCH   2  10
ENDBRANCH   1   5
BRANCH   1  16
ATOM     16  C   UNL     1       7.546   0.510   4.603  0.00  0.00    -0.028 A 
ATOM     17  C   UNL     1       7.682   1.704   5.290  0.00  0.00    +0.006 A 
ATOM     18  C   UNL     1       7.910   1.698   6.651  0.00  0.00    +0.009 A 
ATOM     19  C   UNL     1       8.003   0.486   7.334  0.00  0.00    -0.018 A 
ATOM     20  C   UNL     1       7.865  -0.713   6.637  0.00  0.00    +0.009 A 
ATOM     21  C   UNL     1       7.632  -0.695   5.277  0.00  0.00    +0.006 A 
BRANCH  19  22
ATOM     22  C   UNL     1       8.248   0.473   8.797  0.00  0.00    -0.017 A 
ATOM     23  C   UNL     1       8.380   1.671   9.497  0.00  0.00    +0.012 A 
ATOM     24  C   UNL     1       8.604   1.659  10.856  0.00  0.00    +0.046 A 
ATOM     25  C   UNL     1       8.700   0.450  11.544  0.00  0.00    +0.124 A 
ATOM     26  C   UNL     1       8.575  -0.741  10.838  0.00  0.00    -0.002 A 
ATOM     27  C   UNL     1       8.341  -0.737   9.483  0.00  0.00    +0.015 A 
ATOM     28  C   UNL     1       8.748  -1.869  11.837  0.00  0.00    +0.080 C 
ATOM     29  C   UNL     1       9.366  -1.132  13.048  0.00  0.00    +0.234 C 
ATOM     30  O   UNL     1       8.904   0.217  12.870  0.00  0.00    -0.491 OA
ENDBRANCH  19  22
ENDBRANCH   1  16
TORSDOF 5
