REMARK  Name = ZINC12463385
REMARK  9 active torsions:
REMARK  status: ('A' for Active; 'I' for Inactive)
REMARK    1  A    between atoms: C_4  and  C_7
REMARK    2  A    between atoms: C_7  and  N_8
REMARK    3  A    between atoms: C_9  and  C_11
REMARK    4  A    between atoms: C_11  and  C_12
REMARK    5  A    between atoms: C_12  and  C_13
REMARK    6  A    between atoms: N_15  and  N_16
REMARK    7  A    between atoms: C_17  and  C_19
REMARK    8  A    between atoms: C_23  and  O_29
REMARK    9  A    between atoms: O_29  and  C_30
REMARK                            x       y       z     vdW  Elec       q    Type
REMARK                         _______ _______ _______ _____ _____    ______ ____
ROOT
ATOM      1  N   UNL     1     -10.100   0.849  -0.594  0.00  0.00    -0.229 N 
ATOM      2  C   UNL     1      -9.503   2.056  -0.537  0.00  0.00    +0.276 C 
ATOM      3  O   UNL     1     -10.175   3.070  -0.583  0.00  0.00    -0.267 OA
ATOM      4  H   UNL     1      -9.565   0.041  -0.557  0.00  0.00    +0.173 HD
ENDROOT
BRANCH   2   5
ATOM      5  C   UNL     1      -8.040   2.148  -0.418  0.00  0.00    +0.104 A 
ATOM      6  C   UNL     1      -7.327   3.303  -0.352  0.00  0.00    +0.041 A 
ATOM      7  C   UNL     1      -5.957   2.958  -0.245  0.00  0.00    +0.004 A 
ATOM      8  C   UNL     1      -4.782   3.713  -0.140  0.00  0.00    +0.056 A 
ATOM      9  C   UNL     1      -3.564   3.072  -0.053  0.00  0.00    +0.129 A 
ATOM     10  C   UNL     1      -3.499   1.680  -0.059  0.00  0.00    +0.048 A 
ATOM     11  C   UNL     1      -4.646   0.925  -0.156  0.00  0.00    +0.030 A 
ATOM     12  C   UNL     1      -5.886   1.552  -0.251  0.00  0.00    +0.047 A 
ATOM     13  N   UNL     1      -7.173   1.075  -0.357  0.00  0.00    -0.351 N 
ATOM     14  H   UNL     1      -7.429   0.140  -0.386  0.00  0.00    +0.166 HD
BRANCH   9  15
ATOM     15  O   UNL     1      -2.421   3.802   0.045  0.00  0.00    -0.456 OA
BRANCH  15  16
ATOM     16  C   UNL     1      -1.236   3.139   0.007  0.00  0.00    +0.128 A 
ATOM     17  C   UNL     1      -0.828   2.512  -1.162  0.00  0.00    +0.046 A 
ATOM     18  C   UNL     1       0.375   1.833  -1.196  0.00  0.00    +0.004 A 
ATOM     19  C   UNL     1       1.177   1.788  -0.071  0.00  0.00    +0.000 A 
ATOM     20  C   UNL     1       0.775   2.417   1.093  0.00  0.00    +0.004 A 
ATOM     21  C   UNL     1      -0.429   3.092   1.135  0.00  0.00    +0.046 A 
ENDBRANCH  15  16
ENDBRANCH   9  15
ENDBRANCH   2   5
BRANCH   1  24
ATOM     22  C   UNL     1     -12.091  -0.445  -0.764  0.00  0.00    +0.230 C 
ATOM     23  O   UNL     1     -11.421  -1.456  -0.718  0.00  0.00    -0.274 OA
ATOM     24  N   UNL     1     -11.494   0.762  -0.706  0.00  0.00    -0.234 N 
ATOM     25  H   UNL     1     -12.029   1.570  -0.743  0.00  0.00    +0.173 HD
BRANCH  22  26
ATOM     26  C   UNL     1     -13.590  -0.540  -0.885  0.00  0.00    +0.106 C 
BRANCH  26  27
ATOM     27  C   UNL     1     -14.006  -2.011  -0.929  0.00  0.00    +0.105 C 
BRANCH  27  29
ATOM     28  N   UNL     1     -16.102  -3.313  -1.108  0.00  0.00    -0.311 N 
ATOM     29  C   UNL     1     -15.505  -2.106  -1.051  0.00  0.00    +0.214 C 
ATOM     30  O   UNL     1     -16.175  -1.095  -1.097  0.00  0.00    -0.276 OA
ATOM     31  H   UNL     1     -15.567  -4.121  -1.071  0.00  0.00    +0.149 HD
BRANCH  28  32
ATOM     32  C   UNL     1     -17.560  -3.404  -1.226  0.00  0.00    +0.139 C 
BRANCH  32  36
ATOM     33  C   UNL     1     -18.723  -7.513  -1.351  0.00  0.00    +0.000 A 
ATOM     34  C   UNL     1     -18.631  -6.857  -0.137  0.00  0.00    +0.000 A 
ATOM     35  C   UNL     1     -18.254  -5.528  -0.097  0.00  0.00    +0.005 A 
ATOM     36  C   UNL     1     -17.970  -4.854  -1.270  0.00  0.00    -0.030 A 
ATOM     37  C   UNL     1     -18.068  -5.508  -2.483  0.00  0.00    +0.005 A 
ATOM     38  C   UNL     1     -18.439  -6.839  -2.524  0.00  0.00    +0.000 A 
ENDBRANCH  32  36
ENDBRANCH  28  32
ENDBRANCH  27  29
ENDBRANCH  26  27
ENDBRANCH  22  26
ENDBRANCH   1  24
TORSDOF 9
