REMARK  Name = ZINC39206320
REMARK  4 active torsions:
REMARK  status: ('A' for Active; 'I' for Inactive)
REMARK    1  A    between atoms: C_13  and  S_15
REMARK    2  A    between atoms: S_15  and  C_16
REMARK    3  A    between atoms: C_16  and  C_17
REMARK    4  A    between atoms: C_23  and  C_26
REMARK                            x       y       z     vdW  Elec       q    Type
REMARK                         _______ _______ _______ _____ _____    ______ ____
ROOT
ATOM      1  C   UNL     1       5.084  -4.623   2.688  0.00  0.00    +0.173 C 
ENDROOT
BRANCH   1   2
ATOM      2  C   UNL     1       5.737  -5.560   3.671  0.00  0.00    +0.229 C 
ATOM      3  O   UNL     1       5.111  -6.492   4.129  0.00  0.00    -0.275 OA
ATOM      4  N   UNL     1       7.018  -5.362   4.041  0.00  0.00    -0.269 N 
ATOM      5  C   UNL     1       7.623  -6.229   4.950  0.00  0.00    +0.143 A 
ATOM      6  C   UNL     1       8.944  -6.016   5.332  0.00  0.00    +0.082 A 
ATOM      7  C   UNL     1       9.531  -6.885   6.236  0.00  0.00    +0.037 A 
ATOM      8  C   UNL     1       8.775  -7.940   6.728  0.00  0.00    +0.074 A 
ATOM      9  C   UNL     1       7.469  -8.091   6.305  0.00  0.00    +0.125 A 
ATOM     10  N   UNL     1       6.934  -7.244   5.446  0.00  0.00    -0.238 NA
ATOM     11 CL   UNL     1       9.843  -4.680   4.684  0.00  0.00    -0.080 Cl
ATOM     12  H   UNL     1       7.519  -4.617   3.674  0.00  0.00    +0.156 HD
BRANCH   8  13
ATOM     13  C   UNL     1       9.372  -8.911   7.714  0.00  0.00    +0.419 C 
ATOM     14  F   UNL     1       9.147  -8.452   9.016  0.00  0.00    -0.166 F 
ATOM     15  F   UNL     1       8.776 -10.166   7.552  0.00  0.00    -0.166 F 
ATOM     16  F   UNL     1      10.749  -9.016   7.488  0.00  0.00    -0.166 F 
ENDBRANCH   8  13
ENDBRANCH   1   2
BRANCH   1  17
ATOM     17  S   UNL     1       3.373  -5.150   2.396  0.00  0.00    -0.075 S 
BRANCH  17  29
ATOM     18  C   UNL     1      -0.016   1.348   0.009  0.00  0.00    +0.001 A 
ATOM     19  C   UNL     1       1.156   2.116   0.002  0.00  0.00    +0.002 A 
ATOM     20  C   UNL     1       2.382   1.544  -0.019  0.00  0.00    +0.026 A 
ATOM     21  C   UNL     1       2.490   0.081  -0.035  0.00  0.00    +0.046 A 
ATOM     22  N   UNL     1       3.530  -0.719  -0.024  0.00  0.00    -0.358 N 
ATOM     23  C   UNL     1       3.070  -2.089  -0.174  0.00  0.00    +0.252 C 
ATOM     24  C   UNL     1       1.561  -2.038  -0.014  0.00  0.00    +0.117 C 
ATOM     25  C   UNL     1       1.230  -0.705  -0.014  0.00  0.00    +0.025 A 
ATOM     26  C   UNL     1       0.002  -0.004   0.002  0.00  0.00    +0.012 A 
ATOM     27  N   UNL     1       0.842  -3.139   0.220  0.00  0.00    -0.147 NA
ATOM     28  N   UNL     1       1.473  -4.102   0.821  0.00  0.00    -0.122 NA
ATOM     29  C   UNL     1       2.755  -3.971   1.242  0.00  0.00    +0.208 C 
ATOM     30  N   UNL     1       3.565  -3.019   0.839  0.00  0.00    -0.227 NA
ATOM     31  H   UNL     1       4.455  -0.441   0.070  0.00  0.00    +0.162 HD
ENDBRANCH  17  29
ENDBRANCH   1  17
TORSDOF 4
