REMARK  Name = ZINC49421233
REMARK  7 active torsions:
REMARK  status: ('A' for Active; 'I' for Inactive)
REMARK    1  A    between atoms: C_1  and  C_2
REMARK    2  A    between atoms: C_2  and  N_3
REMARK    3  A    between atoms: N_6  and  C_9
REMARK    4  A    between atoms: C_9  and  C_10
REMARK    5  A    between atoms: C_10  and  N_11
REMARK    6  A    between atoms: C_12  and  C_14
REMARK    7  A    between atoms: C_29  and  C_32
REMARK                            x       y       z     vdW  Elec       q    Type
REMARK                         _______ _______ _______ _____ _____    ______ ____
ROOT
ATOM      1  C   UNL     1       5.106  -6.567  -5.916  0.00  0.00    +0.092 C 
ATOM      2  C   UNL     1       6.427  -5.811  -6.075  0.00  0.00    +0.016 C 
ATOM      3  C   UNL     1       7.048  -6.146  -7.433  0.00  0.00    +0.020 C 
ATOM      4  C   UNL     1       7.339  -7.648  -7.500  0.00  0.00    +0.108 C 
ATOM      5  N   UNL     1       6.102  -8.383  -7.205  0.00  0.00    -0.300 N 
ATOM      6  C   UNL     1       5.374  -8.074  -5.967  0.00  0.00    +0.120 C 
ATOM      7  C   UNL     1       5.633  -9.342  -8.071  0.00  0.00    +0.199 A 
ATOM      8  N   UNL     1       6.402  -9.684  -9.146  0.00  0.00    -0.294 N 
ATOM      9  H   UNL     1       7.260  -9.255  -9.289  0.00  0.00    +0.172 HD
ATOM     10  C   UNL     1       5.957 -10.626 -10.010  0.00  0.00    +0.267 A 
ATOM     11  O   UNL     1       6.622 -10.952 -10.979  0.00  0.00    -0.267 OA
ATOM     12  C   UNL     1       4.716 -11.215  -9.761  0.00  0.00    +0.103 A 
ATOM     13  C   UNL     1       3.949 -10.843  -8.648  0.00  0.00    +0.094 A 
ATOM     14  N   UNL     1       4.473  -9.892  -7.828  0.00  0.00    -0.215 NA
ATOM     15  C   UNL     1       2.691 -11.567  -8.562  0.00  0.00    +0.015 A 
ATOM     16  C   UNL     1       2.411 -12.482  -9.524  0.00  0.00    +0.056 A 
ATOM     17  S   UNL     1       3.731 -12.448 -10.561  0.00  0.00    -0.089 S 
ENDROOT
BRANCH  15  18
ATOM     18  C   UNL     1       1.741 -11.314  -7.452  0.00  0.00    -0.015 A 
ATOM     19  C   UNL     1       2.190 -11.315  -6.132  0.00  0.00    +0.008 A 
ATOM     20  C   UNL     1       1.301 -11.078  -5.104  0.00  0.00    +0.001 A 
ATOM     21  C   UNL     1      -0.034 -10.840  -5.380  0.00  0.00    +0.000 A 
ATOM     22  C   UNL     1      -0.485 -10.838  -6.688  0.00  0.00    +0.001 A 
ATOM     23  C   UNL     1       0.396 -11.067  -7.725  0.00  0.00    +0.008 A 
ENDBRANCH  15  18
BRANCH   1  25
ATOM     24  N   UNL     1       4.155  -4.931  -4.322  0.00  0.00    -0.314 N 
ATOM     25  C   UNL     1       4.479  -6.211  -4.593  0.00  0.00    +0.218 C 
ATOM     26  O   UNL     1       4.266  -7.077  -3.771  0.00  0.00    -0.275 OA
ATOM     27  H   UNL     1       4.325  -4.239  -4.980  0.00  0.00    +0.149 HD
BRANCH  24  28
ATOM     28  C   UNL     1       3.545  -4.586  -3.035  0.00  0.00    +0.119 C 
BRANCH  28  29
ATOM     29  C   UNL     1       3.279  -3.080  -2.985  0.00  0.00    +0.103 C 
BRANCH  29  33
ATOM     30  N   UNL     1       0.679  -1.534  -0.032  0.00  0.00    +0.381 N 
ATOM     31  C   UNL     1       2.028  -0.960  -0.134  0.00  0.00    -0.063 C 
ATOM     32  C   UNL     1       2.615  -1.277  -1.511  0.00  0.00    +0.066 C 
ATOM     33  N   UNL     1       2.668  -2.734  -1.695  0.00  0.00    -0.304 NA
ATOM     34  C   UNL     1       1.328  -3.325  -1.571  0.00  0.00    +0.066 C 
ATOM     35  C   UNL     1       0.752  -2.992  -0.193  0.00  0.00    -0.063 C 
ATOM     36  H   UNL     1       0.094  -1.144  -0.756  0.00  0.00    -0.082 HD
BRANCH  30  38
ATOM     37  C   UNL     1      -0.082   0.299   1.402  0.00  0.00    -0.017 C 
ATOM     38  C   UNL     1       0.110  -1.214   1.283  0.00  0.00    -0.082 C 
ENDBRANCH  30  38
ENDBRANCH  29  33
ENDBRANCH  28  29
ENDBRANCH  24  28
ENDBRANCH   1  25
TORSDOF 6
