REMARK  Name = ZINC14067122
REMARK  8 active torsions:
REMARK  status: ('A' for Active; 'I' for Inactive)
REMARK    1  A    between atoms: C_1  and  C_2
REMARK    2  A    between atoms: C_2  and  C_3
REMARK    3  A    between atoms: C_3  and  C_31
REMARK    4  A    between atoms: N_6  and  N_10
REMARK    5  A    between atoms: C_11  and  C_13
REMARK    6  A    between atoms: C_13  and  S_14
REMARK    7  A    between atoms: S_14  and  C_15
REMARK    8  A    between atoms: C_19  and  C_21
REMARK                            x       y       z     vdW  Elec       q    Type
REMARK                         _______ _______ _______ _____ _____    ______ ____
ROOT
ATOM      1  S   UNL     1      -5.880   0.086   5.907  0.00  0.00    -0.095 S 
ENDROOT
BRANCH   1   2
ATOM      2  C   UNL     1      -7.194  -1.023   6.292  0.00  0.00    +0.115 A 
ATOM      3  C   UNL     1      -8.075  -0.750   7.324  0.00  0.00    +0.070 A 
ATOM      4  C   UNL     1      -9.131  -1.635   7.636  0.00  0.00    +0.083 A 
ATOM      5  C   UNL     1      -9.952  -1.243   8.703  0.00  0.00    +0.044 A 
ATOM      6  C   UNL     1      -9.703  -0.077   9.358  0.00  0.00    +0.022 A 
ATOM      7  S   UNL     1      -8.270   0.559   8.504  0.00  0.00    -0.084 S 
ATOM      8  N   UNL     1      -9.210  -2.748   6.862  0.00  0.00    -0.235 NA
ATOM      9  C   UNL     1      -8.357  -2.968   5.897  0.00  0.00    +0.223 A 
ATOM     10  N   UNL     1      -7.369  -2.145   5.591  0.00  0.00    -0.228 NA
BRANCH   6  11
ATOM     11  C   UNL     1     -10.436   0.516  10.497  0.00  0.00    -0.011 A 
ATOM     12  C   UNL     1     -11.548  -0.137  11.031  0.00  0.00    +0.012 A 
ATOM     13  C   UNL     1     -12.225   0.417  12.097  0.00  0.00    +0.039 A 
ATOM     14  C   UNL     1     -11.810   1.627  12.630  0.00  0.00    +0.123 A 
ATOM     15  C   UNL     1     -10.710   2.283  12.101  0.00  0.00    +0.039 A 
ATOM     16  C   UNL     1     -10.022   1.734  11.039  0.00  0.00    +0.012 A 
ATOM     17  F   UNL     1     -12.480   2.169  13.671  0.00  0.00    -0.205 F 
ENDBRANCH   6  11
ENDBRANCH   1   2
BRANCH   1  18
ATOM     18  C   UNL     1      -5.118  -0.796   4.523  0.00  0.00    +0.173 C 
BRANCH  18  20
ATOM     19  N   UNL     1      -3.211  -0.478   2.981  0.00  0.00    -0.223 N 
ATOM     20  C   UNL     1      -3.936  -0.011   4.016  0.00  0.00    +0.240 C 
ATOM     21  O   UNL     1      -3.638   1.042   4.539  0.00  0.00    -0.273 OA
ATOM     22  H   UNL     1      -3.449  -1.320   2.562  0.00  0.00    +0.174 HD
BRANCH  19  26
ATOM     23  C   UNL     1      -0.729   1.579   1.267  0.00  0.00    +0.111 C 
ATOM     24  C   UNL     1      -2.112   0.968   1.368  0.00  0.00    +0.263 C 
ATOM     25  O   UNL     1      -3.029   1.097   0.585  0.00  0.00    -0.271 OA
ATOM     26  N   UNL     1      -2.112   0.252   2.509  0.00  0.00    -0.137 N 
ATOM     27  C   UNL     1      -0.933   0.325   3.137  0.00  0.00    +0.326 C 
ATOM     28  O   UNL     1      -0.690  -0.237   4.187  0.00  0.00    -0.251 OA
ATOM     29  N   UNL     1      -0.045   1.091   2.477  0.00  0.00    -0.284 N 
ATOM     30  C   UNL     1      -0.013   1.086   0.008  0.00  0.00    +0.041 C 
ATOM     31  H   UNL     1       0.866   1.284   2.746  0.00  0.00    +0.151 HD
BRANCH  23  33
ATOM     32  C   UNL     1       0.603   3.693   1.227  0.00  0.00    +0.006 C 
ATOM     33  C   UNL     1      -0.810   3.107   1.274  0.00  0.00    +0.032 C 
ENDBRANCH  23  33
ENDBRANCH  19  26
ENDBRANCH  18  20
ENDBRANCH   1  18
TORSDOF 6
