REMARK  Name = ZINC00717328
REMARK  6 active torsions:
REMARK  status: ('A' for Active; 'I' for Inactive)
REMARK    1  A    between atoms: C_4  and  C_7
REMARK    2  A    between atoms: C_8  and  C_26
REMARK    3  A    between atoms: C_10  and  S_13
REMARK    4  A    between atoms: S_13  and  C_14
REMARK    5  A    between atoms: C_14  and  C_15
REMARK    6  A    between atoms: C_17  and  C_20
REMARK                            x       y       z     vdW  Elec       q    Type
REMARK                         _______ _______ _______ _____ _____    ______ ____
ROOT
ATOM      1  C   UNL     1       1.323  -0.406  -0.013  0.00  0.00    +0.075 A 
ATOM      2  C   UNL     1       0.002  -0.004   0.002  0.00  0.00    +0.098 A 
ATOM      3  N   UNL     1      -0.016   1.343   0.009  0.00  0.00    -0.221 NA
ATOM      4  C   UNL     1       1.214   1.800   0.000  0.00  0.00    +0.168 A 
ATOM      5  N   UNL     1       2.082   0.750  -0.014  0.00  0.00    -0.332 N 
ATOM      6  H   UNL     1       3.080   0.806  -0.023  0.00  0.00    +0.168 HD
ENDROOT
BRANCH   1  10
ATOM      7  C   UNL     1       2.769  -4.397  -0.050  0.00  0.00    +0.000 A 
ATOM      8  C   UNL     1       3.325  -3.455  -0.899  0.00  0.00    +0.001 A 
ATOM      9  C   UNL     1       2.860  -2.157  -0.892  0.00  0.00    +0.010 A 
ATOM     10  C   UNL     1       1.826  -1.793  -0.026  0.00  0.00    +0.000 A 
ATOM     11  C   UNL     1       1.274  -2.748   0.832  0.00  0.00    +0.010 A 
ATOM     12  C   UNL     1       1.744  -4.044   0.810  0.00  0.00    +0.001 A 
ENDBRANCH   1  10
BRANCH   2  13
ATOM     13  C   UNL     1      -1.182  -0.894   0.009  0.00  0.00    +0.002 A 
ATOM     14  C   UNL     1      -1.157  -2.099  -0.694  0.00  0.00    +0.010 A 
ATOM     15  C   UNL     1      -2.261  -2.925  -0.680  0.00  0.00    +0.001 A 
ATOM     16  C   UNL     1      -3.396  -2.557   0.021  0.00  0.00    +0.000 A 
ATOM     17  C   UNL     1      -3.429  -1.361   0.716  0.00  0.00    +0.001 A 
ATOM     18  C   UNL     1      -2.329  -0.528   0.714  0.00  0.00    +0.010 A 
ENDBRANCH   2  13
BRANCH   4  19
ATOM     19  S   UNL     1       1.671   3.502   0.005  0.00  0.00    -0.078 S 
BRANCH  19  20
ATOM     20  C   UNL     1       0.030   4.267   0.025  0.00  0.00    +0.176 C 
BRANCH  20  21
ATOM     21  C   UNL     1       0.176   5.767   0.032  0.00  0.00    +0.238 A 
ATOM     22  N   UNL     1       0.246   6.547  -1.018  0.00  0.00    -0.191 NA
ATOM     23  C   UNL     1       0.368   7.802  -0.531  0.00  0.00    +0.202 A 
ATOM     24  N   UNL     1       0.373   7.712   0.774  0.00  0.00    -0.056 NA
ATOM     25  O   UNL     1       0.264   6.552   1.111  0.00  0.00    -0.337 OA
BRANCH  23  26
ATOM     26  C   UNL     1       0.481   9.050  -1.328  0.00  0.00    +0.022 A 
ATOM     27  C   UNL     1       0.467   8.993  -2.720  0.00  0.00    +0.012 A 
ATOM     28  C   UNL     1       0.566  10.157  -3.456  0.00  0.00    +0.001 A 
ATOM     29  C   UNL     1       0.692  11.376  -2.814  0.00  0.00    +0.000 A 
ATOM     30  C   UNL     1       0.713  11.436  -1.432  0.00  0.00    +0.001 A 
ATOM     31  C   UNL     1       0.608  10.280  -0.686  0.00  0.00    +0.012 A 
ENDBRANCH  23  26
ENDBRANCH  20  21
ENDBRANCH  19  20
ENDBRANCH   4  19
TORSDOF 6
