REMARK  Name = ZINC39677209
REMARK  8 active torsions:
REMARK  status: ('A' for Active; 'I' for Inactive)
REMARK    1  A    between atoms: C_1  and  C_2
REMARK    2  A    between atoms: C_6  and  C_7
REMARK    3  A    between atoms: C_7  and  N_8
REMARK    4  A    between atoms: C_9  and  C_11
REMARK    5  A    between atoms: C_22  and  C_24
REMARK    6  A    between atoms: C_24  and  C_26
REMARK    7  A    between atoms: C_24  and  O_27
REMARK    8  A    between atoms: O_27  and  C_28
REMARK                            x       y       z     vdW  Elec       q    Type
REMARK                         _______ _______ _______ _____ _____    ______ ____
ROOT
ATOM      1  C   UNL     1      -2.651   0.674   5.602  0.00  0.00    +0.100 C 
ATOM      2  C   UNL     1      -3.365  -0.615   5.138  0.00  0.00    +0.121 C 
ATOM      3  N   UNL     1      -3.599  -1.383   6.383  0.00  0.00    -0.297 N 
ATOM      4  C   UNL     1      -3.977  -0.356   7.384  0.00  0.00    +0.115 C 
ATOM      5  C   UNL     1      -3.058   0.843   7.075  0.00  0.00    -0.004 C 
ATOM      6  C   UNL     1      -3.816   2.153   7.267  0.00  0.00    -0.010 C 
ATOM      7  C   UNL     1      -4.160   2.326   8.750  0.00  0.00    -0.082 C 
ATOM      8  N   UNL     1      -2.924   2.331   9.543  0.00  0.00    +0.379 N 
ATOM      9  C   UNL     1      -2.249   1.034   9.426  0.00  0.00    -0.082 C 
ATOM     10  C   UNL     1      -1.825   0.806   7.972  0.00  0.00    -0.010 C 
ATOM     11  C   UNL     1      -3.492  -2.714   6.566  0.00  0.00    +0.256 C 
ATOM     12  O   UNL     1      -3.718  -3.197   7.655  0.00  0.00    -0.272 OA
ATOM     13  H   UNL     1      -2.312   3.059   9.205  0.00  0.00    -0.086 HD
ATOM     14  H   UNL     1      -3.148   2.507  10.511  0.00  0.00    -0.086 HD
ENDROOT
BRANCH   1  16
ATOM     15  N   UNL     1      -0.380   1.599   5.275  0.00  0.00    -0.310 N 
ATOM     16  C   UNL     1      -1.156   0.517   5.486  0.00  0.00    +0.218 C 
ATOM     17  O   UNL     1      -0.653  -0.582   5.581  0.00  0.00    -0.275 OA
ATOM     18  H   UNL     1      -0.782   2.478   5.199  0.00  0.00    +0.149 HD
BRANCH  15  19
ATOM     19  C   UNL     1       1.073   1.446   5.162  0.00  0.00    +0.147 C 
BRANCH  19  25
ATOM     20  C   UNL     1       2.062   3.402   7.315  0.00  0.00    +0.044 C 
ATOM     21  C   UNL     1       2.155   3.694   5.839  0.00  0.00    -0.039 A 
ATOM     22  C   UNL     1       2.708   4.879   5.392  0.00  0.00    +0.011 A 
ATOM     23  C   UNL     1       2.778   5.110   4.058  0.00  0.00    +0.046 A 
ATOM     24  S   UNL     1       2.046   3.626   3.388  0.00  0.00    -0.100 S 
ATOM     25  C   UNL     1       1.703   2.796   4.930  0.00  0.00    +0.010 A 
ENDBRANCH  19  25
ENDBRANCH  15  19
ENDBRANCH   1  16
BRANCH  11  26
ATOM     26  C   UNL     1      -3.090  -3.602   5.416  0.00  0.00    +0.256 C 
ATOM     27  C   UNL     1      -4.174  -3.560   4.337  0.00  0.00    +0.062 C 
BRANCH  26  28
ATOM     28  O   UNL     1      -2.934  -4.944   5.883  0.00  0.00    -0.480 OA
BRANCH  28  29
ATOM     29  C   UNL     1      -2.105  -5.752   5.172  0.00  0.00    +0.122 A 
ATOM     30  C   UNL     1      -1.539  -5.298   3.989  0.00  0.00    +0.045 A 
ATOM     31  C   UNL     1      -0.696  -6.121   3.268  0.00  0.00    +0.004 A 
ATOM     32  C   UNL     1      -0.417  -7.396   3.724  0.00  0.00    +0.000 A 
ATOM     33  C   UNL     1      -0.980  -7.851   4.902  0.00  0.00    +0.004 A 
ATOM     34  C   UNL     1      -1.819  -7.029   5.630  0.00  0.00    +0.045 A 
ENDBRANCH  28  29
ENDBRANCH  26  28
ENDBRANCH  11  26
TORSDOF 6
