REMARK  Name = ZINC22207443
REMARK  6 active torsions:
REMARK  status: ('A' for Active; 'I' for Inactive)
REMARK    1  A    between atoms: C_1  and  C_2
REMARK    2  A    between atoms: C_8  and  N_10
REMARK    3  A    between atoms: C_11  and  C_13
REMARK    4  A    between atoms: C_13  and  N_14
REMARK    5  A    between atoms: C_17  and  C_21
REMARK    6  A    between atoms: C_17  and  C_22
REMARK                            x       y       z     vdW  Elec       q    Type
REMARK                         _______ _______ _______ _____ _____    ______ ____
ROOT
ATOM      1  N   UNL     1      -0.721   1.571  -1.179  0.00  0.00    -0.215 N 
ATOM      2  C   UNL     1      -0.456   2.741  -1.793  0.00  0.00    +0.251 C 
ATOM      3  O   UNL     1       0.381   3.560  -1.479  0.00  0.00    -0.272 OA
ATOM      4  C   UNL     1      -1.423   2.820  -2.958  0.00  0.00    +0.135 C 
ATOM      5  N   UNL     1      -2.193   1.569  -2.855  0.00  0.00    -0.281 N 
ATOM      6  C   UNL     1      -1.708   0.905  -1.790  0.00  0.00    +0.310 C 
ATOM      7  O   UNL     1      -2.121  -0.177  -1.422  0.00  0.00    -0.252 OA
ATOM      8  C   UNL     1      -0.664   2.878  -4.285  0.00  0.00    +0.047 C 
ATOM      9  H   UNL     1      -2.988   1.350  -3.583  0.00  0.00    +0.152 HD
ENDROOT
BRANCH   4  10
ATOM     10  C   UNL     1      -2.328   4.017  -2.815  0.00  0.00    -0.012 A 
ATOM     11  C   UNL     1      -1.877   5.150  -2.165  0.00  0.00    +0.010 A 
ATOM     12  C   UNL     1      -2.704   6.249  -2.031  0.00  0.00    +0.050 A 
ATOM     13  C   UNL     1      -3.990   6.217  -2.548  0.00  0.00    +0.162 A 
ATOM     14  C   UNL     1      -4.444   5.079  -3.204  0.00  0.00    +0.162 A 
ATOM     15  C   UNL     1      -3.607   3.981  -3.339  0.00  0.00    +0.055 A 
ATOM     16  O   UNL     1      -5.701   5.028  -3.723  0.00  0.00    -0.485 OA
ATOM     17  C   UNL     1      -6.634   6.002  -3.244  0.00  0.00    +0.270 C 
ATOM     18  C   UNL     1      -5.945   7.373  -3.254  0.00  0.00    +0.270 C 
ATOM     19  O   UNL     1      -4.796   7.304  -2.402  0.00  0.00    -0.485 OA
ENDBRANCH   4  10
BRANCH   1  20
ATOM     20  C   UNL     1      -0.013   1.086   0.008  0.00  0.00    +0.213 C 
BRANCH  20  22
ATOM     21  N   UNL     1      -0.242   1.246   2.466  0.00  0.00    -0.311 N 
ATOM     22  C   UNL     1      -0.718   1.572   1.248  0.00  0.00    +0.231 C 
ATOM     23  O   UNL     1      -1.714   2.256   1.150  0.00  0.00    -0.274 OA
ATOM     24  H   UNL     1       0.662   0.625   2.555  0.00  0.00    +0.149 HD
BRANCH  21  31
ATOM     25  C   UNL     1       1.204   2.739   4.484  0.00  0.00    +0.009 C 
ATOM     26  C   UNL     1       0.066   1.777   4.833  0.00  0.00    +0.006 C 
ATOM     27  C   UNL     1       0.638   0.381   5.086  0.00  0.00    +0.005 C 
ATOM     28  C   UNL     1      -0.499  -0.581   5.436  0.00  0.00    +0.000 C 
ATOM     29  C   UNL     1      -1.493  -0.639   4.274  0.00  0.00    +0.002 C 
ATOM     30  C   UNL     1      -2.065   0.757   4.021  0.00  0.00    +0.022 C 
ATOM     31  C   UNL     1      -0.927   1.718   3.671  0.00  0.00    +0.076 C 
ENDBRANCH  21  31
ENDBRANCH  20  22
ENDBRANCH   1  20
TORSDOF 4
