REMARK  Name = ZINC35491002
REMARK  7 active torsions:
REMARK  status: ('A' for Active; 'I' for Inactive)
REMARK    1  A    between atoms: C_1  and  C_2
REMARK    2  A    between atoms: C_2  and  C_3
REMARK    3  A    between atoms: C_9  and  C_25
REMARK    4  A    between atoms: C_16  and  C_24
REMARK    5  A    between atoms: C_28  and  O_31
REMARK    6  A    between atoms: O_31  and  C_32
REMARK    7  A    between atoms: C_32  and  C_33
REMARK                            x       y       z     vdW  Elec       q    Type
REMARK                         _______ _______ _______ _____ _____    ______ ____
ROOT
ATOM      1  C   UNL     1       0.707  -0.490  -1.238  0.00  0.00    +0.103 A 
ATOM      2  N   UNL     1       1.983  -0.760  -1.437  0.00  0.00    -0.145 NA
ATOM      3  N   UNL     1       2.418  -1.164  -2.549  0.00  0.00    -0.125 NA
ATOM      4  C   UNL     1       1.617  -1.343  -3.591  0.00  0.00    +0.191 A 
ATOM      5  S   UNL     1       0.051  -0.874  -2.859  0.00  0.00    -0.035 S 
ATOM      6  N   UNL     1       1.908  -1.775  -4.878  0.00  0.00    -0.230 N 
ATOM      7  C   UNL     1       3.238  -2.152  -5.384  0.00  0.00    +0.151 C 
ATOM      8  C   UNL     1       3.036  -2.539  -6.812  0.00  0.00    +0.072 A 
ATOM      9  C   UNL     1       3.984  -2.993  -7.834  0.00  0.00    +0.199 A 
ATOM     10  O   UNL     1       5.139  -3.294  -7.586  0.00  0.00    -0.287 OA
ATOM     11  C   UNL     1       3.404  -3.053  -9.199  0.00  0.00    +0.065 A 
ATOM     12  C   UNL     1       4.223  -3.272 -10.306  0.00  0.00    +0.018 A 
ATOM     13  C   UNL     1       3.675  -3.319 -11.557  0.00  0.00    -0.050 A 
ATOM     14  C   UNL     1       2.308  -3.148 -11.727  0.00  0.00    +0.007 A 
ATOM     15  C   UNL     1       1.484  -2.932 -10.646  0.00  0.00    +0.047 A 
ATOM     16  C   UNL     1       2.019  -2.883  -9.358  0.00  0.00    +0.139 A 
ATOM     17  O   UNL     1       1.190  -2.679  -8.309  0.00  0.00    -0.450 OA
ATOM     18  C   UNL     1       1.706  -2.401  -7.096  0.00  0.00    +0.199 A 
ATOM     19  C   UNL     1       1.021  -1.928  -5.882  0.00  0.00    +0.289 C 
ATOM     20  O   UNL     1      -0.171  -1.706  -5.797  0.00  0.00    -0.266 OA
ATOM     21  C   UNL     1       4.557  -3.556 -12.756  0.00  0.00    +0.044 C 
ENDROOT
BRANCH   7  22
ATOM     22  C   UNL     1       3.781  -3.318  -4.599  0.00  0.00    -0.022 A 
ATOM     23  C   UNL     1       2.936  -4.339  -4.205  0.00  0.00    +0.009 A 
ATOM     24  C   UNL     1       3.431  -5.409  -3.486  0.00  0.00    +0.046 A 
ATOM     25  C   UNL     1       4.778  -5.459  -3.159  0.00  0.00    +0.121 A 
ATOM     26  C   UNL     1       5.625  -4.434  -3.555  0.00  0.00    +0.046 A 
ATOM     27  C   UNL     1       5.126  -3.369  -4.279  0.00  0.00    +0.009 A 
BRANCH  25  28
ATOM     28  O   UNL     1       5.268  -6.511  -2.450  0.00  0.00    -0.483 OA
BRANCH  28  29
ATOM     29  C   UNL     1       6.665  -6.496  -2.149  0.00  0.00    +0.324 C 
BRANCH  29  30
ATOM     30  C   UNL     1       7.022  -7.732  -1.365  0.00  0.00    +0.248 C 
ATOM     31  O   UNL     1       6.166  -8.546  -1.091  0.00  0.00    -0.272 OA
ATOM     32  N   UNL     1       8.295  -7.934  -0.968  0.00  0.00    -0.327 N 
ATOM     33  H   UNL     1       8.980  -7.283  -1.188  0.00  0.00    +0.145 HD
ATOM     34  H   UNL     1       8.525  -8.729  -0.464  0.00  0.00    +0.145 HD
ENDBRANCH  29  30
ENDBRANCH  28  29
ENDBRANCH  25  28
ENDBRANCH   7  22
BRANCH   1  36
ATOM     35  C   UNL     1      -0.019   1.526   0.010  0.00  0.00    +0.011 C 
ATOM     36  C   UNL     1       0.002  -0.004   0.002  0.00  0.00    +0.061 C 
ENDBRANCH   1  36
TORSDOF 5
