REMARK  Name = ZINC05210573
REMARK  7 active torsions:
REMARK  status: ('A' for Active; 'I' for Inactive)
REMARK    1  A    between atoms: C_1  and  C_2
REMARK    2  A    between atoms: C_5  and  C_8
REMARK    3  A    between atoms: C_11  and  S_13
REMARK    4  A    between atoms: S_13  and  C_14
REMARK    5  A    between atoms: C_14  and  C_15
REMARK    6  A    between atoms: C_27  and  C_28
REMARK    7  A    between atoms: C_27  and  C_29
REMARK                            x       y       z     vdW  Elec       q    Type
REMARK                         _______ _______ _______ _____ _____    ______ ____
ROOT
ATOM      1  C   UNL     1       2.768  -0.029   0.811  0.00  0.00    +0.231 C 
ATOM      2  O   UNL     1       3.707  -0.695   0.430  0.00  0.00    -0.274 OA
ATOM      3  N   UNL     1       2.647   1.254   0.415  0.00  0.00    -0.255 N 
ATOM      4  C   UNL     1       1.507   2.006   0.736  0.00  0.00    +0.059 A 
ATOM      5  C   UNL     1       0.275   1.401   0.904  0.00  0.00    +0.025 A 
ATOM      6  C   UNL     1      -0.833   2.171   1.209  0.00  0.00    +0.002 A 
ATOM      7  C   UNL     1      -0.708   3.540   1.357  0.00  0.00    +0.002 A 
ATOM      8  C   UNL     1       0.521   4.152   1.192  0.00  0.00    +0.025 A 
ATOM      9  C   UNL     1       1.635   3.389   0.882  0.00  0.00    +0.055 A 
ATOM     10  N   UNL     1       2.889   3.987   0.718  0.00  0.00    -0.282 N 
ATOM     11  C   UNL     1       3.906   3.309   0.151  0.00  0.00    +0.241 C 
ATOM     12  O   UNL     1       4.996   3.833   0.059  0.00  0.00    -0.273 OA
ATOM     13  C   UNL     1       3.705   1.909  -0.369  0.00  0.00    +0.113 C 
ATOM     14  C   UNL     1       5.008   1.120  -0.230  0.00  0.00    +0.042 C 
ATOM     15  C   UNL     1       3.293   1.962  -1.841  0.00  0.00    +0.042 C 
ATOM     16  H   UNL     1       3.028   4.900   1.015  0.00  0.00    +0.155 HD
ENDROOT
BRANCH   1  17
ATOM     17  C   UNL     1       1.737  -0.635   1.728  0.00  0.00    +0.175 C 
BRANCH  17  18
ATOM     18  S   UNL     1       2.440  -2.085   2.551  0.00  0.00    -0.056 S 
BRANCH  18  22
ATOM     19  C   UNL     1      -0.224  -3.635   4.908  0.00  0.00    +0.249 A 
ATOM     20  N   UNL     1      -0.875  -2.618   4.399  0.00  0.00    -0.106 NA
ATOM     21  N   UNL     1      -0.108  -1.984   3.583  0.00  0.00    -0.101 NA
ATOM     22  C   UNL     1       1.062  -2.579   3.531  0.00  0.00    +0.278 A 
ATOM     23  O   UNL     1       1.016  -3.632   4.369  0.00  0.00    -0.411 OA
BRANCH  19  28
ATOM     24  C   UNL     1      -2.269  -7.421   8.728  0.00  0.00    +0.044 C 
ATOM     25  C   UNL     1      -1.733  -6.429   7.728  0.00  0.00    -0.050 A 
ATOM     26  C   UNL     1      -2.540  -5.399   7.279  0.00  0.00    +0.004 A 
ATOM     27  C   UNL     1      -2.057  -4.488   6.363  0.00  0.00    +0.013 A 
ATOM     28  C   UNL     1      -0.749  -4.607   5.889  0.00  0.00    +0.039 A 
ATOM     29  C   UNL     1       0.059  -5.651   6.343  0.00  0.00    +0.013 A 
ATOM     30  C   UNL     1      -0.435  -6.552   7.263  0.00  0.00    +0.004 A 
ENDBRANCH  19  28
ENDBRANCH  18  22
ENDBRANCH  17  18
ENDBRANCH   1  17
TORSDOF 4
