REMARK  Name = ZINC36559606
REMARK  13 active torsions:
REMARK  status: ('A' for Active; 'I' for Inactive)
REMARK    1  A    between atoms: C_1  and  C_2
REMARK    2  A    between atoms: C_2  and  C_3
REMARK    3  A    between atoms: C_3  and  N_4
REMARK    4  A    between atoms: N_4  and  C_5
REMARK    5  A    between atoms: C_5  and  C_7
REMARK    6  A    between atoms: C_5  and  C_16
REMARK    7  A    between atoms: C_8  and  O_15
REMARK    8  A    between atoms: C_10  and  O_14
REMARK    9  A    between atoms: C_12  and  O_13
REMARK   10  A    between atoms: N_18  and  C_19
REMARK   11  A    between atoms: C_25  and  C_27
REMARK   12  A    between atoms: C_27  and  C_35
REMARK   13  A    between atoms: C_28  and  C_29
REMARK                            x       y       z     vdW  Elec       q    Type
REMARK                         _______ _______ _______ _____ _____    ______ ____
ROOT
ATOM      1  C   UNL     1      -2.063  -1.340  -0.461  0.00  0.00    +0.199 C 
ENDROOT
BRANCH   1   2
ATOM      2  C   UNL     1      -3.504  -1.488  -0.877  0.00  0.00    +0.065 A 
ATOM      3  C   UNL     1      -4.081  -0.553  -1.724  0.00  0.00    +0.129 A 
ATOM      4  C   UNL     1      -5.407  -0.690  -2.108  0.00  0.00    +0.091 A 
ATOM      5  C   UNL     1      -6.155  -1.762  -1.645  0.00  0.00    +0.124 A 
ATOM      6  C   UNL     1      -5.578  -2.697  -0.799  0.00  0.00    +0.091 A 
ATOM      7  C   UNL     1      -4.251  -2.563  -0.419  0.00  0.00    +0.129 A 
BRANCH   7   8
ATOM      8  O   UNL     1      -3.684  -3.482   0.406  0.00  0.00    -0.506 OA
ATOM      9  H   UNL     1      -3.772  -3.274   1.346  0.00  0.00    +0.292 HD
ENDBRANCH   7   8
BRANCH   5  10
ATOM     10  O   UNL     1      -7.454  -1.896  -2.020  0.00  0.00    -0.507 OA
ATOM     11  H   UNL     1      -7.579  -2.412  -2.829  0.00  0.00    +0.292 HD
ENDBRANCH   5  10
BRANCH   3  12
ATOM     12  O   UNL     1      -3.347   0.497  -2.177  0.00  0.00    -0.506 OA
ATOM     13  H   UNL     1      -2.949   0.352  -3.046  0.00  0.00    +0.292 HD
ENDBRANCH   3  12
ENDBRANCH   1   2
BRANCH   1  14
ATOM     14  C   UNL     1      -1.952  -0.258   0.583  0.00  0.00    +0.239 C 
ATOM     15  O   UNL     1      -1.307   0.743   0.352  0.00  0.00    -0.273 OA
ATOM     16  N   UNL     1      -2.568  -0.403   1.772  0.00  0.00    -0.311 N 
ATOM     17  H   UNL     1      -3.083  -1.203   1.957  0.00  0.00    +0.149 HD
BRANCH  16  18
ATOM     18  C   UNL     1      -2.459   0.649   2.787  0.00  0.00    +0.073 C 
ATOM     19  C   UNL     1      -1.174   0.449   3.593  0.00  0.00    +0.022 C 
ATOM     20  C   UNL     1      -1.061   1.547   4.652  0.00  0.00    +0.002 C 
ATOM     21  C   UNL     1      -2.268   1.478   5.590  0.00  0.00    +0.000 C 
ATOM     22  C   UNL     1      -3.552   1.678   4.784  0.00  0.00    +0.002 C 
ATOM     23  C   UNL     1      -3.666   0.580   3.724  0.00  0.00    +0.022 C 
ENDBRANCH  16  18
ENDBRANCH   1  14
BRANCH   1  24
ATOM     24  N   UNL     1      -1.252  -0.980  -1.626  0.00  0.00    -0.282 N 
ATOM     25  C   UNL     1      -0.905  -1.924  -2.523  0.00  0.00    +0.248 C 
ATOM     26  O   UNL     1      -1.359  -3.048  -2.429  0.00  0.00    -0.270 OA
BRANCH  25  27
ATOM     27  C   UNL     1       0.023  -1.594  -3.616  0.00  0.00    +0.045 C 
ATOM     28  C   UNL     1       1.361  -1.532  -3.377  0.00  0.00    +0.021 C 
BRANCH  28  29
ATOM     29  C   UNL     1       1.898  -1.987  -2.088  0.00  0.00    -0.024 A 
ATOM     30  C   UNL     1       1.268  -3.022  -1.388  0.00  0.00    +0.008 A 
ATOM     31  C   UNL     1       1.779  -3.442  -0.179  0.00  0.00    +0.001 A 
ATOM     32  C   UNL     1       2.913  -2.844   0.343  0.00  0.00    +0.000 A 
ATOM     33  C   UNL     1       3.542  -1.820  -0.342  0.00  0.00    +0.001 A 
ATOM     34  C   UNL     1       3.047  -1.391  -1.555  0.00  0.00    +0.008 A 
ENDBRANCH  28  29
BRANCH  27  35
ATOM     35  C   UNL     1      -0.499  -1.330  -4.977  0.00  0.00    -0.013 A 
ATOM     36  C   UNL     1      -1.248  -0.180  -5.229  0.00  0.00    +0.008 A 
ATOM     37  C   UNL     1      -1.731   0.060  -6.498  0.00  0.00    +0.001 A 
ATOM     38  C   UNL     1      -1.475  -0.836  -7.521  0.00  0.00    +0.000 A 
ATOM     39  C   UNL     1      -0.733  -1.978  -7.277  0.00  0.00    +0.001 A 
ATOM     40  C   UNL     1      -0.239  -2.227  -6.013  0.00  0.00    +0.008 A 
ENDBRANCH  27  35
ENDBRANCH  25  27
BRANCH  24  41
ATOM     41  C   UNL     1      -0.819   0.407  -1.817  0.00  0.00    +0.109 C 
BRANCH  41  43
ATOM     42  C   UNL     1       0.924   2.091  -1.211  0.00  0.00    +0.005 C 
ATOM     43  C   UNL     1       0.546   0.610  -1.155  0.00  0.00    +0.016 C 
ENDBRANCH  41  43
ENDBRANCH  24  41
ENDBRANCH   1  24
TORSDOF 12
