REMARK  Name = ZINC44237351
REMARK  6 active torsions:
REMARK  status: ('A' for Active; 'I' for Inactive)
REMARK    1  A    between atoms: C_1  and  N_2
REMARK    2  A    between atoms: N_2  and  C_3
REMARK    3  A    between atoms: N_2  and  C_4
REMARK    4  A    between atoms: C_8  and  O_10
REMARK    5  A    between atoms: O_10  and  C_11
REMARK    6  A    between atoms: C_20  and  O_22
REMARK                            x       y       z     vdW  Elec       q    Type
REMARK                         _______ _______ _______ _____ _____    ______ ____
ROOT
ATOM      1  C   UNL     1       0.076  -0.775  -5.986  0.00  0.00    +0.211 C 
ATOM      2  C   UNL     1      -1.312  -1.001  -6.622  0.00  0.00    +0.083 C 
ATOM      3  C   UNL     1      -1.492   0.144  -7.596  0.00  0.00    -0.038 A 
ATOM      4  C   UNL     1      -2.636   0.634  -8.203  0.00  0.00    +0.004 A 
ATOM      5  C   UNL     1      -2.558   1.706  -9.070  0.00  0.00    +0.000 A 
ATOM      6  C   UNL     1      -1.335   2.291  -9.335  0.00  0.00    +0.000 A 
ATOM      7  C   UNL     1      -0.192   1.804  -8.731  0.00  0.00    +0.006 A 
ATOM      8  C   UNL     1      -0.268   0.729  -7.860  0.00  0.00    -0.012 A 
ATOM      9  C   UNL     1       0.823   0.016  -7.081  0.00  0.00    +0.186 C 
ENDROOT
BRANCH   9  10
ATOM     10  O   UNL     1       1.714   0.963  -6.488  0.00  0.00    -0.383 OA
ATOM     11  H   UNL     1       2.211   1.490  -7.128  0.00  0.00    +0.210 HD
ENDBRANCH   9  10
BRANCH   1  12
ATOM     12  O   UNL     1      -0.033  -0.005  -4.787  0.00  0.00    -0.486 OA
BRANCH  12  17
ATOM     13  C   UNL     1      -0.536  -2.764  -2.463  0.00  0.00    +0.033 A 
ATOM     14  C   UNL     1      -0.533  -2.081  -1.252  0.00  0.00    +0.023 A 
ATOM     15  C   UNL     1      -0.364  -0.710  -1.232  0.00  0.00    +0.005 A 
ATOM     16  C   UNL     1      -0.197  -0.014  -2.414  0.00  0.00    +0.046 A 
ATOM     17  C   UNL     1      -0.198  -0.691  -3.626  0.00  0.00    +0.123 A 
ATOM     18  C   UNL     1      -0.363  -2.067  -3.651  0.00  0.00    +0.068 A 
BRANCH  13  20
ATOM     19  C   UNL     1      -0.704  -4.869  -3.760  0.00  0.00    +0.129 C 
ATOM     20  N   UNL     1      -0.707  -4.150  -2.484  0.00  0.00    -0.336 N 
ATOM     21  C   UNL     1      -0.889  -4.884  -1.229  0.00  0.00    +0.129 C 
ENDBRANCH  13  20
ENDBRANCH  12  17
ENDBRANCH   1  12
TORSDOF 4
