REMARK  Name = ZINC54733793
REMARK  11 active torsions:
REMARK  status: ('A' for Active; 'I' for Inactive)
REMARK    1  A    between atoms: C_1  and  C_2
REMARK    2  A    between atoms: C_5  and  C_7
REMARK    3  A    between atoms: C_7  and  C_9
REMARK    4  A    between atoms: C_7  and  N_10
REMARK    5  A    between atoms: N_13  and  C_14
REMARK    6  A    between atoms: C_14  and  C_16
REMARK    7  A    between atoms: C_14  and  C_18
REMARK    8  A    between atoms: C_16  and  O_17
REMARK    9  A    between atoms: C_18  and  C_20
REMARK   10  A    between atoms: C_18  and  O_29
REMARK   11  A    between atoms: C_23  and  N_26
REMARK                            x       y       z     vdW  Elec       q    Type
REMARK                         _______ _______ _______ _____ _____    ______ ____
ROOT
ATOM      1  C   UNK A   1       3.999  -6.691   2.816  0.00  0.00    +0.133 C 
ENDROOT
BRANCH   1   5
ATOM      2  N   UNK A   0       2.210  -4.147   0.855  0.00  0.00    -0.292 N 
ATOM      3  C   UNK A   0       2.553  -5.328   1.406  0.00  0.00    +0.300 C 
ATOM      4  O   UNK A   0       1.894  -6.323   1.171  0.00  0.00    -0.253 OA
ATOM      5  N   UNK A   1       3.626  -5.407   2.217  0.00  0.00    -0.292 N 
ATOM      6  H   UNK A   0       2.735  -3.354   1.042  0.00  0.00    +0.151 HD
ATOM      7  H   UNK A   1       4.152  -4.614   2.405  0.00  0.00    +0.151 HD
BRANCH   2   8
ATOM      8  C   UNK A   0       1.043  -4.062  -0.027  0.00  0.00    +0.108 C 
ATOM      9  C   UNK A   0       1.452  -4.441  -1.452  0.00  0.00    +0.033 C 
BRANCH   8  14
ATOM     10  C   UNK A   0      -0.018   1.503   0.010  0.00  0.00    +0.051 C 
ATOM     11  C   UNK A   0       0.002  -0.004   0.002  0.00  0.00    -0.013 A 
ATOM     12  C   UNK A   0      -1.039  -0.872   0.002  0.00  0.00    +0.011 A 
ATOM     13  C   UNK A   0      -0.780  -2.230  -0.007  0.00  0.00    +0.013 A 
ATOM     14  C   UNK A   0       0.507  -2.653  -0.016  0.00  0.00    +0.010 A 
ATOM     15  S   UNK A   0       1.404  -1.109  -0.018  0.00  0.00    -0.097 S 
ENDBRANCH   8  14
ENDBRANCH   2   8
ENDBRANCH   1   5
BRANCH   1  16
ATOM     16  C   UNK A   1       3.196  -6.907   4.101  0.00  0.00    +0.181 C 
BRANCH  16  17
ATOM     17  O   UNK A   1       3.564  -5.919   5.065  0.00  0.00    -0.393 OA
ATOM     18  H   UNK A   1       3.093  -5.995   5.906  0.00  0.00    +0.209 HD
ENDBRANCH  16  17
ENDBRANCH   1  16
BRANCH   1  19
ATOM     19  C   UNK A   1       5.493  -6.686   3.144  0.00  0.00    +0.167 C 
BRANCH  19  20
ATOM     20  C   UNK A   1       6.279  -6.352   1.902  0.00  0.00    -0.017 A 
ATOM     21  C   UNK A   1       6.492  -5.031   1.554  0.00  0.00    +0.008 A 
ATOM     22  C   UNK A   1       7.212  -4.724   0.415  0.00  0.00    +0.033 A 
ATOM     23  C   UNK A   1       7.721  -5.738  -0.376  0.00  0.00    +0.126 A 
ATOM     24  C   UNK A   1       7.509  -7.059  -0.026  0.00  0.00    +0.033 A 
ATOM     25  C   UNK A   1       6.792  -7.365   1.115  0.00  0.00    +0.008 A 
BRANCH  23  26
ATOM     26  N   UNK A   1       8.491  -5.409  -1.596  0.00  0.00    +0.056 N 
ATOM     27  O   UNK A   1       8.676  -4.254  -1.901  0.00  0.00    -0.126 OA
ATOM     28  O   UNK A   1       8.936  -6.296  -2.287  0.00  0.00    -0.126 OA
ENDBRANCH  23  26
ENDBRANCH  19  20
BRANCH  19  29
ATOM     29  O   UNK A   1       5.757  -5.708   4.152  0.00  0.00    -0.385 OA
ATOM     30  H   UNK A   1       5.517  -4.806   3.897  0.00  0.00    +0.210 HD
ENDBRANCH  19  29
ENDBRANCH   1  19
TORSDOF 9
