REMARK  Name = ZINC65615158
REMARK  9 active torsions:
REMARK  status: ('A' for Active; 'I' for Inactive)
REMARK    1  A    between atoms: C_1  and  C_2
REMARK    2  A    between atoms: C_3  and  C_9
REMARK    3  A    between atoms: C_4  and  C_8
REMARK    4  A    between atoms: N_5  and  C_7
REMARK    5  A    between atoms: C_9  and  C_10
REMARK    6  A    between atoms: C_9  and  N_11
REMARK    7  A    between atoms: C_12  and  C_14
REMARK    8  A    between atoms: N_16  and  C_17
REMARK    9  A    between atoms: C_20  and  C_23
REMARK                            x       y       z     vdW  Elec       q    Type
REMARK                         _______ _______ _______ _____ _____    ______ ____
ROOT
ATOM      1  C   UNL     1      -2.022   2.310  -4.135  0.00  0.00    +0.303 C 
ATOM      2  O   UNL     1      -2.222   3.062  -3.203  0.00  0.00    -0.265 OA
ATOM      3  N   UNL     1      -2.570   2.569  -5.339  0.00  0.00    -0.278 N 
ATOM      4  H   UNL     1      -2.355   2.007  -6.100  0.00  0.00    +0.155 HD
ENDROOT
BRANCH   3   5
ATOM      5  C   UNL     1      -3.448   3.645  -5.490  0.00  0.00    +0.034 A 
ATOM      6  C   UNL     1      -3.240   4.816  -4.771  0.00  0.00    +0.024 A 
ATOM      7  C   UNL     1      -4.105   5.880  -4.919  0.00  0.00    +0.012 A 
ATOM      8  C   UNL     1      -5.189   5.779  -5.789  0.00  0.00    +0.003 A 
ATOM      9  C   UNL     1      -5.396   4.603  -6.509  0.00  0.00    +0.012 A 
ATOM     10  C   UNL     1      -4.525   3.544  -6.362  0.00  0.00    +0.024 A 
BRANCH   8  11
ATOM     11  C   UNL     1      -6.122   6.922  -5.949  0.00  0.00    +0.102 A 
ATOM     12  C   UNL     1      -7.207   6.880  -6.784  0.00  0.00    +0.097 A 
ATOM     13  S   UNL     1      -7.876   8.404  -6.563  0.00  0.00    +0.029 S 
ATOM     14  N   UNL     1      -6.827   9.006  -5.489  0.00  0.00    -0.110 NA
ATOM     15  N   UNL     1      -5.976   8.061  -5.291  0.00  0.00    -0.141 NA
ENDBRANCH   8  11
ENDBRANCH   3   5
BRANCH   1  17
ATOM     16  N   UNL     1      -0.619   0.841  -2.744  0.00  0.00    -0.301 N 
ATOM     17  C   UNL     1      -1.168   1.100  -3.948  0.00  0.00    +0.300 C 
ATOM     18  O   UNL     1      -0.967   0.349  -4.880  0.00  0.00    -0.265 OA
ATOM     19  H   UNL     1      -0.779   1.442  -1.999  0.00  0.00    +0.150 HD
BRANCH  16  20
ATOM     20  C   UNL     1       0.219  -0.346  -2.561  0.00  0.00    +0.104 C 
ATOM     21  C   UNL     1       1.673   0.000  -2.886  0.00  0.00    +0.033 C 
BRANCH  20  24
ATOM     22  C   UNL     1      -0.222  -3.335  -1.604  0.00  0.00    +0.068 C 
ATOM     23  C   UNL     1      -0.072  -2.133  -0.708  0.00  0.00    +0.065 A 
ATOM     24  C   UNL     1       0.122  -0.814  -1.131  0.00  0.00    +0.016 A 
ATOM     25  C   UNL     1       0.207  -0.032  -0.030  0.00  0.00    +0.041 A 
ATOM     26  N   UNL     1       0.073  -0.827   1.051  0.00  0.00    -0.271 N 
ATOM     27  N   UNL     1      -0.107  -2.141   0.600  0.00  0.00    -0.176 NA
ATOM     28  C   UNL     1       0.103  -0.393   2.450  0.00  0.00    +0.172 C 
ATOM     29  C   UNL     1       0.416   1.461  -0.015  0.00  0.00    +0.065 C 
ENDBRANCH  20  24
ENDBRANCH  16  20
ENDBRANCH   1  17
TORSDOF 5
