REMARK  Name = ZINC00718553
REMARK  5 active torsions:
REMARK  status: ('A' for Active; 'I' for Inactive)
REMARK    1  A    between atoms: C_6  and  C_7
REMARK    2  A    between atoms: C_8  and  C_13
REMARK    3  A    between atoms: C_16  and  C_27
REMARK    4  A    between atoms: C_22  and  N_26
REMARK    5  A    between atoms: C_23  and  C_24
REMARK                            x       y       z     vdW  Elec       q    Type
REMARK                         _______ _______ _______ _____ _____    ______ ____
ROOT
ATOM      1  C   UNL     1       0.976   1.090   2.032  0.00  0.00    +0.105 C 
ATOM      2  C   UNL     1       0.240   0.643   3.268  0.00  0.00    +0.054 A 
ATOM      3  C   UNL     1       0.083   1.301   4.491  0.00  0.00    +0.100 A 
ATOM      4  N   UNL     1      -0.641   0.528   5.278  0.00  0.00    -0.171 NA
ATOM      5  N   UNL     1      -0.962  -0.643   4.573  0.00  0.00    -0.246 N 
ATOM      6  H   UNL     1      -1.504  -1.409   4.921  0.00  0.00    +0.192 HD
ATOM      7  C   UNL     1      -0.412  -0.554   3.345  0.00  0.00    +0.223 A 
ATOM      8  O   UNL     1      -0.447  -1.437   2.315  0.00  0.00    -0.423 OA
ATOM      9  C   UNL     1       0.410  -1.238   1.293  0.00  0.00    +0.200 C 
ATOM     10  C   UNL     1       1.102  -0.092   1.104  0.00  0.00    +0.098 C 
ENDROOT
BRANCH   3  11
ATOM     11  C   UNL     1       0.632   2.634   4.842  0.00  0.00    +0.003 A 
ATOM     12  C   UNL     1       1.921   2.985   4.447  0.00  0.00    +0.011 A 
ATOM     13  C   UNL     1       2.426   4.227   4.771  0.00  0.00    +0.016 A 
ATOM     14  C   UNL     1       1.658   5.121   5.498  0.00  0.00    +0.018 A 
ATOM     15  C   UNL     1       0.379   4.775   5.898  0.00  0.00    +0.016 A 
ATOM     16  C   UNL     1      -0.137   3.537   5.573  0.00  0.00    +0.011 A 
ATOM     17 BR   UNL     1       2.359   6.819   5.946  0.00  0.00    -0.050 Br
ENDBRANCH   3  11
BRANCH   1  19
ATOM     18  C   UNL     1      -1.183   2.411   1.444  0.00  0.00    +0.097 A 
ATOM     19  C   UNL     1       0.205   2.191   1.351  0.00  0.00    +0.010 A 
ATOM     20  C   UNL     1       0.722   3.146   0.547  0.00  0.00    +0.110 A 
ATOM     21  N   UNL     1      -0.291   3.938   0.135  0.00  0.00    -0.284 N 
ATOM     22  H   UNL     1      -0.209   4.726  -0.475  0.00  0.00    +0.188 HD
ATOM     23  N   UNL     1      -1.477   3.464   0.710  0.00  0.00    -0.174 NA
BRANCH  18  29
ATOM     24  C   UNL     1      -2.724   0.463   1.667  0.00  0.00    +0.013 A 
ATOM     25  C   UNL     1      -3.613  -0.293   2.403  0.00  0.00    +0.039 A 
ATOM     26  C   UNL     1      -3.940   0.083   3.696  0.00  0.00    +0.123 A 
ATOM     27  C   UNL     1      -3.372   1.215   4.257  0.00  0.00    +0.039 A 
ATOM     28  C   UNL     1      -2.477   1.973   3.530  0.00  0.00    +0.013 A 
ATOM     29  C   UNL     1      -2.145   1.599   2.230  0.00  0.00    +0.003 A 
ATOM     30  F   UNL     1      -4.815  -0.657   4.412  0.00  0.00    -0.205 F 
ENDBRANCH  18  29
ENDBRANCH   1  19
BRANCH   9  31
ATOM     31  N   UNL     1       0.588  -2.257   0.391  0.00  0.00    -0.328 N 
ATOM     32  H   UNL     1       0.105  -3.091   0.500  0.00  0.00    +0.145 HD
ATOM     33  H   UNL     1       1.198  -2.144  -0.355  0.00  0.00    +0.145 HD
ENDBRANCH   9  31
BRANCH  10  34
ATOM     34  C   UNL     1       1.987   0.002  -0.018  0.00  0.00    +0.101 C 
ATOM     35  N   UNL     1       2.689   0.076  -0.908  0.00  0.00    -0.191 NA
ENDBRANCH  10  34
TORSDOF 5
