REMARK  Name = ZINC06883659
REMARK  4 active torsions:
REMARK  status: ('A' for Active; 'I' for Inactive)
REMARK    1  A    between atoms: C_3  and  N_23
REMARK    2  A    between atoms: C_6  and  C_7
REMARK    3  A    between atoms: C_10  and  N_11
REMARK    4  A    between atoms: N_11  and  C_12
REMARK                            x       y       z     vdW  Elec       q    Type
REMARK                         _______ _______ _______ _____ _____    ______ ____
ROOT
ATOM      1  C   UNL     1      -1.265  -0.763   0.011  0.00  0.00    +0.232 C 
ATOM      2  N   UNL     1      -1.341  -2.064   0.009  0.00  0.00    -0.204 NA
ATOM      3  C   UNL     1      -2.658  -2.433   0.019  0.00  0.00    +0.165 C 
ATOM      4  C   UNL     1      -3.166  -3.716   0.022  0.00  0.00    +0.107 C 
ATOM      5  C   UNL     1      -3.417  -1.177   0.026  0.00  0.00    +0.366 C 
ATOM      6  O   UNL     1      -4.628  -1.047   0.036  0.00  0.00    -0.243 OA
ATOM      7  O   UNL     1      -2.488  -0.198   0.026  0.00  0.00    -0.402 OA
ENDROOT
BRANCH   1  13
ATOM      8  C   UNL     1      -0.017   1.392   0.010  0.00  0.00    +0.015 A 
ATOM      9  C   UNL     1       1.170   2.095   0.002  0.00  0.00    +0.033 A 
ATOM     10  C   UNL     1       2.378   1.419  -0.013  0.00  0.00    +0.126 A 
ATOM     11  C   UNL     1       2.404   0.036  -0.021  0.00  0.00    +0.033 A 
ATOM     12  C   UNL     1       1.224  -0.679  -0.014  0.00  0.00    +0.015 A 
ATOM     13  C   UNL     1       0.002  -0.004   0.002  0.00  0.00    +0.037 A 
BRANCH  10  14
ATOM     14  N   UNL     1       3.647   2.180  -0.022  0.00  0.00    +0.056 N 
ATOM     15  O   UNL     1       3.628   3.389  -0.015  0.00  0.00    -0.126 OA
ATOM     16  O   UNL     1       4.704   1.593  -0.035  0.00  0.00    -0.126 OA
ENDBRANCH  10  14
ENDBRANCH   1  13
BRANCH   4  17
ATOM     17  N   UNL     1      -4.511  -3.916   0.032  0.00  0.00    -0.317 N 
ATOM     18  H   UNL     1      -5.114  -3.155   0.037  0.00  0.00    +0.152 HD
BRANCH  17  19
ATOM     19  C   UNL     1      -5.025  -5.215   0.035  0.00  0.00    +0.051 A 
ATOM     20  C   UNL     1      -4.164  -6.304   0.033  0.00  0.00    +0.044 A 
ATOM     21  C   UNL     1      -4.675  -7.588   0.036  0.00  0.00    +0.043 A 
ATOM     22  C   UNL     1      -6.045  -7.789   0.041  0.00  0.00    +0.021 A 
ATOM     23  C   UNL     1      -6.905  -6.707   0.043  0.00  0.00    +0.023 A 
ATOM     24  C   UNL     1      -6.400  -5.420   0.045  0.00  0.00    +0.062 A 
ATOM     25 CL   UNL     1      -7.482  -4.062   0.054  0.00  0.00    -0.082 Cl
ATOM     26 CL   UNL     1      -3.599  -8.950   0.034  0.00  0.00    -0.083 Cl
ENDBRANCH  17  19
ENDBRANCH   4  17
TORSDOF 4
