REMARK  Name = ZINC12296212
REMARK  12 active torsions:
REMARK  status: ('A' for Active; 'I' for Inactive)
REMARK    1  A    between atoms: C_1  and  C_2
REMARK    2  A    between atoms: C_2  and  C_4
REMARK    3  A    between atoms: C_4  and  O_43
REMARK    4  A    between atoms: C_9  and  C_42
REMARK    5  A    between atoms: N_21  and  O_22
REMARK    6  A    between atoms: O_22  and  C_23
REMARK    7  A    between atoms: C_23  and  C_24
REMARK    8  A    between atoms: C_28  and  O_37
REMARK    9  A    between atoms: C_31  and  C_33
REMARK   10  A    between atoms: C_33  and  O_35
REMARK   11  A    between atoms: O_35  and  C_36
REMARK   12  A    between atoms: C_40  and  C_41
REMARK                            x       y       z     vdW  Elec       q    Type
REMARK                         _______ _______ _______ _____ _____    ______ ____
ROOT
ATOM      1  C   UNL     1      -2.677   1.100   2.469  0.00  0.00    +0.129 C 
ATOM      2  C   UNL     1      -4.104   0.553   2.219  0.00  0.00    +0.043 C 
ATOM      3  C   UNL     1      -4.205   0.264   0.698  0.00  0.00    +0.008 C 
ATOM      4  C   UNL     1      -2.744   0.313   0.221  0.00  0.00    +0.002 C 
ATOM      5  C   UNL     1      -2.169   1.468   1.064  0.00  0.00    +0.007 C 
ATOM      6  C   UNL     1      -0.666   1.526   0.925  0.00  0.00    +0.010 C 
ATOM      7  C   UNL     1      -0.248   0.816  -0.377  0.00  0.00    +0.005 C 
ATOM      8  C   UNL     1      -1.212   1.194  -1.495  0.00  0.00    +0.002 C 
ATOM      9  C   UNL     1      -2.576   0.578  -1.269  0.00  0.00    -0.003 C 
ATOM     10  C   UNL     1      -2.774  -0.746  -2.000  0.00  0.00    +0.008 C 
ATOM     11  C   UNL     1      -2.468  -0.619  -3.485  0.00  0.00    +0.031 C 
ATOM     12  C   UNL     1      -1.042  -0.126  -3.634  0.00  0.00    -0.062 C 
ATOM     13  C   UNL     1      -0.229  -0.809  -4.430  0.00  0.00    +0.026 C 
ATOM     14  C   UNL     1       1.141  -0.341  -4.691  0.00  0.00    +0.080 C 
ATOM     15  N   UNL     1       2.002  -1.090  -5.311  0.00  0.00    -0.089 NA
ATOM     16  C   UNL     1       1.508   1.054  -4.230  0.00  0.00    +0.059 C 
ATOM     17  C   UNL     1       0.888   1.277  -2.851  0.00  0.00    +0.017 C 
ATOM     18  C   UNL     1      -0.619   1.087  -2.875  0.00  0.00    -0.007 C 
ATOM     19  C   UNL     1      -1.180   2.286  -3.651  0.00  0.00    +0.016 C 
ATOM     20  C   UNL     1      -2.797   2.811   0.678  0.00  0.00    +0.015 C 
ENDROOT
BRANCH   1  22
ATOM     21  C   UNL     1      -2.408   2.216   4.810  0.00  0.00    +0.089 C 
ATOM     22  C   UNL     1      -2.727   2.324   3.341  0.00  0.00    +0.162 C 
ATOM     23  O   UNL     1      -3.022   3.394   2.864  0.00  0.00    -0.295 OA
ENDBRANCH   1  22
BRANCH   1  24
ATOM     24  O   UNL     1      -1.854   0.093   3.051  0.00  0.00    -0.381 OA
ATOM     25  H   UNL     1      -2.130  -0.176   3.938  0.00  0.00    +0.211 HD
ENDBRANCH   1  24
BRANCH  15  26
ATOM     26  O   UNL     1       3.314  -0.613  -5.548  0.00  0.00    -0.384 OA
BRANCH  26  27
ATOM     27  C   UNL     1       4.154  -1.540  -6.239  0.00  0.00    +0.358 C 
BRANCH  27  28
ATOM     28  C   UNL     1       5.518  -0.932  -6.436  0.00  0.00    +0.257 C 
ATOM     29  O   UNL     1       5.749   0.186  -6.026  0.00  0.00    -0.272 OA
ATOM     30  N   UNL     1       6.482  -1.629  -7.069  0.00  0.00    -0.283 N 
ATOM     31  C   UNL     1       6.338  -2.991  -7.617  0.00  0.00    +0.140 C 
ATOM     32  C   UNL     1       7.780  -3.557  -7.656  0.00  0.00    +0.134 C 
ATOM     33  C   UNL     1       8.598  -2.299  -8.052  0.00  0.00    +0.066 C 
ATOM     34  C   UNL     1       7.849  -1.157  -7.334  0.00  0.00    +0.187 C 
BRANCH  34  35
ATOM     35  C   UNL     1       7.807   0.066  -8.214  0.00  0.00    +0.328 C 
ATOM     36  O   UNL     1       6.815   0.313  -8.857  0.00  0.00    -0.249 OA
BRANCH  35  37
ATOM     37  O   UNL     1       8.873   0.879  -8.284  0.00  0.00    -0.467 OA
ATOM     38  C   UNL     1       8.762   2.037  -9.153  0.00  0.00    +0.280 C 
ENDBRANCH  35  37
ENDBRANCH  34  35
BRANCH  32  39
ATOM     39  O   UNL     1       8.175  -4.041  -6.370  0.00  0.00    -0.390 OA
ATOM     40  H   UNL     1       7.627  -4.765  -6.037  0.00  0.00    +0.210 HD
ENDBRANCH  32  39
ENDBRANCH  27  28
ENDBRANCH  26  27
ENDBRANCH  15  26
TORSDOF 8
