REMARK  Name = ZINC41836553
REMARK  10 active torsions:
REMARK  status: ('A' for Active; 'I' for Inactive)
REMARK    1  A    between atoms: C_1  and  C_2
REMARK    2  A    between atoms: C_2  and  C_3
REMARK    3  A    between atoms: C_2  and  C_4
REMARK    4  A    between atoms: C_4  and  C_6
REMARK    5  A    between atoms: C_4  and  N_16
REMARK    6  A    between atoms: N_8  and  C_9
REMARK    7  A    between atoms: C_9  and  C_10
REMARK    8  A    between atoms: N_12  and  C_13
REMARK    9  A    between atoms: C_17  and  C_19
REMARK   10  A    between atoms: C_22  and  N_26
REMARK                            x       y       z     vdW  Elec       q    Type
REMARK                         _______ _______ _______ _____ _____    ______ ____
ROOT
ATOM      1  C   UNL     1      -1.433  -0.534   0.013  0.00  0.00    +0.162 C 
ENDROOT
BRANCH   1   2
ATOM      2  C   UNL     1      -1.413  -2.041   0.005  0.00  0.00    +0.234 C 
ATOM      3  O   UNL     1      -1.921  -2.659   0.916  0.00  0.00    -0.274 OA
ATOM      4  N   UNL     1      -0.830  -2.701  -1.015  0.00  0.00    -0.305 N 
ATOM      5  H   UNL     1      -0.423  -2.206  -1.744  0.00  0.00    +0.149 HD
BRANCH   4   6
ATOM      6  C   UNL     1      -0.810  -4.166  -1.024  0.00  0.00    +0.200 C 
BRANCH   6   7
ATOM      7  C   UNL     1      -0.105  -4.652  -2.263  0.00  0.00    +0.230 C 
ATOM      8  O   UNL     1       0.338  -3.853  -3.062  0.00  0.00    -0.274 OA
ATOM      9  N   UNL     1       0.034  -5.974  -2.485  0.00  0.00    -0.311 N 
ATOM     10  H   UNL     1      -0.320  -6.613  -1.847  0.00  0.00    +0.149 HD
BRANCH   9  11
ATOM     11  C   UNL     1       0.720  -6.446  -3.690  0.00  0.00    +0.073 C 
ATOM     12  C   UNL     1       0.087  -7.613  -4.452  0.00  0.00    +0.024 C 
ATOM     13  C   UNL     1       1.364  -7.833  -3.639  0.00  0.00    +0.024 C 
ENDBRANCH   9  11
ENDBRANCH   6   7
ENDBRANCH   4   6
ENDBRANCH   1   2
BRANCH   1  14
ATOM     14  N   UNL     1      -2.119  -0.061   1.218  0.00  0.00    -0.300 N 
ATOM     15  C   UNL     1      -2.704   1.153   1.228  0.00  0.00    +0.246 C 
ATOM     16  O   UNL     1      -2.663   1.856   0.238  0.00  0.00    -0.270 OA
ATOM     17  H   UNL     1      -2.152  -0.622   2.009  0.00  0.00    +0.150 HD
BRANCH  15  18
ATOM     18  C   UNL     1      -3.396   1.629   2.444  0.00  0.00    +0.055 A 
ATOM     19  C   UNL     1      -3.440   0.827   3.586  0.00  0.00    +0.017 A 
ATOM     20  C   UNL     1      -4.087   1.278   4.718  0.00  0.00    +0.033 A 
ATOM     21  C   UNL     1      -4.692   2.523   4.724  0.00  0.00    +0.128 A 
ATOM     22  C   UNL     1      -4.653   3.324   3.597  0.00  0.00    +0.053 A 
ATOM     23  C   UNL     1      -4.003   2.887   2.459  0.00  0.00    +0.055 A 
ATOM     24 CL   UNL     1      -3.949   3.896   1.047  0.00  0.00    -0.083 Cl
BRANCH  21  25
ATOM     25  N   UNL     1      -5.384   2.999   5.942  0.00  0.00    +0.056 N 
ATOM     26  O   UNL     1      -5.420   2.301   6.929  0.00  0.00    -0.126 OA
ATOM     27  O   UNL     1      -5.914   4.086   5.951  0.00  0.00    -0.126 OA
ENDBRANCH  21  25
ENDBRANCH  15  18
ENDBRANCH   1  14
BRANCH   1  29
ATOM     28  C   UNL     1      -0.019   1.526   0.010  0.00  0.00    +0.009 C 
ATOM     29  C   UNL     1       0.002  -0.004   0.002  0.00  0.00    +0.012 C 
ATOM     30  C   UNL     1       0.742  -0.511   1.242  0.00  0.00    +0.009 C 
ENDBRANCH   1  29
TORSDOF 8
