REMARK  Name = ZINC54691084
REMARK  6 active torsions:
REMARK  status: ('A' for Active; 'I' for Inactive)
REMARK    1  A    between atoms: C_1  and  C_2
REMARK    2  A    between atoms: C_7  and  S_10
REMARK    3  A    between atoms: S_10  and  C_11
REMARK    4  A    between atoms: C_12  and  C_20
REMARK    5  A    between atoms: C_14  and  N_17
REMARK    6  A    between atoms: N_21  and  O_22
REMARK                            x       y       z     vdW  Elec       q    Type
REMARK                         _______ _______ _______ _____ _____    ______ ____
ROOT
ATOM      1  C   UNL     1       1.451  -4.392   2.626  0.00  0.00    +0.108 A 
ATOM      2  C   UNL     1       2.012  -5.199   3.629  0.00  0.00    +0.052 A 
ATOM      3  C   UNL     1       1.849  -6.584   3.548  0.00  0.00    +0.048 A 
ATOM      4  C   UNL     1       1.140  -7.102   2.477  0.00  0.00    +0.145 A 
ATOM      5  C   UNL     1       0.617  -6.244   1.528  0.00  0.00    +0.144 A 
ATOM      6  N   UNL     1       0.777  -4.938   1.626  0.00  0.00    -0.246 NA
ENDROOT
BRANCH   2   7
ATOM      7  C   UNL     1       2.760  -4.594   4.751  0.00  0.00    +0.165 C 
ATOM      8  N   UNL     1       2.905  -3.302   4.816  0.00  0.00    -0.071 NA
ATOM      9  N   UNL     1       3.307  -5.402   5.734  0.00  0.00    -0.340 N 
ATOM     10  H   UNL     1       3.200  -6.365   5.686  0.00  0.00    +0.144 HD
ATOM     11  H   UNL     1       3.799  -5.005   6.470  0.00  0.00    +0.144 HD
BRANCH   8  12
ATOM     12  O   UNL     1       3.622  -2.723   5.890  0.00  0.00    -0.408 OA
ATOM     13  H   UNL     1       3.676  -1.758   5.852  0.00  0.00    +0.328 HD
ENDBRANCH   8  12
ENDBRANCH   2   7
BRANCH   4  14
ATOM     14  N   UNL     1       0.943  -8.564   2.349  0.00  0.00    +0.058 N 
ATOM     15  O   UNL     1       1.402  -9.310   3.182  0.00  0.00    -0.126 OA
ATOM     16  O   UNL     1       0.323  -9.011   1.413  0.00  0.00    -0.126 OA
ENDBRANCH   4  14
BRANCH   1  17
ATOM     17  S   UNL     1       1.640  -2.642   2.703  0.00  0.00    -0.102 S 
BRANCH  17  23
ATOM     18  C   UNL     1      -0.019   1.526   0.010  0.00  0.00    +0.007 C 
ATOM     19  C   UNL     1       0.002  -0.004   0.002  0.00  0.00    -0.013 C 
ATOM     20  C   UNL     1       0.718  -0.497  -1.257  0.00  0.00    +0.003 C 
ATOM     21  C   UNL     1       0.739  -2.027  -1.265  0.00  0.00    +0.001 C 
ATOM     22  C   UNL     1       1.479  -2.534  -0.026  0.00  0.00    +0.014 C 
ATOM     23  C   UNL     1       0.763  -2.041   1.233  0.00  0.00    +0.053 C 
ATOM     24  C   UNL     1       0.742  -0.511   1.242  0.00  0.00    +0.018 C 
ENDBRANCH  17  23
ENDBRANCH   1  17
TORSDOF 5
