REMARK  Name = ZINC64968904
REMARK  5 active torsions:
REMARK  status: ('A' for Active; 'I' for Inactive)
REMARK    1  A    between atoms: C_1  and  C_2
REMARK    2  A    between atoms: C_5  and  N_9
REMARK    3  A    between atoms: N_12  and  C_13
REMARK    4  A    between atoms: C_13  and  C_14
REMARK    5  A    between atoms: C_23  and  C_25
REMARK                            x       y       z     vdW  Elec       q    Type
REMARK                         _______ _______ _______ _____ _____    ______ ____
ROOT
ATOM      1  N   UNL     1       0.057  -4.171  -0.023  0.00  0.00    -0.269 N 
ATOM      2  C   UNL     1       0.174  -4.852   1.134  0.00  0.00    +0.304 C 
ATOM      3  O   UNL     1       0.172  -4.255   2.193  0.00  0.00    -0.252 OA
ATOM      4  N   UNL     1       0.292  -6.194   1.118  0.00  0.00    -0.295 N 
ATOM      5  H   UNL     1      -0.019  -4.652  -0.863  0.00  0.00    +0.156 HD
ATOM      6  H   UNL     1       0.294  -6.671   0.273  0.00  0.00    +0.151 HD
ENDROOT
BRANCH   1  11
ATOM      7  C   UNL     1       0.016   1.503   0.015  0.00  0.00    +0.047 C 
ATOM      8  C   UNL     1       0.026  -0.004   0.005  0.00  0.00    -0.015 A 
ATOM      9  C   UNL     1       0.780  -0.695   0.935  0.00  0.00    +0.008 A 
ATOM     10  C   UNL     1       0.792  -2.076   0.928  0.00  0.00    +0.024 A 
ATOM     11  C   UNL     1       0.046  -2.772  -0.014  0.00  0.00    +0.037 A 
ATOM     12  C   UNL     1      -0.711  -2.077  -0.947  0.00  0.00    +0.062 A 
ATOM     13  C   UNL     1      -0.724  -0.694  -0.933  0.00  0.00    +0.128 A 
ATOM     14  F   UNL     1      -1.464  -0.015  -1.837  0.00  0.00    -0.205 F 
ENDBRANCH   1  11
BRANCH   4  15
ATOM     15  C   UNL     1       0.419  -6.934   2.376  0.00  0.00    +0.141 C 
BRANCH  15  16
ATOM     16  C   UNL     1       0.536  -8.407   2.083  0.00  0.00    -0.030 A 
ATOM     17  C   UNL     1      -0.601  -9.190   2.000  0.00  0.00    +0.007 A 
ATOM     18  C   UNL     1      -0.497 -10.539   1.733  0.00  0.00    +0.024 A 
ATOM     19  C   UNL     1       0.756 -11.124   1.544  0.00  0.00    +0.039 A 
ATOM     20  C   UNL     1       1.889 -10.331   1.629  0.00  0.00    -0.024 A 
ATOM     21  C   UNL     1       1.780  -8.979   1.891  0.00  0.00    +0.010 A 
ATOM     22  C   UNL     1       3.104 -11.199   1.387  0.00  0.00    +0.056 C 
ATOM     23  C   UNL     1       2.532 -12.607   1.149  0.00  0.00    +0.118 C 
ATOM     24  N   UNL     1       1.079 -12.456   1.266  0.00  0.00    -0.271 N 
ATOM     25  C   UNL     1       0.186 -13.455   1.128  0.00  0.00    +0.217 C 
ATOM     26  O   UNL     1      -1.000 -13.229   1.245  0.00  0.00    -0.276 OA
ATOM     27  C   UNL     1       0.659 -14.854   0.828  0.00  0.00    +0.109 C 
ENDBRANCH  15  16
ENDBRANCH   4  15
TORSDOF 3
