REMARK  Name = ZINC00269934
REMARK  7 active torsions:
REMARK  status: ('A' for Active; 'I' for Inactive)
REMARK    1  A    between atoms: C_1  and  C_2
REMARK    2  A    between atoms: C_2  and  C_3
REMARK    3  A    between atoms: C_6  and  C_8
REMARK    4  A    between atoms: C_6  and  O_12
REMARK    5  A    between atoms: C_13  and  C_15
REMARK    6  A    between atoms: C_19  and  O_22
REMARK    7  A    between atoms: C_20  and  C_21
REMARK                            x       y       z     vdW  Elec       q    Type
REMARK                         _______ _______ _______ _____ _____    ______ ____
ROOT
ATOM      1  C   UNL     1      -0.129   0.764   2.906  0.00  0.00    +0.042 C 
ATOM      2  N   UNL     1       0.944   0.097   2.789  0.00  0.00    -0.183 NA
ATOM      3  N   UNL     1       1.437  -0.420   3.986  0.00  0.00    -0.148 N 
ATOM      4  C   UNL     1       0.532  -0.024   5.078  0.00  0.00    +0.257 C 
ATOM      5  C   UNL     1      -0.554   0.799   4.357  0.00  0.00    +0.118 C 
ATOM      6  C   UNL     1       2.556  -1.158   4.122  0.00  0.00    +0.269 C 
ATOM      7  O   UNL     1       2.937  -1.487   5.228  0.00  0.00    -0.268 OA
ENDROOT
BRANCH   6   8
ATOM      8  C   UNL     1       3.320  -1.569   2.925  0.00  0.00    +0.045 A 
ATOM      9  C   UNL     1       2.653  -1.851   1.731  0.00  0.00    +0.013 A 
ATOM     10  C   UNL     1       3.369  -2.234   0.616  0.00  0.00    +0.004 A 
ATOM     11  C   UNL     1       4.747  -2.340   0.676  0.00  0.00    +0.046 A 
ATOM     12  C   UNL     1       5.418  -2.061   1.859  0.00  0.00    +0.120 A 
ATOM     13  C   UNL     1       4.710  -1.670   2.982  0.00  0.00    +0.003 A 
ATOM     14  C   UNL     1       5.438  -1.361   4.265  0.00  0.00    +0.048 C 
BRANCH  12  15
ATOM     15  O   UNL     1       6.772  -2.167   1.912  0.00  0.00    -0.506 OA
ATOM     16  H   UNL     1       7.240  -1.351   1.685  0.00  0.00    +0.292 HD
ENDBRANCH  12  15
ENDBRANCH   6   8
BRANCH   4  17
ATOM     17  C   UNL     1       1.268   0.842   6.102  0.00  0.00    +0.438 C 
ATOM     18  F   UNL     1       1.781   1.979   5.469  0.00  0.00    -0.166 F 
ATOM     19  F   UNL     1       0.379   1.231   7.110  0.00  0.00    -0.166 F 
ATOM     20  F   UNL     1       2.318   0.108   6.665  0.00  0.00    -0.166 F 
ENDBRANCH   4  17
BRANCH   1  22
ATOM     21  C   UNL     1      -0.120   1.171   0.460  0.00  0.00    +0.010 C 
ATOM     22  C   UNL     1      -0.866   1.428   1.771  0.00  0.00    +0.049 C 
ENDBRANCH   1  22
BRANCH   4  23
ATOM     23  O   UNL     1      -0.033  -1.176   5.708  0.00  0.00    -0.363 OA
ATOM     24  H   UNL     1       0.620  -1.761   6.115  0.00  0.00    +0.212 HD
ENDBRANCH   4  23
TORSDOF 5
