REMARK  Name = ZINC61918735
REMARK  3 active torsions:
REMARK  status: ('A' for Active; 'I' for Inactive)
REMARK    1  A    between atoms: C_1  and  C_2
REMARK    2  A    between atoms: C_11  and  C_16
REMARK    3  A    between atoms: N_17  and  O_18
REMARK                            x       y       z     vdW  Elec       q    Type
REMARK                         _______ _______ _______ _____ _____    ______ ____
ROOT
ATOM      1  C   UNL     1      -0.037   1.506   0.052  0.00  0.00    +0.039 C 
ATOM      2  C   UNL     1      -0.006  -0.024   0.027  0.00  0.00    +0.132 C 
ATOM      3  C   UNL     1      -1.455  -0.569   0.038  0.00  0.00    +0.137 C 
ATOM      4  N   UNL     1      -1.435  -2.005  -0.172  0.00  0.00    -0.312 N 
ATOM      5  C   UNL     1      -1.332  -2.967   0.941  0.00  0.00    +0.109 C 
ATOM      6  C   UNL     1      -0.314  -2.492   1.988  0.00  0.00    +0.047 C 
ATOM      7  C   UNL     1       0.886  -1.885   1.290  0.00  0.00    +0.162 C 
ATOM      8  O   UNL     1       0.668  -0.488   1.138  0.00  0.00    -0.375 OA
ATOM      9  C   UNL     1      -1.516  -2.490  -1.468  0.00  0.00    +0.132 A 
ATOM     10  C   UNL     1      -2.764  -2.847  -2.002  0.00  0.00    +0.058 A 
ATOM     11  C   UNL     1      -2.822  -3.334  -3.310  0.00  0.00    +0.016 A 
ATOM     12  C   UNL     1      -1.641  -3.443  -4.025  0.00  0.00    +0.020 A 
ATOM     13  C   UNL     1      -0.450  -3.071  -3.431  0.00  0.00    +0.113 A 
ATOM     14  N   UNL     1      -0.418  -2.609  -2.196  0.00  0.00    -0.240 NA
ENDROOT
BRANCH  10  15
ATOM     15  C   UNL     1      -3.995  -2.711  -1.195  0.00  0.00    +0.166 C 
ATOM     16  N   UNL     1      -3.944  -2.155  -0.019  0.00  0.00    -0.071 NA
ATOM     17  N   UNL     1      -5.202  -3.176  -1.689  0.00  0.00    -0.340 N 
ATOM     18  H   UNL     1      -5.240  -3.590  -2.566  0.00  0.00    +0.144 HD
ATOM     19  H   UNL     1      -6.010  -3.087  -1.160  0.00  0.00    +0.144 HD
BRANCH  16  20
ATOM     20  O   UNL     1      -5.100  -2.120   0.798  0.00  0.00    -0.408 OA
ATOM     21  H   UNL     1      -4.965  -1.687   1.652  0.00  0.00    +0.328 HD
ENDBRANCH  16  20
ENDBRANCH  10  15
TORSDOF 2
