REMARK  Name = ZINC51094571
REMARK  12 active torsions:
REMARK  status: ('A' for Active; 'I' for Inactive)
REMARK    1  A    between atoms: C_1  and  C_2
REMARK    2  A    between atoms: C_2  and  C_3
REMARK    3  A    between atoms: C_2  and  C_4
REMARK    4  A    between atoms: C_4  and  N_5
REMARK    5  A    between atoms: N_5  and  C_6
REMARK    6  A    between atoms: C_6  and  C_7
REMARK    7  A    between atoms: C_7  and  N_8
REMARK    8  A    between atoms: N_8  and  C_9
REMARK    9  A    between atoms: N_8  and  C_10
REMARK   10  A    between atoms: C_11  and  C_13
REMARK   11  A    between atoms: C_18  and  N_19
REMARK   12  A    between atoms: N_19  and  N_20
REMARK                            x       y       z     vdW  Elec       q    Type
REMARK                         _______ _______ _______ _____ _____    ______ ____
ROOT
ATOM      1  N   UNL     1       2.036  -0.191  -1.338  0.00  0.00    -0.299 N 
ATOM      2  C   UNL     1       2.465   1.020  -1.745  0.00  0.00    +0.248 C 
ATOM      3  O   UNL     1       1.670   1.832  -2.179  0.00  0.00    -0.270 OA
ENDROOT
BRANCH   2   4
ATOM      4  C   UNL     1       3.897   1.360  -1.666  0.00  0.00    +0.060 A 
ATOM      5  C   UNL     1       4.578   1.254  -0.450  0.00  0.00    +0.035 A 
ATOM      6  C   UNL     1       5.917   1.574  -0.383  0.00  0.00    +0.042 A 
ATOM      7  C   UNL     1       6.594   2.001  -1.516  0.00  0.00    +0.022 A 
ATOM      8  C   UNL     1       5.934   2.111  -2.723  0.00  0.00    +0.026 A 
ATOM      9  C   UNL     1       4.586   1.787  -2.811  0.00  0.00    +0.053 A 
ATOM     10 CL   UNL     1       6.762   1.442   1.129  0.00  0.00    -0.084 Cl
BRANCH   9  11
ATOM     11  N   UNL     1       3.922   1.891  -4.027  0.00  0.00    -0.282 N 
ATOM     12  H   UNL     1       2.965   1.736  -4.072  0.00  0.00    +0.166 HD
BRANCH  11  13
ATOM     13  N   UNL     1       4.616   2.210  -5.160  0.00  0.00    -0.256 NA
ATOM     14  H   UNL     1       5.373   1.561  -5.315  0.00  0.00    +0.140 HD
ATOM     15  H   UNL     1       4.003   2.248  -5.960  0.00  0.00    +0.140 HD
ENDBRANCH  11  13
ENDBRANCH   9  11
ENDBRANCH   2   4
BRANCH   1  16
ATOM     16  C   UNL     1       0.602  -0.488  -1.305  0.00  0.00    +0.111 C 
BRANCH  16  18
ATOM     17  C   UNL     1       0.104   1.498   0.128  0.00  0.00    +0.009 C 
ATOM     18  C   UNL     1       0.016  -0.027   0.031  0.00  0.00    +0.000 C 
ATOM     19  C   UNL     1      -1.448  -0.460   0.122  0.00  0.00    +0.009 C 
ENDBRANCH  16  18
ENDBRANCH   1  16
BRANCH   1  20
ATOM     20  C   UNL     1       3.005  -1.211  -0.927  0.00  0.00    +0.089 C 
BRANCH  20  21
ATOM     21  C   UNL     1       3.410  -2.047  -2.142  0.00  0.00    -0.060 C 
BRANCH  21  22
ATOM     22  N   UNL     1       4.382  -3.070  -1.731  0.00  0.00    +0.377 N 
ATOM     23  C   UNL     1       3.737  -4.013  -0.807  0.00  0.00    -0.097 C 
ATOM     24  C   UNL     1       4.861  -3.794  -2.915  0.00  0.00    -0.097 C 
ATOM     25  H   UNL     1       5.162  -2.626  -1.269  0.00  0.00    -0.083 HD
ENDBRANCH  21  22
ENDBRANCH  20  21
ENDBRANCH   1  20
TORSDOF 8
