REMARK  Name = ZINC63870409
REMARK  10 active torsions:
REMARK  status: ('A' for Active; 'I' for Inactive)
REMARK    1  A    between atoms: C_1  and  C_2
REMARK    2  A    between atoms: C_2  and  N_3
REMARK    3  A    between atoms: N_3  and  C_4
REMARK    4  A    between atoms: C_4  and  C_5
REMARK    5  A    between atoms: C_5  and  C_6
REMARK    6  A    between atoms: C_13  and  C_16
REMARK    7  A    between atoms: C_17  and  C_19
REMARK    8  A    between atoms: C_22  and  C_29
REMARK    9  A    between atoms: C_23  and  C_24
REMARK   10  A    between atoms: C_23  and  C_25
REMARK                            x       y       z     vdW  Elec       q    Type
REMARK                         _______ _______ _______ _____ _____    ______ ____
ROOT
ATOM      1  N   UNL     1      -1.351  -0.545   0.136  0.00  0.00    -0.301 N 
ATOM      2  C   UNL     1      -1.918  -0.655   1.354  0.00  0.00    +0.233 C 
ATOM      3  O   UNL     1      -3.029  -1.129   1.465  0.00  0.00    -0.274 OA
ENDROOT
BRANCH   2   4
ATOM      4  C   UNL     1      -1.172  -0.188   2.577  0.00  0.00    +0.152 C 
ATOM      5  C   UNL     1       0.145  -0.951   2.930  0.00  0.00    +0.032 C 
ATOM      6  C   UNL     1       0.430  -0.525   4.391  0.00  0.00    +0.050 C 
ATOM      7  C   UNL     1      -0.762   0.416   4.749  0.00  0.00    +0.117 C 
ATOM      8  C   UNL     1      -1.927  -0.276   3.954  0.00  0.00    +0.029 C 
ATOM      9  C   UNL     1      -3.227   0.531   3.961  0.00  0.00    +0.016 C 
ATOM     10  C   UNL     1      -2.143  -1.720   4.412  0.00  0.00    +0.016 C 
ATOM     11  O   UNL     1      -0.548   1.600   3.932  0.00  0.00    -0.457 OA
ATOM     12  C   UNL     1      -0.776   1.297   2.623  0.00  0.00    +0.323 C 
ATOM     13  O   UNL     1      -0.666   2.039   1.675  0.00  0.00    -0.250 OA
ATOM     14  C   UNL     1      -1.006   0.650   6.241  0.00  0.00    +0.056 C 
ENDBRANCH   2   4
BRANCH   1  16
ATOM     15  C   UNL     1      -0.032   1.374  -0.611  0.00  0.00    +0.024 C 
ATOM     16  C   UNL     1       0.013  -0.025   0.007  0.00  0.00    +0.104 C 
ENDBRANCH   1  16
BRANCH   1  17
ATOM     17  C   UNL     1      -2.097  -0.947  -1.058  0.00  0.00    +0.111 C 
BRANCH  17  18
ATOM     18  C   UNL     1      -1.835  -2.426  -1.351  0.00  0.00    +0.065 C 
BRANCH  18  19
ATOM     19  C   UNL     1      -2.614  -2.845  -2.599  0.00  0.00    +0.175 C 
ATOM     20  N   UNL     1      -2.073  -2.167  -3.783  0.00  0.00    -0.363 N 
ATOM     21  C   UNL     1      -1.650  -3.087  -4.601  0.00  0.00    +0.060 A 
ATOM     22  C   UNL     1      -1.020  -3.032  -5.927  0.00  0.00    +0.027 A 
ATOM     23  C   UNL     1      -0.681  -4.179  -6.551  0.00  0.00    +0.002 A 
ATOM     24  C   UNL     1      -0.908  -5.446  -5.984  0.00  0.00    +0.005 A 
ATOM     25  C   UNL     1      -1.479  -5.609  -4.773  0.00  0.00    -0.025 A 
ATOM     26  C   UNL     1      -1.889  -4.428  -4.000  0.00  0.00    +0.063 A 
ATOM     27  N   UNL     1      -2.452  -4.285  -2.834  0.00  0.00    -0.363 N 
ATOM     28  C   UNL     1      -1.695  -6.992  -4.217  0.00  0.00    +0.046 C 
ATOM     29  H   UNL     1      -2.714  -4.999  -2.231  0.00  0.00    +0.162 HD
ATOM     30  H   UNL     1      -2.038  -1.209  -3.929  0.00  0.00    +0.162 HD
ENDBRANCH  18  19
ENDBRANCH  17  18
ENDBRANCH   1  17
TORSDOF 5
