REMARK  Name = ZINC49500745
REMARK  7 active torsions:
REMARK  status: ('A' for Active; 'I' for Inactive)
REMARK    1  A    between atoms: C_1  and  C_2
REMARK    2  A    between atoms: C_2  and  C_4
REMARK    3  A    between atoms: C_2  and  N_11
REMARK    4  A    between atoms: C_4  and  N_5
REMARK    5  A    between atoms: N_11  and  S_12
REMARK    6  A    between atoms: S_12  and  C_15
REMARK    7  A    between atoms: C_17  and  N_20
REMARK                            x       y       z     vdW  Elec       q    Type
REMARK                         _______ _______ _______ _____ _____    ______ ____
ROOT
ATOM      1  N   UNL     1       0.688  -0.476  -1.203  0.00  0.00    -0.188 NA
ATOM      2  H   UNL     1       1.655  -0.556  -1.212  0.00  0.00    +0.148 HD
ENDROOT
BRANCH   1   3
ATOM      3  S   UNL     1      -0.188  -0.875  -2.551  0.00  0.00    +0.065 S 
ATOM      4  O   UNL     1       0.751  -1.265  -3.545  0.00  0.00    -0.153 OA
ATOM      5  O   UNL     1      -1.236  -1.730  -2.117  0.00  0.00    -0.153 OA
BRANCH   3   6
ATOM      6  C   UNL     1      -0.951   0.603  -3.133  0.00  0.00    +0.144 A 
ATOM      7  C   UNL     1      -0.481   1.512  -4.022  0.00  0.00    +0.059 A 
ATOM      8  C   UNL     1      -1.264   2.613  -4.333  0.00  0.00    +0.034 A 
ATOM      9  C   UNL     1      -2.477   2.744  -3.736  0.00  0.00    +0.069 A 
ATOM     10  S   UNL     1      -2.544   1.286  -2.708  0.00  0.00    -0.075 S 
BRANCH   8  11
ATOM     11  N   UNL     1      -0.810   3.578  -5.252  0.00  0.00    -0.358 N 
ATOM     12  H   UNL     1       0.058   3.476  -5.673  0.00  0.00    +0.142 HD
ATOM     13  H   UNL     1      -1.364   4.345  -5.464  0.00  0.00    +0.142 HD
ENDBRANCH   8  11
ENDBRANCH   3   6
ENDBRANCH   1   3
BRANCH   1  15
ATOM     14  C   UNL     1      -0.019   1.526   0.010  0.00  0.00    +0.024 C 
ATOM     15  C   UNL     1       0.002  -0.004   0.002  0.00  0.00    +0.057 C 
BRANCH  15  16
ATOM     16  C   UNL     1       0.742  -0.511   1.242  0.00  0.00    -0.059 C 
BRANCH  16  17
ATOM     17  N   UNL     1       0.867  -1.973   1.174  0.00  0.00    +0.381 N 
ATOM     18  C   UNL     1      -0.469  -2.580   1.233  0.00  0.00    -0.079 C 
ATOM     19  C   UNL     1      -0.350  -4.098   1.081  0.00  0.00    -0.019 C 
ATOM     20  C   UNL     1       0.515  -4.653   2.216  0.00  0.00    -0.004 C 
ATOM     21  C   UNL     1       1.880  -3.959   2.190  0.00  0.00    -0.019 C 
ATOM     22  C   UNL     1       1.679  -2.446   2.301  0.00  0.00    -0.079 C 
ATOM     23  H   UNL     1       1.313  -2.232   0.306  0.00  0.00    -0.082 HD
ENDBRANCH  16  17
ENDBRANCH  15  16
ENDBRANCH   1  15
TORSDOF 6
