REMARK  Name = ZINC09495855
REMARK  7 active torsions:
REMARK  status: ('A' for Active; 'I' for Inactive)
REMARK    1  A    between atoms: C_1  and  C_2
REMARK    2  A    between atoms: C_7  and  C_8
REMARK    3  A    between atoms: C_8  and  C_10
REMARK    4  A    between atoms: C_8  and  N_11
REMARK    5  A    between atoms: C_12  and  C_14
REMARK    6  A    between atoms: C_14  and  N_51
REMARK    7  A    between atoms: C_23  and  C_25
REMARK                            x       y       z     vdW  Elec       q    Type
REMARK                         _______ _______ _______ _____ _____    ______ ____
ROOT
ATOM      1  C   UNL     1       2.447   4.079   0.520  0.00  0.00    -0.041 C 
ATOM      2  C   UNL     1       1.168   3.311   0.314  0.00  0.00    -0.061 A 
ATOM      3  C   UNL     1       1.153   1.958   0.620  0.00  0.00    +0.002 A 
ATOM      4  C   UNL     1       0.002   1.216   0.451  0.00  0.00    +0.000 A 
ATOM      5  C   UNL     1      -1.143   1.823  -0.031  0.00  0.00    +0.000 A 
ATOM      6  C   UNL     1      -1.132   3.170  -0.332  0.00  0.00    +0.004 A 
ATOM      7  C   UNL     1       0.025   3.916  -0.164  0.00  0.00    -0.047 A 
ATOM      8  C   UNL     1      -0.006   5.380  -0.516  0.00  0.00    +0.029 C 
ATOM      9  C   UNL     1       1.190   6.095   0.114  0.00  0.00    +0.024 C 
ATOM     10  N   UNL     1       2.408   5.338  -0.243  0.00  0.00    +0.396 N 
ATOM     11  H   UNL     1       2.387   5.121  -1.246  0.00  0.00    -0.080 HD
ENDROOT
BRANCH   9  12
ATOM     12  C   UNL     1       1.290   7.495  -0.435  0.00  0.00    +0.197 C 
ATOM     13  O   UNL     1       1.869   7.696  -1.481  0.00  0.00    -0.278 OA
ATOM     14  N   UNL     1       0.737   8.523   0.238  0.00  0.00    -0.331 N 
ATOM     15  H   UNL     1       0.274   8.362   1.075  0.00  0.00    +0.145 HD
ATOM     16  H   UNL     1       0.802   9.424  -0.115  0.00  0.00    +0.145 HD
ENDBRANCH   9  12
BRANCH  10  17
ATOM     17  C   UNL     1       3.612   6.146   0.050  0.00  0.00    +0.020 C 
BRANCH  17  19
ATOM     18  N   UNL     1       5.995   6.148  -0.614  0.00  0.00    -0.310 N 
ATOM     19  C   UNL     1       4.780   5.572  -0.709  0.00  0.00    +0.197 C 
ATOM     20  O   UNL     1       4.628   4.591  -1.406  0.00  0.00    -0.278 OA
ATOM     21  H   UNL     1       6.117   6.932  -0.056  0.00  0.00    +0.149 HD
BRANCH  18  22
ATOM     22  C   UNL     1       7.131   5.589  -1.351  0.00  0.00    +0.100 C 
ATOM     23  C   UNL     1       7.764   4.461  -0.535  0.00  0.00    +0.033 C 
BRANCH  22  30
ATOM     24  C   UNL     1       8.958   5.378  -3.579  0.00  0.00    +0.044 C 
ATOM     25  C   UNL     1       9.028   6.569  -2.658  0.00  0.00    -0.046 A 
ATOM     26  C   UNL     1       9.965   7.560  -2.880  0.00  0.00    +0.004 A 
ATOM     27  C   UNL     1      10.029   8.652  -2.035  0.00  0.00    +0.000 A 
ATOM     28  C   UNL     1       9.154   8.754  -0.969  0.00  0.00    +0.000 A 
ATOM     29  C   UNL     1       8.213   7.765  -0.751  0.00  0.00    +0.006 A 
ATOM     30  C   UNL     1       8.153   6.670  -1.593  0.00  0.00    -0.025 A 
ENDBRANCH  22  30
ENDBRANCH  18  22
ENDBRANCH  17  19
ENDBRANCH  10  17
TORSDOF 5
