REMARK  Name = ZINC04785858
REMARK  2 active torsions:
REMARK  status: ('A' for Active; 'I' for Inactive)
REMARK    1  A    between atoms: C_17  and  C_21
REMARK    2  A    between atoms: N_22  and  N_23
REMARK                            x       y       z     vdW  Elec       q    Type
REMARK                         _______ _______ _______ _____ _____    ______ ____
ROOT
ATOM      1  C   UNL     1       4.523   7.902   2.572  0.00  0.00    +0.004 A 
ATOM      2  C   UNL     1       3.291   8.529   2.540  0.00  0.00    +0.002 A 
ATOM      3  C   UNL     1       2.212   7.888   1.957  0.00  0.00    +0.031 A 
ATOM      4  C   UNL     1       2.371   6.634   1.411  0.00  0.00    +0.136 A 
ATOM      5  C   UNL     1       3.604   5.995   1.427  0.00  0.00    +0.154 A 
ATOM      6  C   UNL     1       4.683   6.648   2.023  0.00  0.00    +0.048 A 
ATOM      7  O   UNL     1       3.797   4.780   0.888  0.00  0.00    -0.452 OA
ATOM      8  C   UNL     1       2.876   3.824   0.662  0.00  0.00    +0.154 A 
ATOM      9  C   UNL     1       3.305   2.496   0.556  0.00  0.00    +0.050 A 
ATOM     10  C   UNL     1       2.440   1.453   0.296  0.00  0.00    +0.030 A 
ATOM     11  C   UNL     1       1.090   1.755   0.135  0.00  0.00    +0.049 A 
ATOM     12  C   UNL     1       0.641   3.096   0.245  0.00  0.00    +0.037 A 
ATOM     13  C   UNL     1       1.530   4.125   0.512  0.00  0.00    +0.145 A 
ATOM     14  S   UNL     1       1.002   5.799   0.669  0.00  0.00    +0.033 S 
ATOM     15  O   UNL     1       0.863   6.316  -0.647  0.00  0.00    -0.164 OA
ATOM     16  O   UNL     1      -0.057   5.813   1.617  0.00  0.00    -0.164 OA
ATOM     17  C   UNL     1      -0.803   3.056   0.026  0.00  0.00    +0.022 A 
ATOM     18  C   UNL     1      -1.126   1.750  -0.200  0.00  0.00    +0.093 A 
ATOM     19  N   UNL     1      -0.001   0.976  -0.130  0.00  0.00    -0.360 N 
ATOM     20  H   UNL     1       0.020   0.014  -0.253  0.00  0.00    +0.165 HD
ENDROOT
BRANCH  17  21
ATOM     21  C   UNL     1      -1.728   4.201   0.041  0.00  0.00    +0.140 C 
ATOM     22  N   UNL     1      -3.008   4.004  -0.050  0.00  0.00    -0.186 NA
BRANCH  22  23
ATOM     23  N   UNL     1      -3.881   5.096  -0.142  0.00  0.00    -0.191 N 
ATOM     24  C   UNL     1      -5.213   4.896  -0.134  0.00  0.00    +0.317 C 
ATOM     25  O   UNL     1      -5.971   5.848  -0.118  0.00  0.00    -0.251 OA
ATOM     26  N   UNL     1      -5.707   3.642  -0.143  0.00  0.00    -0.312 N 
ATOM     27  H   UNL     1      -3.526   5.996  -0.212  0.00  0.00    +0.179 HD
ATOM     28  H   UNL     1      -5.106   2.884  -0.081  0.00  0.00    +0.147 HD
ATOM     29  H   UNL     1      -6.664   3.498  -0.213  0.00  0.00    +0.147 HD
ENDBRANCH  22  23
ENDBRANCH  17  21
TORSDOF 2
