REMARK  Name = ZINC03838469
REMARK  15 active torsions:
REMARK  status: ('A' for Active; 'I' for Inactive)
REMARK    1  A    between atoms: C_1  and  O_2
REMARK    2  A    between atoms: O_2  and  C_3
REMARK    3  A    between atoms: C_5  and  S_33
REMARK    4  A    between atoms: C_8  and  C_9
REMARK    5  A    between atoms: N_11  and  C_12
REMARK    6  A    between atoms: C_15  and  C_23
REMARK    7  A    between atoms: C_17  and  O_22
REMARK    8  A    between atoms: C_19  and  O_21
REMARK    9  A    between atoms: N_25  and  C_26
REMARK   10  A    between atoms: C_26  and  C_27
REMARK   11  A    between atoms: C_27  and  C_28
REMARK   12  A    between atoms: C_28  and  C_29
REMARK   13  A    between atoms: C_29  and  O_31
REMARK   14  A    between atoms: O_31  and  C_32
REMARK   15  A    between atoms: S_33  and  C_34
REMARK                            x       y       z     vdW  Elec       q    Type
REMARK                         _______ _______ _______ _____ _____    ______ ____
ROOT
ATOM      1  C   UNL     1      -2.807   2.135   0.046  0.00  0.00    +0.128 C 
ATOM      2  C   UNL     1      -1.940   2.026   1.266  0.00  0.00    +0.006 C 
ATOM      3  C   UNL     1      -0.710   1.567   1.247  0.00  0.00    +0.015 C 
ATOM      4  C   UNL     1      -0.013   1.086   0.008  0.00  0.00    +0.074 C 
ATOM      5  C   UNL     1      -0.747   1.590  -1.236  0.00  0.00    +0.149 C 
ATOM      6  C   UNL     1      -2.240   1.271  -1.083  0.00  0.00    +0.167 C 
ENDROOT
BRANCH   1   9
ATOM      7  C   UNL     1      -3.741   4.382   0.172  0.00  0.00    +0.248 C 
ATOM      8  O   UNL     1      -4.495   3.988   1.042  0.00  0.00    -0.270 OA
ATOM      9  N   UNL     1      -2.858   3.532  -0.391  0.00  0.00    -0.302 N 
ATOM     10  H   UNL     1      -2.257   3.846  -1.084  0.00  0.00    +0.150 HD
BRANCH   7  16
ATOM     11  C   UNL     1      -4.714   6.672   0.314  0.00  0.00    +0.133 A 
ATOM     12  C   UNL     1      -4.751   7.991  -0.102  0.00  0.00    +0.061 A 
ATOM     13  C   UNL     1      -3.883   8.428  -1.096  0.00  0.00    +0.011 A 
ATOM     14  C   UNL     1      -2.973   7.543  -1.673  0.00  0.00    +0.015 A 
ATOM     15  C   UNL     1      -2.926   6.241  -1.267  0.00  0.00    +0.018 A 
ATOM     16  C   UNL     1      -3.792   5.786  -0.267  0.00  0.00    +0.078 A 
BRANCH  11  18
ATOM     17  C   UNL     1      -6.472   7.196   1.823  0.00  0.00    +0.277 C 
ATOM     18  O   UNL     1      -5.562   6.237   1.280  0.00  0.00    -0.494 OA
ENDBRANCH  11  18
BRANCH  13  19
ATOM     19  S   UNL     1      -3.934  10.107  -1.630  0.00  0.00    -0.128 S 
ATOM     20  C   UNL     1      -2.651  10.200  -2.909  0.00  0.00    +0.090 C 
ENDBRANCH  13  19
ENDBRANCH   7  16
ENDBRANCH   1   9
BRANCH   3  21
ATOM     21  C   UNL     1       0.028   1.523   2.519  0.00  0.00    +0.240 C 
ATOM     22  O   UNL     1      -0.503   1.905   3.544  0.00  0.00    -0.271 OA
ATOM     23  N   UNL     1       1.294   1.060   2.548  0.00  0.00    -0.312 N 
ATOM     24  H   UNL     1       1.718   0.756   1.730  0.00  0.00    +0.149 HD
BRANCH  23  25
ATOM     25  C   UNL     1       2.029   1.017   3.814  0.00  0.00    +0.105 C 
BRANCH  25  26
ATOM     26  C   UNL     1       3.430   0.454   3.571  0.00  0.00    +0.030 C 
BRANCH  26  27
ATOM     27  C   UNL     1       4.198   0.408   4.894  0.00  0.00    +0.122 C 
BRANCH  27  28
ATOM     28  C   UNL     1       5.579  -0.146   4.655  0.00  0.00    +0.307 C 
ATOM     29  O   UNL     1       5.915  -0.471   3.541  0.00  0.00    -0.251 OA
BRANCH  28  30
ATOM     30  O   UNL     1       6.436  -0.278   5.679  0.00  0.00    -0.468 OA
ATOM     31  C   UNL     1       7.749  -0.819   5.375  0.00  0.00    +0.280 C 
ENDBRANCH  28  30
ENDBRANCH  27  28
ENDBRANCH  26  27
ENDBRANCH  25  26
ENDBRANCH  23  25
ENDBRANCH   3  21
BRANCH   6  32
ATOM     32  O   UNL     1      -2.921   1.563  -2.304  0.00  0.00    -0.387 OA
ATOM     33  H   UNL     1      -2.599   1.058  -3.064  0.00  0.00    +0.210 HD
ENDBRANCH   6  32
BRANCH   5  34
ATOM     34  O   UNL     1      -0.230   0.937  -2.397  0.00  0.00    -0.389 OA
ATOM     35  H   UNL     1       0.714   1.087  -2.544  0.00  0.00    +0.210 HD
ENDBRANCH   5  34
TORSDOF 12
