REMARK  Name = ZINC62131602
REMARK  6 active torsions:
REMARK  status: ('A' for Active; 'I' for Inactive)
REMARK    1  A    between atoms: C_6  and  C_7
REMARK    2  A    between atoms: C_7  and  C_8
REMARK    3  A    between atoms: C_7  and  O_26
REMARK    4  A    between atoms: C_8  and  N_9
REMARK    5  A    between atoms: C_10  and  C_12
REMARK    6  A    between atoms: N_14  and  C_15
REMARK                            x       y       z     vdW  Elec       q    Type
REMARK                         _______ _______ _______ _____ _____    ______ ____
ROOT
ATOM      1  C   UNL     1      -4.712  -3.100   2.631  0.00  0.00    +0.303 C 
ATOM      2  O   UNL     1      -5.295  -3.318   1.589  0.00  0.00    -0.265 OA
ATOM      3  N   UNL     1      -5.227  -3.541   3.796  0.00  0.00    -0.278 N 
ATOM      4  H   UNL     1      -4.730  -3.425   4.620  0.00  0.00    +0.155 HD
ENDROOT
BRANCH   3   5
ATOM      5  C   UNL     1      -6.479  -4.163   3.816  0.00  0.00    +0.034 A 
ATOM      6  C   UNL     1      -7.333  -3.972   4.895  0.00  0.00    +0.025 A 
ATOM      7  C   UNL     1      -8.569  -4.586   4.915  0.00  0.00    +0.025 A 
ATOM      8  C   UNL     1      -8.959  -5.396   3.856  0.00  0.00    +0.037 A 
ATOM      9  C   UNL     1      -8.105  -5.587   2.777  0.00  0.00    -0.024 A 
ATOM     10  C   UNL     1      -6.872  -4.969   2.754  0.00  0.00    +0.028 A 
ATOM     11  C   UNL     1      -8.533  -6.465   1.629  0.00  0.00    +0.046 C 
ATOM     12  C   UNL     1      -9.396  -7.611   2.156  0.00  0.00    +0.101 C 
ATOM     13  C   UNL     1     -10.461  -7.072   3.072  0.00  0.00    +0.218 C 
ATOM     14  O   UNL     1     -11.556  -7.592   3.089  0.00  0.00    -0.275 OA
ATOM     15  N   UNL     1     -10.212  -6.019   3.873  0.00  0.00    -0.285 N 
ATOM     16  H   UNL     1     -10.905  -5.691   4.466  0.00  0.00    +0.155 HD
ENDBRANCH   3   5
BRANCH   1  18
ATOM     17  N   UNL     1      -2.910  -1.904   1.457  0.00  0.00    -0.305 N 
ATOM     18  C   UNL     1      -3.425  -2.344   2.622  0.00  0.00    +0.299 C 
ATOM     19  O   UNL     1      -2.842  -2.126   3.664  0.00  0.00    -0.265 OA
ATOM     20  H   UNL     1      -3.375  -2.078   0.624  0.00  0.00    +0.149 HD
BRANCH  17  21
ATOM     21  C   UNL     1      -1.646  -1.162   1.448  0.00  0.00    +0.140 C 
BRANCH  21  22
ATOM     22  C   UNL     1      -1.288  -0.782   0.010  0.00  0.00    +0.162 C 
BRANCH  22  28
ATOM     23  C   UNL     1       0.001   1.364   0.015  0.00  0.00    +0.009 A 
ATOM     24  C   UNL     1       1.192   2.064   0.006  0.00  0.00    +0.039 A 
ATOM     25  C   UNL     1       2.396   1.382  -0.015  0.00  0.00    +0.123 A 
ATOM     26  C   UNL     1       2.405  -0.003  -0.029  0.00  0.00    +0.039 A 
ATOM     27  C   UNL     1       1.213  -0.702  -0.021  0.00  0.00    +0.009 A 
ATOM     28  C   UNL     1       0.011  -0.019   0.001  0.00  0.00    -0.017 A 
ATOM     29  F   UNL     1       3.561   2.066  -0.024  0.00  0.00    -0.205 F 
ENDBRANCH  22  28
BRANCH  22  30
ATOM     30  O   UNL     1      -1.150  -1.967  -0.776  0.00  0.00    -0.386 OA
ATOM     31  H   UNL     1      -0.463  -2.570  -0.461  0.00  0.00    +0.210 HD
ENDBRANCH  22  30
ENDBRANCH  21  22
ENDBRANCH  17  21
ENDBRANCH   1  18
TORSDOF 6
