REMARK  Name = ZINC20833112
REMARK  10 active torsions:
REMARK  status: ('A' for Active; 'I' for Inactive)
REMARK    1  A    between atoms: C_1  and  C_2
REMARK    2  A    between atoms: C_2  and  C_3
REMARK    3  A    between atoms: C_2  and  C_4
REMARK    4  A    between atoms: C_2  and  C_5
REMARK    5  A    between atoms: N_7  and  N_8
REMARK    6  A    between atoms: C_9  and  C_11
REMARK    7  A    between atoms: C_11  and  S_12
REMARK    8  A    between atoms: S_12  and  C_13
REMARK    9  A    between atoms: N_18  and  N_19
REMARK   10  A    between atoms: C_20  and  C_21
REMARK                            x       y       z     vdW  Elec       q    Type
REMARK                         _______ _______ _______ _____ _____    ______ ____
ROOT
ATOM      1  C   UNL     1       5.136  -6.473  -0.084  0.00  0.00    +0.211 A 
ATOM      2  N   UNL     1       3.795  -6.214  -0.069  0.00  0.00    -0.186 NA
ATOM      3  C   UNL     1       3.627  -4.857  -0.059  0.00  0.00    +0.232 A 
ATOM      4  N   UNL     1       4.815  -4.302  -0.073  0.00  0.00    -0.245 N 
ATOM      5  N   UNL     1       5.771  -5.325  -0.084  0.00  0.00    -0.144 NA
ATOM      6  N   UNL     1       2.413  -4.186  -0.044  0.00  0.00    -0.205 N 
ATOM      7  H   UNL     1       1.471  -4.754  -0.039  0.00  0.00    +0.177 HD
ATOM      8  H   UNL     1       4.909  -3.206  -0.075  0.00  0.00    +0.192 HD
ENDROOT
BRANCH   6   9
ATOM      9  N   UNL     1       2.387  -2.785  -0.036  0.00  0.00    -0.188 NA
ATOM     10  C   UNL     1       1.250  -2.157  -0.022  0.00  0.00    +0.139 C 
BRANCH  10  11
ATOM     11  C   UNL     1       1.223  -0.683  -0.013  0.00  0.00    +0.013 A 
ATOM     12  C   UNL     1       0.002  -0.004   0.002  0.00  0.00    +0.012 A 
ATOM     13  C   UNL     1      -0.017   1.375   0.010  0.00  0.00    +0.021 A 
ATOM     14  C   UNL     1       1.171   2.087   0.002  0.00  0.00    +0.042 A 
ATOM     15  C   UNL     1       2.385   1.421  -0.013  0.00  0.00    +0.040 A 
ATOM     16  C   UNL     1       2.419   0.041  -0.021  0.00  0.00    +0.051 A 
ATOM     17 CL   UNL     1       3.941  -0.792  -0.040  0.00  0.00    -0.083 Cl
ATOM     18 CL   UNL     1       1.138   3.823   0.012  0.00  0.00    -0.083 Cl
ENDBRANCH  10  11
ENDBRANCH   6   9
BRANCH   1  19
ATOM     19  S   UNL     1       5.883  -8.069  -0.101  0.00  0.00    -0.075 S 
BRANCH  19  20
ATOM     20  C   UNL     1       7.663  -7.721  -0.116  0.00  0.00    +0.174 C 
BRANCH  20  22
ATOM     21  N   UNL     1       9.776  -9.007  -0.145  0.00  0.00    -0.234 N 
ATOM     22  C   UNL     1       8.428  -9.019  -0.132  0.00  0.00    +0.239 C 
ATOM     23  O   UNL     1       7.832 -10.075  -0.132  0.00  0.00    -0.273 OA
ATOM     24  H   UNL     1      10.317  -8.049  -0.144  0.00  0.00    +0.173 HD
BRANCH  21  27
ATOM     25  C   UNL     1      11.835 -10.201  -0.172  0.00  0.00    +0.234 C 
ATOM     26  O   UNL     1      12.432  -9.145  -0.172  0.00  0.00    -0.274 OA
ATOM     27  N   UNL     1      10.488 -10.213  -0.159  0.00  0.00    -0.234 N 
ATOM     28  H   UNL     1       9.946 -11.171  -0.160  0.00  0.00    +0.173 HD
BRANCH  25  30
ATOM     29  C   UNL     1      14.102 -11.206  -0.201  0.00  0.00    +0.020 C 
ATOM     30  C   UNL     1      12.601 -11.499  -0.188  0.00  0.00    +0.040 C 
ATOM     31  C   UNL     1      12.251 -12.312   1.060  0.00  0.00    +0.020 C 
ATOM     32  C   UNL     1      12.226 -12.297  -1.438  0.00  0.00    +0.020 C 
ENDBRANCH  25  30
ENDBRANCH  21  27
ENDBRANCH  20  22
ENDBRANCH  19  20
ENDBRANCH   1  19
TORSDOF 7
