REMARK  Name = ZINC04728129
REMARK  5 active torsions:
REMARK  status: ('A' for Active; 'I' for Inactive)
REMARK    1  A    between atoms: C_1  and  N_2
REMARK    2  A    between atoms: N_20  and  C_23
REMARK    3  A    between atoms: C_23  and  C_24
REMARK    4  A    between atoms: C_26  and  C_30
REMARK    5  A    between atoms: C_27  and  N_29
REMARK                            x       y       z     vdW  Elec       q    Type
REMARK                         _______ _______ _______ _____ _____    ______ ____
ROOT
ATOM      1  C   UNL     1      -2.719   4.796   4.921  0.00  0.00    +0.152 C 
ATOM      2  N   UNL     1      -3.314   4.338   3.663  0.00  0.00    -0.311 N 
ATOM      3  C   UNL     1      -4.591   3.817   3.667  0.00  0.00    +0.055 A 
ATOM      4  C   UNL     1      -5.323   3.720   4.846  0.00  0.00    +0.026 A 
ATOM      5  C   UNL     1      -6.596   3.192   4.819  0.00  0.00    +0.002 A 
ATOM      6  C   UNL     1      -7.156   2.756   3.627  0.00  0.00    +0.001 A 
ATOM      7  C   UNL     1      -6.455   2.842   2.457  0.00  0.00    +0.013 A 
ATOM      8  C   UNL     1      -5.164   3.375   2.462  0.00  0.00    +0.041 A 
ATOM      9  C   UNL     1      -4.382   3.485   1.222  0.00  0.00    +0.149 A 
ATOM     10  C   UNL     1      -3.126   4.009   1.289  0.00  0.00    +0.084 A 
ATOM     11  C   UNL     1      -2.606   4.432   2.525  0.00  0.00    +0.260 A 
ATOM     12  O   UNL     1      -1.480   4.898   2.566  0.00  0.00    -0.267 OA
ATOM     13  C   UNL     1      -2.291   4.139   0.045  0.00  0.00    +0.147 C 
ATOM     14  C   UNL     1      -1.196   3.118   0.030  0.00  0.00    -0.001 A 
ATOM     15  C   UNL     1      -1.234   1.740   0.017  0.00  0.00    +0.007 A 
ATOM     16  C   UNL     1      -0.013   1.076   0.008  0.00  0.00    +0.000 A 
ATOM     17  C   UNL     1       1.181   1.768   0.000  0.00  0.00    +0.002 A 
ATOM     18  C   UNL     1       1.227   3.153   0.007  0.00  0.00    +0.024 A 
ATOM     19  C   UNL     1       0.008   3.832   0.023  0.00  0.00    +0.041 A 
ATOM     20  N   UNL     1      -0.241   5.193   0.033  0.00  0.00    -0.266 N 
ATOM     21  C   UNL     1      -1.562   5.467   0.048  0.00  0.00    +0.241 C 
ATOM     22  O   UNL     1      -2.069   6.568   0.062  0.00  0.00    -0.274 OA
ATOM     23  C   UNL     1      -3.147   4.026  -1.183  0.00  0.00    +0.110 C 
ATOM     24  C   UNL     1      -4.396   3.505  -1.112  0.00  0.00    +0.199 C 
ATOM     25  O   UNL     1      -4.910   3.072   0.053  0.00  0.00    -0.440 OA
ENDROOT
BRANCH  24  26
ATOM     26  N   UNL     1      -5.153   3.416  -2.254  0.00  0.00    -0.328 N 
ATOM     27  H   UNL     1      -4.793   3.724  -3.100  0.00  0.00    +0.145 HD
ATOM     28  H   UNL     1      -6.048   3.045  -2.215  0.00  0.00    +0.145 HD
ENDBRANCH  24  26
BRANCH  23  29
ATOM     29  C   UNL     1      -2.638   4.474  -2.445  0.00  0.00    +0.102 C 
ATOM     30  N   UNL     1      -2.233   4.829  -3.445  0.00  0.00    -0.191 NA
ENDBRANCH  23  29
BRANCH  20  31
ATOM     31  C   UNL     1       0.808   6.216   0.029  0.00  0.00    +0.140 C 
BRANCH  31  32
ATOM     32  C   UNL     1       1.152   6.576  -1.394  0.00  0.00    -0.015 C 
ATOM     33  C   UNL     1       1.094   7.824  -1.786  0.00  0.00    +0.005 C 
ENDBRANCH  31  32
ENDBRANCH  20  31
TORSDOF 4
