REMARK  Name = ZINC14550700
REMARK  2 active torsions:
REMARK  status: ('A' for Active; 'I' for Inactive)
REMARK    1  A    between atoms: C_14  and  C_17
REMARK    2  A    between atoms: C_20  and  N_23
REMARK                            x       y       z     vdW  Elec       q    Type
REMARK                         _______ _______ _______ _____ _____    ______ ____
ROOT
ATOM      1  C   UNL     1       0.720   0.967  -0.227  0.00  0.00    +0.000 A 
ATOM      2  C   UNL     1      -0.571   1.458  -0.163  0.00  0.00    +0.002 A 
ATOM      3  C   UNL     1      -0.792   2.818  -0.086  0.00  0.00    +0.023 A 
ATOM      4  C   UNL     1       0.278   3.704  -0.083  0.00  0.00    +0.031 A 
ATOM      5  C   UNL     1       1.582   3.199  -0.141  0.00  0.00    -0.019 A 
ATOM      6  C   UNL     1       1.792   1.839  -0.219  0.00  0.00    +0.006 A 
ATOM      7  C   UNL     1       2.694   4.173  -0.095  0.00  0.00    +0.049 C 
ATOM      8  C   UNL     1       4.022   3.878  -0.691  0.00  0.00    -0.023 C 
ATOM      9  C   UNL     1       4.557   5.016  -1.118  0.00  0.00    -0.030 C 
ATOM     10  C   UNL     1       3.593   6.176  -0.864  0.00  0.00    +0.033 C 
ATOM     11  C   UNL     1       2.238   5.455  -0.855  0.00  0.00    +0.029 C 
ATOM     12  C   UNL     1       1.136   6.060  -0.005  0.00  0.00    +0.105 C 
ATOM     13  N   UNL     1       0.028   5.081  -0.032  0.00  0.00    -0.336 N 
ATOM     14  H   UNL     1      -0.888   5.398  -0.013  0.00  0.00    +0.147 HD
ENDROOT
BRANCH  12  15
ATOM     15  C   UNL     1       1.620   6.261   1.408  0.00  0.00    -0.027 A 
ATOM     16  C   UNL     1       1.453   5.257   2.345  0.00  0.00    +0.008 A 
ATOM     17  C   UNL     1       1.901   5.439   3.640  0.00  0.00    +0.033 A 
ATOM     18  C   UNL     1       2.507   6.628   4.001  0.00  0.00    +0.126 A 
ATOM     19  C   UNL     1       2.669   7.633   3.066  0.00  0.00    +0.033 A 
ATOM     20  C   UNL     1       2.225   7.449   1.770  0.00  0.00    +0.008 A 
BRANCH  18  21
ATOM     21  N   UNL     1       2.982   6.825   5.389  0.00  0.00    +0.056 N 
ATOM     22  O   UNL     1       3.516   7.872   5.707  0.00  0.00    -0.126 OA
ATOM     23  O   UNL     1       2.838   5.939   6.213  0.00  0.00    -0.126 OA
ENDBRANCH  18  21
ENDBRANCH  12  15
TORSDOF 2
