REMARK  Name = ZINC50579720
REMARK  9 active torsions:
REMARK  status: ('A' for Active; 'I' for Inactive)
REMARK    1  A    between atoms: C_1  and  C_2
REMARK    2  A    between atoms: C_4  and  C_24
REMARK    3  A    between atoms: N_6  and  C_8
REMARK    4  A    between atoms: C_8  and  C_9
REMARK    5  A    between atoms: C_9  and  N_10
REMARK    6  A    between atoms: C_11  and  C_13
REMARK    7  A    between atoms: C_13  and  N_14
REMARK    8  A    between atoms: N_17  and  C_18
REMARK    9  A    between atoms: C_18  and  C_19
REMARK                            x       y       z     vdW  Elec       q    Type
REMARK                         _______ _______ _______ _____ _____    ______ ____
ROOT
ATOM      1  N   UNL     1       1.198  -2.551   4.899  0.00  0.00    -0.316 N 
ATOM      2  C   UNL     1       0.624  -2.318   6.096  0.00  0.00    +0.230 C 
ATOM      3  O   UNL     1      -0.423  -1.709   6.158  0.00  0.00    -0.274 OA
ATOM      4  H   UNL     1       2.035  -3.038   4.849  0.00  0.00    +0.149 HD
ENDROOT
BRANCH   1   5
ATOM      5  C   UNL     1       0.557  -2.069   3.673  0.00  0.00    +0.086 C 
BRANCH   5   6
ATOM      6  C   UNL     1       1.408  -2.463   2.464  0.00  0.00    -0.060 C 
BRANCH   6  12
ATOM      7  C   UNL     1      -0.019   1.526   0.010  0.00  0.00    +0.005 C 
ATOM      8  C   UNL     1       0.002  -0.004   0.002  0.00  0.00    -0.031 C 
ATOM      9  C   UNL     1       0.724  -0.499  -1.255  0.00  0.00    +0.003 C 
ATOM     10  C   UNL     1       0.808  -2.027  -1.215  0.00  0.00    -0.031 C 
ATOM     11  C   UNL     1       1.518  -2.460   0.070  0.00  0.00    -0.076 C 
ATOM     12  N   UNL     1       0.765  -1.980   1.235  0.00  0.00    +0.381 N 
ATOM     13  C   UNL     1       0.742  -0.512   1.241  0.00  0.00    -0.076 C 
ATOM     14  C   UNL     1       1.595  -2.527  -2.428  0.00  0.00    +0.005 C 
ATOM     15  H   UNL     1      -0.180  -2.330   1.191  0.00  0.00    -0.082 HD
ENDBRANCH   6  12
ENDBRANCH   5   6
ENDBRANCH   1   5
BRANCH   2  16
ATOM     16  C   UNL     1       1.282  -2.814   7.357  0.00  0.00    +0.201 C 
BRANCH  16  17
ATOM     17  N   UNL     1       0.468  -2.437   8.515  0.00  0.00    -0.291 N 
ATOM     18  C   UNL     1       0.864  -2.777   9.757  0.00  0.00    +0.300 C 
ATOM     19  O   UNL     1       1.897  -3.397   9.917  0.00  0.00    -0.253 OA
ATOM     20  N   UNL     1       0.115  -2.430  10.822  0.00  0.00    -0.299 N 
ATOM     21  H   UNL     1      -0.356  -1.942   8.387  0.00  0.00    +0.151 HD
ATOM     22  H   UNL     1      -0.710  -1.935  10.695  0.00  0.00    +0.150 HD
BRANCH  20  23
ATOM     23  C   UNL     1       0.545  -2.800  12.173  0.00  0.00    +0.109 C 
BRANCH  23  24
ATOM     24  C   UNL     1      -0.476  -2.289  13.191  0.00  0.00    +0.006 C 
ATOM     25  C   UNL     1      -0.451  -0.747  13.238  0.00  0.00    +0.005 C 
ATOM     26  C   UNL     1      -0.670  -0.408  14.733  0.00  0.00    +0.000 C 
ATOM     27  C   UNL     1       0.137  -1.515  15.456  0.00  0.00    +0.000 C 
ATOM     28  C   UNL     1      -0.103  -2.777  14.602  0.00  0.00    +0.005 C 
ENDBRANCH  23  24
ENDBRANCH  20  23
ENDBRANCH  16  17
ENDBRANCH   2  16
TORSDOF 7
