REMARK  Name = ZINC12925692
REMARK  7 active torsions:
REMARK  status: ('A' for Active; 'I' for Inactive)
REMARK    1  A    between atoms: C_1  and  C_2
REMARK    2  A    between atoms: C_5  and  N_8
REMARK    3  A    between atoms: N_11  and  C_12
REMARK    4  A    between atoms: C_12  and  C_13
REMARK    5  A    between atoms: N_15  and  C_16
REMARK    6  A    between atoms: C_16  and  C_18
REMARK    7  A    between atoms: C_16  and  C_19
REMARK                            x       y       z     vdW  Elec       q    Type
REMARK                         _______ _______ _______ _____ _____    ______ ____
ROOT
ATOM      1  C   UNL     1       4.726   1.358  -0.130  0.00  0.00    +0.231 C 
ATOM      2  O   UNL     1       4.671   0.172   0.117  0.00  0.00    -0.274 OA
ATOM      3  N   UNL     1       5.922   1.962  -0.270  0.00  0.00    -0.304 N 
ATOM      4  H   UNL     1       5.966   2.911  -0.468  0.00  0.00    +0.149 HD
ENDROOT
BRANCH   3   5
ATOM      5  C   UNL     1       7.156   1.187  -0.124  0.00  0.00    +0.136 C 
ATOM      6  C   UNL     1       7.535   1.105   1.356  0.00  0.00    +0.036 C 
BRANCH   5   7
ATOM      7  C   UNL     1       8.266   1.860  -0.890  0.00  0.00    +0.126 A 
ATOM      8  C   UNL     1       9.199   1.221  -1.609  0.00  0.00    +0.055 A 
ATOM      9  C   UNL     1      10.063   2.263  -2.176  0.00  0.00    +0.020 A 
ATOM     10  C   UNL     1      11.188   2.255  -3.000  0.00  0.00    +0.011 A 
ATOM     11  C   UNL     1      11.779   3.436  -3.352  0.00  0.00    +0.001 A 
ATOM     12  C   UNL     1      11.266   4.642  -2.895  0.00  0.00    +0.004 A 
ATOM     13  C   UNL     1      10.154   4.669  -2.080  0.00  0.00    +0.047 A 
ATOM     14  C   UNL     1       9.539   3.480  -1.710  0.00  0.00    +0.135 A 
ATOM     15  O   UNL     1       8.467   3.188  -0.946  0.00  0.00    -0.458 OA
ENDBRANCH   5   7
ENDBRANCH   3   5
BRANCH   1  16
ATOM     16  C   UNL     1       3.456   2.155  -0.281  0.00  0.00    +0.201 C 
BRANCH  16  20
ATOM     17  N   UNL     1      -0.011   0.966   0.007  0.00  0.00    -0.269 N 
ATOM     18  C   UNL     1       1.052   1.775  -0.173  0.00  0.00    +0.304 C 
ATOM     19  O   UNL     1       0.884   2.954  -0.416  0.00  0.00    -0.252 OA
ATOM     20  N   UNL     1       2.301   1.276  -0.085  0.00  0.00    -0.291 N 
ATOM     21  H   UNL     1       0.120   0.012   0.123  0.00  0.00    +0.156 HD
ATOM     22  H   UNL     1       2.435   0.335   0.109  0.00  0.00    +0.151 HD
BRANCH  17  27
ATOM     23  C   UNL     1      -5.252   3.138   0.066  0.00  0.00    +0.044 C 
ATOM     24  C   UNL     1      -3.860   2.561   0.050  0.00  0.00    -0.050 A 
ATOM     25  C   UNL     1      -3.644   1.293  -0.457  0.00  0.00    +0.005 A 
ATOM     26  C   UNL     1      -2.369   0.761  -0.473  0.00  0.00    +0.023 A 
ATOM     27  C   UNL     1      -1.304   1.502   0.022  0.00  0.00    +0.035 A 
ATOM     28  C   UNL     1      -1.524   2.773   0.536  0.00  0.00    +0.023 A 
ATOM     29  C   UNL     1      -2.801   3.301   0.543  0.00  0.00    +0.005 A 
ENDBRANCH  17  27
ENDBRANCH  16  20
ENDBRANCH   1  16
TORSDOF 5
