REMARK  Name = ZINC46199146
REMARK  9 active torsions:
REMARK  status: ('A' for Active; 'I' for Inactive)
REMARK    1  A    between atoms: C_1  and  C_2
REMARK    2  A    between atoms: C_2  and  C_3
REMARK    3  A    between atoms: C_2  and  C_4
REMARK    4  A    between atoms: C_4  and  N_5
REMARK    5  A    between atoms: N_5  and  C_6
REMARK    6  A    between atoms: C_9  and  C_11
REMARK    7  A    between atoms: C_11  and  N_12
REMARK    8  A    between atoms: C_15  and  C_19
REMARK    9  A    between atoms: C_15  and  C_20
REMARK                            x       y       z     vdW  Elec       q    Type
REMARK                         _______ _______ _______ _____ _____    ______ ____
ROOT
ATOM      1  N   UNL     1       3.781   2.997  -2.364  0.00  0.00    -0.215 N 
ATOM      2  C   UNL     1       3.821   3.327  -3.670  0.00  0.00    +0.251 C 
ATOM      3  O   UNL     1       3.869   2.570  -4.616  0.00  0.00    -0.272 OA
ATOM      4  C   UNL     1       3.794   4.842  -3.711  0.00  0.00    +0.135 C 
ATOM      5  N   UNL     1       3.736   5.226  -2.290  0.00  0.00    -0.281 N 
ATOM      6  C   UNL     1       3.728   4.082  -1.583  0.00  0.00    +0.310 C 
ATOM      7  O   UNL     1       3.680   4.038  -0.369  0.00  0.00    -0.252 OA
ATOM      8  C   UNL     1       2.552   5.339  -4.454  0.00  0.00    +0.047 C 
ATOM      9  H   UNL     1       3.707   6.128  -1.934  0.00  0.00    +0.152 HD
ENDROOT
BRANCH   4  10
ATOM     10  C   UNL     1       5.048   5.378  -4.354  0.00  0.00    -0.016 A 
ATOM     11  C   UNL     1       5.697   4.638  -5.325  0.00  0.00    +0.006 A 
ATOM     12  C   UNL     1       6.846   5.129  -5.915  0.00  0.00    +0.000 A 
ATOM     13  C   UNL     1       7.347   6.360  -5.534  0.00  0.00    +0.000 A 
ATOM     14  C   UNL     1       6.697   7.100  -4.564  0.00  0.00    +0.000 A 
ATOM     15  C   UNL     1       5.545   6.611  -3.977  0.00  0.00    +0.006 A 
ENDBRANCH   4  10
BRANCH   1  16
ATOM     16  C   UNL     1       3.788   1.621  -1.863  0.00  0.00    +0.213 C 
BRANCH  16  18
ATOM     17  N   UNL     1       2.126  -0.091  -1.210  0.00  0.00    -0.297 N 
ATOM     18  C   UNL     1       2.371   1.121  -1.748  0.00  0.00    +0.234 C 
ATOM     19  O   UNL     1       1.452   1.808  -2.139  0.00  0.00    -0.274 OA
BRANCH  17  20
ATOM     20  C   UNL     1       3.225  -0.879  -0.647  0.00  0.00    +0.076 C 
ATOM     21  C   UNL     1       2.893  -2.273  -0.112  0.00  0.00    +0.024 C 
ATOM     22  C   UNL     1       3.209  -1.136   0.861  0.00  0.00    +0.024 C 
ENDBRANCH  17  20
BRANCH  17  23
ATOM     23  C   UNL     1       0.759  -0.619  -1.188  0.00  0.00    +0.111 C 
BRANCH  23  25
ATOM     24  C   UNL     1      -0.088   1.335   0.119  0.00  0.00    +0.009 C 
ATOM     25  C   UNL     1       0.066  -0.188   0.106  0.00  0.00    +0.000 C 
ATOM     26  C   UNL     1      -1.315  -0.841   0.187  0.00  0.00    +0.009 C 
ENDBRANCH  23  25
ENDBRANCH  17  23
ENDBRANCH  16  18
ENDBRANCH   1  16
TORSDOF 6
