REMARK  Name = ZINC15225533
REMARK  9 active torsions:
REMARK  status: ('A' for Active; 'I' for Inactive)
REMARK    1  A    between atoms: C_1  and  O_2
REMARK    2  A    between atoms: O_2  and  C_3
REMARK    3  A    between atoms: C_3  and  C_5
REMARK    4  A    between atoms: C_5  and  O_6
REMARK    5  A    between atoms: O_6  and  C_7
REMARK    6  A    between atoms: C_10  and  C_14
REMARK    7  A    between atoms: N_15  and  N_16
REMARK    8  A    between atoms: C_17  and  C_19
REMARK    9  A    between atoms: C_19  and  N_45
REMARK                            x       y       z     vdW  Elec       q    Type
REMARK                         _______ _______ _______ _____ _____    ______ ____
ROOT
ATOM      1  C   UNL     1       1.088   1.942  -0.212  0.00  0.00    +0.138 C 
ATOM      2  N   UNL     1      -0.018   1.374   0.161  0.00  0.00    -0.188 NA
ENDROOT
BRANCH   1   6
ATOM      3  C   UNL     1       4.471  -0.434  -1.180  0.00  0.00    +0.135 A 
ATOM      4  C   UNL     1       3.220  -1.026  -1.059  0.00  0.00    +0.047 A 
ATOM      5  C   UNL     1       2.121  -0.260  -0.740  0.00  0.00    +0.013 A 
ATOM      6  C   UNL     1       2.263   1.117  -0.548  0.00  0.00    -0.004 A 
ATOM      7  C   UNL     1       3.522   1.709  -0.671  0.00  0.00    +0.028 A 
ATOM      8  C   UNL     1       4.618   0.934  -0.985  0.00  0.00    +0.060 A 
ATOM      9 BR   UNL     1       6.324   1.733  -1.151  0.00  0.00    -0.046 Br
BRANCH   3  10
ATOM     10  O   UNL     1       5.553  -1.195  -1.490  0.00  0.00    -0.480 OA
BRANCH  10  11
ATOM     11  C   UNL     1       5.331  -2.594  -1.677  0.00  0.00    +0.349 C 
BRANCH  11  12
ATOM     12  C   UNL     1       6.636  -3.269  -2.010  0.00  0.00    +0.345 C 
ATOM     13  O   UNL     1       7.652  -2.619  -2.081  0.00  0.00    -0.247 OA
BRANCH  12  15
ATOM     14  C   UNL     1       7.961  -5.177  -2.546  0.00  0.00    +0.280 C 
ATOM     15  O   UNL     1       6.670  -4.593  -2.230  0.00  0.00    -0.466 OA
ENDBRANCH  12  15
ENDBRANCH  11  12
ENDBRANCH  10  11
ENDBRANCH   3  10
ENDBRANCH   1   6
BRANCH   2  16
ATOM     16  N   UNL     1       0.002   0.072   0.677  0.00  0.00    -0.209 N 
ATOM     17  C   UNL     1      -1.155  -0.563   0.949  0.00  0.00    +0.216 C 
ATOM     18  O   UNL     1      -2.214  -0.008   0.746  0.00  0.00    -0.276 OA
ATOM     19  H   UNL     1       0.849  -0.372   0.840  0.00  0.00    +0.177 HD
BRANCH  17  20
ATOM     20  C   UNL     1      -1.133  -1.964   1.505  0.00  0.00    +0.020 C 
BRANCH  20  26
ATOM     21  C   UNL     1      -3.176  -1.652   2.768  0.00  0.00    -0.050 C 
ATOM     22  C   UNL     1      -4.624  -2.129   2.910  0.00  0.00    +0.141 C 
ATOM     23  O   UNL     1      -4.633  -3.533   3.185  0.00  0.00    -0.383 OA
ATOM     24  C   UNL     1      -3.993  -4.321   2.177  0.00  0.00    +0.141 C 
ATOM     25  C   UNL     1      -2.539  -3.865   2.028  0.00  0.00    -0.050 C 
ATOM     26  N   UNL     1      -2.525  -2.426   1.691  0.00  0.00    +0.388 N 
ATOM     27  H   UNL     1      -3.044  -2.283   0.816  0.00  0.00    -0.081 HD
ENDBRANCH  20  26
ENDBRANCH  17  20
ENDBRANCH   2  16
TORSDOF 8
