REMARK  Name = ZINC20464129
REMARK  4 active torsions:
REMARK  status: ('A' for Active; 'I' for Inactive)
REMARK    1  A    between atoms: C_1  and  C_2
REMARK    2  A    between atoms: C_5  and  N_11
REMARK    3  A    between atoms: C_7  and  N_8
REMARK    4  A    between atoms: C_31  and  C_36
REMARK                            x       y       z     vdW  Elec       q    Type
REMARK                         _______ _______ _______ _____ _____    ______ ____
ROOT
ATOM      1  N   UNL     1       0.119  -4.124  -0.515  0.00  0.00    -0.210 N 
ATOM      2  C   UNL     1       0.208  -5.038   0.458  0.00  0.00    +0.232 C 
ATOM      3  O   UNL     1       0.255  -4.796   1.645  0.00  0.00    -0.274 OA
ATOM      4  C   UNL     1       0.239  -6.421  -0.154  0.00  0.00    +0.107 C 
ATOM      5  C   UNL     1       1.625  -7.051   0.077  0.00  0.00    +0.071 C 
ATOM      6  C   UNL     1       2.274  -6.413   1.319  0.00  0.00    +0.021 C 
ATOM      7  C   UNL     1       3.092  -5.219   0.788  0.00  0.00    +0.017 C 
ATOM      8  C   UNL     1       2.850  -5.209  -0.735  0.00  0.00    +0.086 C 
ATOM      9  N   UNL     1       2.452  -6.619  -1.089  0.00  0.00    -0.281 NA
ATOM     10  C   UNL     1       1.517  -6.625  -2.227  0.00  0.00    +0.138 C 
ATOM     11  C   UNL     1       0.153  -6.140  -1.679  0.00  0.00    +0.123 C 
ATOM     12  C   UNL     1       0.074  -4.631  -1.752  0.00  0.00    +0.233 C 
ATOM     13  O   UNL     1      -0.013  -3.983  -2.773  0.00  0.00    -0.274 OA
ATOM     14  C   UNL     1       2.004  -5.744  -3.343  0.00  0.00    +0.004 A 
ATOM     15  C   UNL     1       2.306  -4.403  -3.427  0.00  0.00    +0.009 A 
ATOM     16  C   UNL     1       2.743  -3.866  -4.625  0.00  0.00    +0.021 A 
ATOM     17  C   UNL     1       2.877  -4.680  -5.736  0.00  0.00    +0.046 A 
ATOM     18  C   UNL     1       2.576  -6.025  -5.655  0.00  0.00    -0.011 A 
ATOM     19  C   UNL     1       2.135  -6.573  -4.453  0.00  0.00    +0.043 A 
ATOM     20  N   UNL     1       1.775  -7.881  -4.124  0.00  0.00    -0.283 N 
ATOM     21  C   UNL     1       1.400  -7.996  -2.835  0.00  0.00    +0.243 C 
ATOM     22  O   UNL     1       1.038  -9.009  -2.274  0.00  0.00    -0.273 OA
ATOM     23  C   UNL     1       2.725  -6.903  -6.871  0.00  0.00    +0.047 C 
ATOM     24 CL   UNL     1       3.425  -4.007  -7.239  0.00  0.00    -0.083 Cl
ATOM     25  H   UNL     1       1.792  -8.621  -4.750  0.00  0.00    +0.155 HD
ENDROOT
BRANCH   1  30
ATOM     26  C   UNL     1      -0.080   1.452   0.526  0.00  0.00    +0.046 C 
ATOM     27  C   UNL     1      -0.027  -0.028   0.249  0.00  0.00    -0.020 A 
ATOM     28  C   UNL     1      -1.180  -0.787   0.333  0.00  0.00    +0.007 A 
ATOM     29  C   UNL     1      -1.135  -2.144   0.081  0.00  0.00    +0.024 A 
ATOM     30  C   UNL     1       0.070  -2.746  -0.259  0.00  0.00    +0.046 A 
ATOM     31  C   UNL     1       1.225  -1.982  -0.343  0.00  0.00    +0.057 A 
ATOM     32  C   UNL     1       1.173  -0.624  -0.094  0.00  0.00    +0.131 A 
BRANCH  32  33
ATOM     33  N   UNL     1       2.403   0.193  -0.189  0.00  0.00    +0.057 N 
ATOM     34  O   UNL     1       2.342   1.335  -0.583  0.00  0.00    -0.126 OA
ATOM     35  O   UNL     1       3.470  -0.281   0.126  0.00  0.00    -0.126 OA
ENDBRANCH  32  33
ENDBRANCH   1  30
TORSDOF 2
