REMARK  Name = ZINC32421722
REMARK  13 active torsions:
REMARK  status: ('A' for Active; 'I' for Inactive)
REMARK    1  A    between atoms: C_1  and  C_2
REMARK    2  A    between atoms: C_2  and  O_3
REMARK    3  A    between atoms: O_3  and  C_4
REMARK    4  A    between atoms: C_7  and  N_16
REMARK    5  A    between atoms: C_9  and  S_10
REMARK    6  A    between atoms: S_10  and  N_13
REMARK    7  A    between atoms: N_13  and  C_14
REMARK    8  A    between atoms: N_13  and  C_15
REMARK    9  A    between atoms: C_17  and  C_19
REMARK   10  A    between atoms: C_19  and  C_20
REMARK   11  A    between atoms: C_20  and  C_22
REMARK   12  A    between atoms: C_20  and  N_29
REMARK   13  A    between atoms: C_27  and  C_28
REMARK                            x       y       z     vdW  Elec       q    Type
REMARK                         _______ _______ _______ _____ _____    ______ ____
ROOT
ATOM      1  N   UNL     1       1.048  -5.661  -1.377  0.00  0.00    -0.285 N 
ATOM      2  C   UNL     1       0.605  -6.633  -0.555  0.00  0.00    +0.219 C 
ATOM      3  O   UNL     1      -0.064  -6.348   0.416  0.00  0.00    -0.275 OA
ATOM      4  H   UNL     1       1.520  -5.894  -2.193  0.00  0.00    +0.155 HD
ENDROOT
BRANCH   1   8
ATOM      5  C   UNL     1       0.392  -1.657  -0.416  0.00  0.00    +0.147 A 
ATOM      6  C   UNL     1       0.606  -2.586   0.592  0.00  0.00    +0.049 A 
ATOM      7  C   UNL     1       0.823  -3.912   0.274  0.00  0.00    +0.027 A 
ATOM      8  C   UNL     1       0.827  -4.316  -1.054  0.00  0.00    +0.035 A 
ATOM      9  C   UNL     1       0.613  -3.386  -2.063  0.00  0.00    +0.055 A 
ATOM     10  C   UNL     1       0.391  -2.061  -1.743  0.00  0.00    +0.149 A 
BRANCH  10  11
ATOM     11  S   UNL     1       0.113  -0.881  -3.022  0.00  0.00    +0.064 S 
ATOM     12  O   UNL     1       0.976   0.216  -2.758  0.00  0.00    -0.153 OA
ATOM     13  O   UNL     1       0.145  -1.597  -4.249  0.00  0.00    -0.153 OA
BRANCH  11  14
ATOM     14  N   UNL     1      -1.435  -0.320  -2.842  0.00  0.00    -0.183 NA
ATOM     15  C   UNL     1      -1.696   0.852  -2.003  0.00  0.00    +0.131 C 
ATOM     16  C   UNL     1      -2.543  -0.995  -3.523  0.00  0.00    +0.131 C 
ENDBRANCH  11  14
ENDBRANCH  10  11
BRANCH   5  17
ATOM     17  O   UNL     1       0.178  -0.351  -0.103  0.00  0.00    -0.490 OA
BRANCH  17  19
ATOM     18  C   UNL     1      -0.064   1.494   1.438  0.00  0.00    +0.048 C 
ATOM     19  C   UNL     1       0.193  -0.006   1.284  0.00  0.00    +0.226 C 
ENDBRANCH  17  19
ENDBRANCH   5  17
ENDBRANCH   1   8
BRANCH   2  20
ATOM     20  C   UNL     1       0.940  -8.074  -0.843  0.00  0.00    +0.123 C 
BRANCH  20  21
ATOM     21  C   UNL     1       0.320  -8.966   0.235  0.00  0.00    +0.114 C 
BRANCH  21  22
ATOM     22  C   UNL     1       0.756 -10.393   0.018  0.00  0.00    -0.024 A 
ATOM     23  C   UNL     1       1.336 -10.763  -1.181  0.00  0.00    +0.006 A 
ATOM     24  C   UNL     1       1.736 -12.071  -1.381  0.00  0.00    +0.000 A 
ATOM     25  C   UNL     1       1.556 -13.009  -0.381  0.00  0.00    +0.000 A 
ATOM     26  C   UNL     1       0.977 -12.638   0.818  0.00  0.00    +0.004 A 
ATOM     27  C   UNL     1       0.581 -11.329   1.019  0.00  0.00    -0.045 A 
ATOM     28  C   UNL     1      -0.045 -10.923   2.328  0.00  0.00    +0.044 C 
ENDBRANCH  21  22
BRANCH  21  29
ATOM     29  N   UNL     1      -1.141  -8.885   0.156  0.00  0.00    -0.292 N 
ATOM     30  C   UNL     1      -1.777  -9.266  -0.969  0.00  0.00    +0.298 C 
ATOM     31  O   UNL     1      -1.149  -9.760  -1.886  0.00  0.00    -0.253 OA
ATOM     32  N   UNL     1      -3.110  -9.099  -1.079  0.00  0.00    -0.313 N 
ATOM     33  H   UNL     1      -1.649  -8.557   0.914  0.00  0.00    +0.151 HD
ATOM     34  H   UNL     1      -3.611  -8.705  -0.348  0.00  0.00    +0.146 HD
ATOM     35  H   UNL     1      -3.568  -9.373  -1.889  0.00  0.00    +0.146 HD
ENDBRANCH  21  29
ENDBRANCH  20  21
ENDBRANCH   2  20
TORSDOF 9
