REMARK  Name = ZINC33771390
REMARK  6 active torsions:
REMARK  status: ('A' for Active; 'I' for Inactive)
REMARK    1  A    between atoms: C_2  and  C_3
REMARK    2  A    between atoms: C_3  and  O_4
REMARK    3  A    between atoms: O_4  and  C_5
REMARK    4  A    between atoms: C_8  and  C_11
REMARK    5  A    between atoms: C_13  and  C_14
REMARK    6  A    between atoms: C_14  and  C_15
REMARK                            x       y       z     vdW  Elec       q    Type
REMARK                         _______ _______ _______ _____ _____    ______ ____
ROOT
ATOM      1  C   UNL     1      -3.184   7.627  -0.570  0.00  0.00    +0.152 C 
ATOM      2  C   UNL     1      -4.566   8.096  -0.175  0.00  0.00    +0.077 C 
ATOM      3  C   UNL     1      -5.385   6.952  -0.187  0.00  0.00    +0.250 C 
ATOM      4  O   UNL     1      -6.573   6.921   0.077  0.00  0.00    -0.282 OA
ATOM      5  C   UNL     1      -4.546   5.787  -0.578  0.00  0.00    +0.293 C 
ATOM      6  O   UNL     1      -4.947   4.646  -0.684  0.00  0.00    -0.266 OA
ATOM      7  N   UNL     1      -3.283   6.183  -0.805  0.00  0.00    -0.232 N 
ATOM      8  C   UNL     1      -2.240   5.359  -1.189  0.00  0.00    +0.169 A 
ATOM      9  N   UNL     1      -2.251   4.066  -1.413  0.00  0.00    -0.224 NA
ATOM     10  C   UNL     1      -1.147   3.383  -1.785  0.00  0.00    +0.080 A 
ATOM     11  C   UNL     1      -1.026   2.001  -2.061  0.00  0.00    +0.030 A 
ATOM     12  C   UNL     1       0.179   1.462  -2.426  0.00  0.00    +0.022 A 
ATOM     13  C   UNL     1       1.317   2.249  -2.550  0.00  0.00    +0.042 A 
ATOM     14  C   UNL     1       1.234   3.606  -2.294  0.00  0.00    +0.037 A 
ATOM     15  C   UNL     1       0.031   4.152  -1.922  0.00  0.00    +0.042 A 
ATOM     16  S   UNL     1      -0.533   5.785  -1.507  0.00  0.00    -0.052 S 
ATOM     17 CL   UNL     1       2.828   1.536  -3.022  0.00  0.00    -0.084 Cl
ENDROOT
BRANCH   1  21
ATOM     18  C   UNL     1      -1.937   9.611  -4.143  0.00  0.00    +0.121 A 
ATOM     19  C   UNL     1      -1.317   9.899  -2.936  0.00  0.00    +0.046 A 
ATOM     20  C   UNL     1      -1.722   9.256  -1.782  0.00  0.00    +0.009 A 
ATOM     21  C   UNL     1      -2.745   8.326  -1.830  0.00  0.00    -0.022 A 
ATOM     22  C   UNL     1      -3.361   8.034  -3.033  0.00  0.00    +0.009 A 
ATOM     23  C   UNL     1      -2.963   8.678  -4.188  0.00  0.00    +0.046 A 
BRANCH  18  24
ATOM     24  O   UNL     1      -1.541  10.242  -5.279  0.00  0.00    -0.488 OA
BRANCH  24  25
ATOM     25  C   UNL     1      -2.224   9.896  -6.486  0.00  0.00    +0.256 C 
BRANCH  25  27
ATOM     26  C   UNL     1      -1.384  10.099  -8.769  0.00  0.00    +0.007 C 
ATOM     27  C   UNL     1      -1.653  10.691  -7.632  0.00  0.00    +0.006 C 
ENDBRANCH  25  27
ENDBRANCH  24  25
ENDBRANCH  18  24
ENDBRANCH   1  21
BRANCH   2  28
ATOM     28  C   UNL     1      -4.946   9.383   0.133  0.00  0.00    +0.195 C 
ATOM     29  O   UNL     1      -6.248   9.672   0.337  0.00  0.00    -0.287 OA
BRANCH  28  30
ATOM     30  C   UNL     1      -3.928  10.448   0.241  0.00  0.00    +0.025 A 
ATOM     31  C   UNL     1      -2.771  10.263   1.008  0.00  0.00    +0.031 A 
ATOM     32  C   UNL     1      -1.844  11.284   1.077  0.00  0.00    +0.111 A 
ATOM     33  N   UNL     1      -2.041  12.422   0.441  0.00  0.00    -0.263 NA
ATOM     34  C   UNL     1      -3.118  12.640  -0.288  0.00  0.00    +0.111 A 
ATOM     35  C   UNL     1      -4.095  11.673  -0.417  0.00  0.00    +0.031 A 
ENDBRANCH  28  30
ENDBRANCH   2  28
TORSDOF 6
