REMARK  Name = ZINC21900674
REMARK  9 active torsions:
REMARK  status: ('A' for Active; 'I' for Inactive)
REMARK    1  A    between atoms: C_1  and  C_2
REMARK    2  A    between atoms: C_10  and  C_11
REMARK    3  A    between atoms: N_13  and  N_14
REMARK    4  A    between atoms: C_15  and  C_17
REMARK    5  A    between atoms: C_17  and  C_19
REMARK    6  A    between atoms: C_17  and  N_22
REMARK    7  A    between atoms: C_19  and  C_20
REMARK    8  A    between atoms: C_19  and  C_21
REMARK    9  A    between atoms: C_23  and  C_25
REMARK                            x       y       z     vdW  Elec       q    Type
REMARK                         _______ _______ _______ _____ _____    ______ ____
ROOT
ATOM      1  N   UNL     1       4.003  -6.082   0.634  0.00  0.00    -0.233 N 
ATOM      2  C   UNL     1       3.755  -4.761   0.540  0.00  0.00    +0.250 C 
ATOM      3  O   UNL     1       4.580  -3.960   0.927  0.00  0.00    -0.272 OA
ATOM      4  H   UNL     1       3.255  -6.808   0.284  0.00  0.00    +0.173 HD
ENDROOT
BRANCH   1   7
ATOM      5  C   UNL     1       5.461  -7.853   1.273  0.00  0.00    +0.296 C 
ATOM      6  O   UNL     1       4.633  -8.656   0.885  0.00  0.00    -0.265 OA
ATOM      7  N   UNL     1       5.213  -6.531   1.179  0.00  0.00    -0.228 N 
ATOM      8  H   UNL     1       5.961  -5.805   1.529  0.00  0.00    +0.173 HD
BRANCH   5  18
ATOM      9  C   UNL     1       6.271 -10.836   1.614  0.00  0.00    +0.048 C 
ATOM     10  C   UNL     1       7.085  -9.626   1.993  0.00  0.00    +0.008 A 
ATOM     11  C   UNL     1       8.419  -9.616   2.594  0.00  0.00    +0.024 A 
ATOM     12  C   UNL     1       9.316 -10.612   2.988  0.00  0.00    +0.012 A 
ATOM     13  C   UNL     1      10.517 -10.262   3.538  0.00  0.00    +0.001 A 
ATOM     14  C   UNL     1      10.849  -8.925   3.709  0.00  0.00    +0.004 A 
ATOM     15  C   UNL     1       9.978  -7.928   3.327  0.00  0.00    +0.047 A 
ATOM     16  C   UNL     1       8.751  -8.259   2.764  0.00  0.00    +0.136 A 
ATOM     17  O   UNL     1       7.718  -7.527   2.305  0.00  0.00    -0.450 OA
ATOM     18  C   UNL     1       6.731  -8.323   1.844  0.00  0.00    +0.195 A 
ENDBRANCH   5  18
ENDBRANCH   1   7
BRANCH   2  19
ATOM     19  C   UNL     1       2.453  -4.278  -0.045  0.00  0.00    +0.163 C 
BRANCH  19  20
ATOM     20  N   UNL     1       2.427  -2.813  -0.037  0.00  0.00    -0.300 N 
ATOM     21  C   UNL     1       1.248  -2.160  -0.022  0.00  0.00    +0.245 C 
ATOM     22  O   UNL     1       0.207  -2.787  -0.016  0.00  0.00    -0.270 OA
ATOM     23  H   UNL     1       3.370  -2.246  -0.042  0.00  0.00    +0.150 HD
BRANCH  21  24
ATOM     24  C   UNL     1       1.222  -0.683  -0.013  0.00  0.00    +0.037 A 
ATOM     25  C   UNL     1       0.002  -0.004   0.002  0.00  0.00    +0.016 A 
ATOM     26  C   UNL     1      -0.017   1.374   0.010  0.00  0.00    +0.039 A 
ATOM     27  C   UNL     1       1.173   2.086   0.002  0.00  0.00    +0.123 A 
ATOM     28  C   UNL     1       2.387   1.417  -0.013  0.00  0.00    +0.039 A 
ATOM     29  C   UNL     1       2.417   0.039  -0.021  0.00  0.00    +0.016 A 
ATOM     30  F   UNL     1       1.149   3.437   0.009  0.00  0.00    -0.205 F 
ENDBRANCH  21  24
ENDBRANCH  19  20
BRANCH  19  31
ATOM     31  C   UNL     1       2.323  -4.782  -1.484  0.00  0.00    +0.012 C 
ATOM     32  C   UNL     1       1.001  -4.292  -2.079  0.00  0.00    +0.009 C 
ATOM     33  C   UNL     1       3.488  -4.246  -2.319  0.00  0.00    +0.009 C 
ENDBRANCH  19  31
ENDBRANCH   2  19
TORSDOF 6
