REMARK  Name = ZINC05314882
REMARK  8 active torsions:
REMARK  status: ('A' for Active; 'I' for Inactive)
REMARK    1  A    between atoms: C_6  and  C_7
REMARK    2  A    between atoms: C_7  and  C_9
REMARK    3  A    between atoms: C_7  and  O_31
REMARK    4  A    between atoms: C_9  and  C_17
REMARK    5  A    between atoms: N_10  and  N_11
REMARK    6  A    between atoms: C_12  and  C_14
REMARK    7  A    between atoms: C_14  and  C_15
REMARK    8  A    between atoms: C_22  and  N_27
REMARK                            x       y       z     vdW  Elec       q    Type
REMARK                         _______ _______ _______ _____ _____    ______ ____
ROOT
ATOM      1  C   UNL     1      -1.794  -0.772   1.260  0.00  0.00    +0.123 C 
ATOM      2  N   UNL     1      -1.067  -0.460   2.290  0.00  0.00    -0.180 NA
ENDROOT
BRANCH   1   3
ATOM      3  C   UNL     1      -3.166  -1.270   1.451  0.00  0.00    +0.156 A 
ATOM      4  C   UNL     1      -3.737  -1.283   2.748  0.00  0.00    +0.298 A 
ATOM      5  N   UNL     1      -4.962  -1.726   2.931  0.00  0.00    -0.206 NA
ATOM      6  C   UNL     1      -5.676  -2.168   1.885  0.00  0.00    +0.095 A 
ATOM      7  C   UNL     1      -6.985  -2.644   2.056  0.00  0.00    +0.062 A 
ATOM      8  C   UNL     1      -7.690  -3.087   0.979  0.00  0.00    +0.128 A 
ATOM      9  C   UNL     1      -7.131  -3.075  -0.297  0.00  0.00    +0.035 A 
ATOM     10  C   UNL     1      -5.864  -2.621  -0.502  0.00  0.00    +0.032 A 
ATOM     11  C   UNL     1      -5.106  -2.155   0.587  0.00  0.00    +0.090 A 
ATOM     12  N   UNL     1      -3.862  -1.698   0.410  0.00  0.00    -0.238 NA
ATOM     13  O   UNL     1      -3.018  -0.837   3.805  0.00  0.00    -0.263 OA
BRANCH   8  14
ATOM     14  N   UNL     1      -9.070  -3.589   1.166  0.00  0.00    +0.056 N 
ATOM     15  O   UNL     1      -9.563  -3.604   2.270  0.00  0.00    -0.126 OA
ATOM     16  O   UNL     1      -9.704  -3.985   0.215  0.00  0.00    -0.126 OA
ENDBRANCH   8  14
ENDBRANCH   1   3
BRANCH   2  17
ATOM     17  N   UNL     1       0.279  -0.114   2.119  0.00  0.00    -0.206 N 
ATOM     18  C   UNL     1       1.056   0.127   3.193  0.00  0.00    +0.246 C 
ATOM     19  O   UNL     1       0.588   0.045   4.310  0.00  0.00    -0.273 OA
ATOM     20  H   UNL     1       0.653  -0.048   1.226  0.00  0.00    +0.177 HD
BRANCH  18  21
ATOM     21  C   UNL     1       2.504   0.499   3.009  0.00  0.00    +0.215 C 
BRANCH  21  22
ATOM     22  C   UNL     1       3.129   0.709   4.325  0.00  0.00    +0.072 C 
ATOM     23  N   UNL     1       3.611   0.872   5.341  0.00  0.00    -0.196 NA
ENDBRANCH  21  22
ENDBRANCH  18  21
ENDBRANCH   2  17
BRANCH   1  24
ATOM     24  C   UNL     1      -1.233  -0.625  -0.131  0.00  0.00    +0.197 C 
BRANCH  24  30
ATOM     25  C   UNL     1       0.656  -2.244  -0.406  0.00  0.00    +0.008 A 
ATOM     26  C   UNL     1       1.163  -3.459  -0.829  0.00  0.00    +0.022 A 
ATOM     27  C   UNL     1       0.331  -4.380  -1.439  0.00  0.00    +0.059 A 
ATOM     28  C   UNL     1      -1.009  -4.085  -1.626  0.00  0.00    +0.060 A 
ATOM     29  C   UNL     1      -1.514  -2.869  -1.203  0.00  0.00    +0.028 A 
ATOM     30  C   UNL     1      -0.681  -1.949  -0.593  0.00  0.00    -0.012 A 
ATOM     31 CL   UNL     1      -2.054  -5.240  -2.393  0.00  0.00    -0.082 Cl
ATOM     32 CL   UNL     1       0.967  -5.905  -1.971  0.00  0.00    -0.082 Cl
ENDBRANCH  24  30
BRANCH  24  33
ATOM     33  O   UNL     1      -2.269  -0.204  -1.020  0.00  0.00    -0.381 OA
ATOM     34  H   UNL     1      -2.953  -0.870  -1.171  0.00  0.00    +0.211 HD
ENDBRANCH  24  33
ENDBRANCH   1  24
TORSDOF 8
