REMARK  Name = ZINC39552671
REMARK  8 active torsions:
REMARK  status: ('A' for Active; 'I' for Inactive)
REMARK    1  A    between atoms: C_1  and  C_2
REMARK    2  A    between atoms: C_4  and  C_10
REMARK    3  A    between atoms: C_5  and  C_9
REMARK    4  A    between atoms: N_7  and  C_8
REMARK    5  A    between atoms: C_10  and  N_11
REMARK    6  A    between atoms: C_12  and  C_14
REMARK    7  A    between atoms: C_17  and  C_21
REMARK    8  A    between atoms: C_21  and  N_22
REMARK                            x       y       z     vdW  Elec       q    Type
REMARK                         _______ _______ _______ _____ _____    ______ ____
ROOT
ATOM      1  C   UNL     1      -1.899  -1.196  -5.219  0.00  0.00    +0.101 A 
ATOM      2  C   UNL     1      -2.170  -0.987  -6.569  0.00  0.00    +0.020 A 
ATOM      3  C   UNL     1      -3.178  -1.734  -7.179  0.00  0.00    +0.020 A 
ATOM      4  C   UNL     1      -3.879  -2.648  -6.460  0.00  0.00    +0.003 A 
ATOM      5  N   UNL     1      -3.621  -2.856  -5.147  0.00  0.00    -0.327 N 
ATOM      6  C   UNL     1      -2.655  -2.167  -4.511  0.00  0.00    +0.261 A 
ATOM      7  O   UNL     1      -2.434  -2.372  -3.330  0.00  0.00    -0.267 OA
ATOM      8  H   UNL     1      -4.138  -3.515  -4.658  0.00  0.00    +0.169 HD
ENDROOT
BRANCH   1  10
ATOM      9  N   UNL     1      -0.512  -0.720  -3.267  0.00  0.00    -0.307 N 
ATOM     10  C   UNL     1      -0.844  -0.429  -4.540  0.00  0.00    +0.250 C 
ATOM     11  O   UNL     1      -0.271   0.469  -5.127  0.00  0.00    -0.270 OA
ATOM     12  H   UNL     1      -1.017  -1.385  -2.773  0.00  0.00    +0.149 HD
BRANCH   9  13
ATOM     13  C   UNL     1       0.613  -0.033  -2.627  0.00  0.00    +0.138 C 
BRANCH  13  16
ATOM     14  C   UNL     1       0.002   1.501   0.017  0.00  0.00    +0.030 C 
ATOM     15  C   UNL     1       0.026  -0.028  -0.000  0.00  0.00    +0.100 C 
ATOM     16  C   UNL     1       0.774  -0.538  -1.216  0.00  0.00    -0.018 C 
ATOM     17  C   UNL     1       1.582  -1.491  -0.829  0.00  0.00    -0.000 C 
ATOM     18  N   UNL     1       1.484  -1.722   0.545  0.00  0.00    -0.354 NA
ATOM     19  N   UNL     1       0.822  -0.553   1.138  0.00  0.00    -0.242 NA
ATOM     20  C   UNL     1      -0.049  -0.946   2.253  0.00  0.00    +0.126 C 
ATOM     21  C   UNL     1       2.505  -2.246  -1.751  0.00  0.00    +0.060 C 
ATOM     22  H   UNL     1       0.931  -2.549   0.716  0.00  0.00    +0.141 HD
ATOM     23  H   UNL     1       2.405  -1.834   0.942  0.00  0.00    +0.141 HD
ENDBRANCH  13  16
ENDBRANCH   9  13
ENDBRANCH   1  10
BRANCH   4  24
ATOM     24  C   UNL     1      -4.964  -3.446  -7.136  0.00  0.00    -0.025 C 
BRANCH  24  25
ATOM     25  N   UNL     1      -4.588  -4.865  -7.157  0.00  0.00    +0.383 N 
ATOM     26  C   UNL     1      -3.391  -5.040  -7.989  0.00  0.00    -0.078 C 
ATOM     27  C   UNL     1      -2.947  -6.504  -7.949  0.00  0.00    -0.019 C 
ATOM     28  C   UNL     1      -4.076  -7.389  -8.484  0.00  0.00    -0.004 C 
ATOM     29  C   UNL     1      -5.340  -7.143  -7.656  0.00  0.00    -0.019 C 
ATOM     30  C   UNL     1      -5.696  -5.656  -7.707  0.00  0.00    -0.078 C 
ATOM     31  H   UNL     1      -4.390  -5.174  -6.217  0.00  0.00    -0.081 HD
ENDBRANCH  24  25
ENDBRANCH   4  24
TORSDOF 5
