REMARK  Name = ZINC61148734
REMARK  6 active torsions:
REMARK  status: ('A' for Active; 'I' for Inactive)
REMARK    1  A    between atoms: C_1  and  N_2
REMARK    2  A    between atoms: N_2  and  C_3
REMARK    3  A    between atoms: C_4  and  N_20
REMARK    4  A    between atoms: C_6  and  C_10
REMARK    5  A    between atoms: N_12  and  C_13
REMARK    6  A    between atoms: C_13  and  C_14
REMARK                            x       y       z     vdW  Elec       q    Type
REMARK                         _______ _______ _______ _____ _____    ______ ____
ROOT
ATOM      1  C   UNL     1       0.688  -0.705   0.990  0.00  0.00    +0.076 A 
ATOM      2  C   UNL     1       1.091  -2.016   0.757  0.00  0.00    +0.149 A 
ATOM      3  C   UNL     1       1.817  -2.694   1.710  0.00  0.00    +0.047 A 
ATOM      4  C   UNL     1       2.151  -2.064   2.912  0.00  0.00    +0.040 A 
ATOM      5  C   UNL     1       1.745  -0.747   3.144  0.00  0.00    +0.035 A 
ATOM      6  C   UNL     1       1.023  -0.072   2.185  0.00  0.00    +0.065 A 
ATOM      7 CL   UNL     1       0.524   1.567   2.468  0.00  0.00    -0.082 Cl
ENDROOT
BRANCH   4   8
ATOM      8  C   UNL     1       2.929  -2.788   3.935  0.00  0.00    +0.244 C 
ATOM      9  O   UNL     1       3.281  -3.934   3.732  0.00  0.00    -0.270 OA
ATOM     10  N   UNL     1       3.250  -2.180   5.094  0.00  0.00    -0.311 N 
ATOM     11  H   UNL     1       2.969  -1.265   5.255  0.00  0.00    +0.149 HD
BRANCH  10  12
ATOM     12  C   UNL     1       4.023  -2.899   6.109  0.00  0.00    +0.110 C 
BRANCH  12  13
ATOM     13  C   UNL     1       4.249  -1.988   7.318  0.00  0.00    +0.034 C 
ATOM     14  C   UNL     1       5.131  -2.698   8.373  0.00  0.00    +0.035 C 
ATOM     15  C   UNL     1       4.447  -2.283   9.701  0.00  0.00    +0.160 C 
ATOM     16  O   UNL     1       3.041  -2.285   9.370  0.00  0.00    -0.379 OA
ATOM     17  C   UNL     1       2.919  -1.722   8.050  0.00  0.00    +0.165 C 
ENDBRANCH  12  13
ENDBRANCH  10  12
ENDBRANCH   4   8
BRANCH   1  19
ATOM     18  C   UNL     1      -0.097   1.442   0.043  0.00  0.00    +0.125 C 
ATOM     19  N   UNL     1      -0.046  -0.022   0.025  0.00  0.00    -0.344 N 
ATOM     20  H   UNL     1      -0.524  -0.516  -0.659  0.00  0.00    +0.146 HD
ENDBRANCH   1  19
BRANCH   2  21
ATOM     21  N   UNL     1       0.737  -2.683  -0.516  0.00  0.00    +0.058 N 
ATOM     22  O   UNL     1       0.986  -3.856  -0.673  0.00  0.00    -0.126 OA
ATOM     23  O   UNL     1       0.200  -2.056  -1.398  0.00  0.00    -0.126 OA
ENDBRANCH   2  21
TORSDOF 5
