REMARK  Name = ZINC33530214
REMARK  7 active torsions:
REMARK  status: ('A' for Active; 'I' for Inactive)
REMARK    1  A    between atoms: C_4  and  C_7
REMARK    2  A    between atoms: C_7  and  C_20
REMARK    3  A    between atoms: N_8  and  N_9
REMARK    4  A    between atoms: C_10  and  C_12
REMARK    5  A    between atoms: C_17  and  O_18
REMARK    6  A    between atoms: C_20  and  C_21
REMARK    7  A    between atoms: C_21  and  C_22
REMARK                            x       y       z     vdW  Elec       q    Type
REMARK                         _______ _______ _______ _____ _____    ______ ____
ROOT
ATOM      1  C   UNL     1       3.685  -0.683  -0.035  0.00  0.00    +0.067 C 
ATOM      2  N   UNL     1       4.802  -0.025   0.010  0.00  0.00    -0.184 NA
ENDROOT
BRANCH   1   6
ATOM      3  C   UNL     1      -0.005   1.407  -0.201  0.00  0.00    +0.000 A 
ATOM      4  C   UNL     1       1.184   2.112  -0.152  0.00  0.00    +0.001 A 
ATOM      5  C   UNL     1       2.387   1.440  -0.098  0.00  0.00    +0.010 A 
ATOM      6  C   UNL     1       2.403   0.043  -0.092  0.00  0.00    -0.002 A 
ATOM      7  C   UNL     1       1.198  -0.663  -0.142  0.00  0.00    +0.010 A 
ATOM      8  C   UNL     1       0.003   0.023  -0.197  0.00  0.00    +0.001 A 
ENDBRANCH   1   6
BRANCH   2   9
ATOM      9  N   UNL     1       6.014  -0.711   0.164  0.00  0.00    -0.203 N 
ATOM     10  C   UNL     1       7.163  -0.023   0.319  0.00  0.00    +0.267 C 
ATOM     11  O   UNL     1       7.147   1.193   0.325  0.00  0.00    -0.268 OA
ATOM     12  H   UNL     1       6.026  -1.680   0.159  0.00  0.00    +0.178 HD
BRANCH  10  13
ATOM     13  C   UNL     1       8.438  -0.745   0.480  0.00  0.00    +0.081 A 
ATOM     14  C   UNL     1       8.461  -2.142   0.468  0.00  0.00    +0.036 A 
ATOM     15  C   UNL     1       9.658  -2.811   0.620  0.00  0.00    +0.042 A 
ATOM     16  C   UNL     1      10.838  -2.103   0.784  0.00  0.00    +0.023 A 
ATOM     17  C   UNL     1      10.829  -0.723   0.799  0.00  0.00    +0.047 A 
ATOM     18  C   UNL     1       9.635  -0.034   0.641  0.00  0.00    +0.129 A 
ATOM     19 CL   UNL     1       9.685  -4.547   0.604  0.00  0.00    -0.084 Cl
BRANCH  18  20
ATOM     20  O   UNL     1       9.626   1.323   0.650  0.00  0.00    -0.506 OA
ATOM     21  H   UNL     1       9.509   1.710   1.528  0.00  0.00    +0.292 HD
ENDBRANCH  18  20
ENDBRANCH  10  13
ENDBRANCH   2   9
BRANCH   1  22
ATOM     22  C   UNL     1       3.698  -2.190  -0.030  0.00  0.00    +0.069 C 
BRANCH  22  23
ATOM     23  C   UNL     1       3.893  -2.704  -1.458  0.00  0.00    +0.131 C 
BRANCH  23  24
ATOM     24  C   UNL     1       4.026  -4.205  -1.438  0.00  0.00    +0.356 C 
ATOM     25  O   UNL     1       3.970  -4.808  -0.380  0.00  0.00    -0.246 OA
ATOM     26  O   UNL     1       4.190  -4.816  -2.480  0.00  0.00    -0.246 OA
ENDBRANCH  23  24
ENDBRANCH  22  23
ENDBRANCH   1  22
TORSDOF 7
