REMARK  Name = ZINC32633206
REMARK  4 active torsions:
REMARK  status: ('A' for Active; 'I' for Inactive)
REMARK    1  A    between atoms: C_1  and  N_2
REMARK    2  A    between atoms: N_2  and  S_3
REMARK    3  A    between atoms: S_3  and  C_6
REMARK    4  A    between atoms: C_9  and  C_11
REMARK                            x       y       z     vdW  Elec       q    Type
REMARK                         _______ _______ _______ _____ _____    ______ ____
ROOT
ATOM      1  C   UNL     1       1.458   6.649   2.349  0.00  0.00    +0.258 A 
ATOM      2  C   UNL     1       2.592   7.050   1.735  0.00  0.00    +0.072 A 
ATOM      3  C   UNL     1       2.711   6.299   0.555  0.00  0.00    +0.057 A 
ATOM      4  C   UNL     1       1.625   5.472   0.505  0.00  0.00    +0.192 A 
ATOM      5  O   UNL     1       0.878   5.698   1.605  0.00  0.00    -0.432 OA
ENDROOT
BRANCH   4   6
ATOM      6  C   UNL     1       1.328   4.504  -0.556  0.00  0.00    +0.282 C 
ATOM      7  O   UNL     1       2.142   4.296  -1.436  0.00  0.00    -0.267 OA
ATOM      8  N   UNL     1       0.152   3.845  -0.555  0.00  0.00    -0.295 N 
ATOM      9  C   UNL     1      -0.143   2.925  -1.672  0.00  0.00    +0.108 C 
ATOM     10  C   UNL     1      -0.791   1.615  -1.188  0.00  0.00    +0.019 C 
ATOM     11  C   UNL     1      -0.126   1.146   0.082  0.00  0.00    +0.002 C 
ATOM     12  C   UNL     1      -0.880   1.706   1.285  0.00  0.00    +0.002 C 
ATOM     13  C   UNL     1      -0.470   3.061   1.679  0.00  0.00    +0.019 C 
ATOM     14  C   UNL     1      -0.767   4.066   0.538  0.00  0.00    +0.108 C 
ENDBRANCH   4   6
BRANCH   1  15
ATOM     15  S   UNL     1       0.842   7.273   3.877  0.00  0.00    +0.091 S 
ATOM     16  O   UNL     1       0.010   6.260   4.425  0.00  0.00    -0.150 OA
ATOM     17  O   UNL     1       1.958   7.803   4.579  0.00  0.00    -0.150 OA
BRANCH  15  19
ATOM     18  C   UNL     1      -1.384   8.338   2.770  0.00  0.00    +0.128 C 
ATOM     19  N   UNL     1      -0.145   8.554   3.521  0.00  0.00    -0.190 NA
ATOM     20  H   UNL     1       0.215   9.577   3.706  0.00  0.00    +0.148 HD
ENDBRANCH  15  19
ENDBRANCH   1  15
TORSDOF 3
