REMARK  Name = ZINC48812673
REMARK  7 active torsions:
REMARK  status: ('A' for Active; 'I' for Inactive)
REMARK    1  A    between atoms: C_1  and  C_2
REMARK    2  A    between atoms: C_2  and  C_4
REMARK    3  A    between atoms: C_2  and  N_8
REMARK    4  A    between atoms: N_6  and  C_7
REMARK    5  A    between atoms: C_9  and  C_11
REMARK    6  A    between atoms: C_15  and  N_18
REMARK    7  A    between atoms: C_16  and  N_17
REMARK                            x       y       z     vdW  Elec       q    Type
REMARK                         _______ _______ _______ _____ _____    ______ ____
ROOT
ATOM      1  C   UNL     1      -3.351  -1.571  -1.180  0.00  0.00    +0.062 A 
ATOM      2  C   UNL     1      -3.996  -1.785   0.041  0.00  0.00    +0.053 A 
ATOM      3  C   UNL     1      -5.373  -1.847   0.089  0.00  0.00    +0.126 A 
ATOM      4  C   UNL     1      -6.122  -1.699  -1.070  0.00  0.00    +0.073 A 
ATOM      5  C   UNL     1      -5.498  -1.488  -2.282  0.00  0.00    +0.150 A 
ATOM      6  C   UNL     1      -4.112  -1.416  -2.349  0.00  0.00    +0.068 A 
ATOM      7  F   UNL     1      -5.996  -2.054   1.270  0.00  0.00    -0.205 F 
ENDROOT
BRANCH   1   9
ATOM      8  N   UNL     1      -1.157  -1.532  -0.102  0.00  0.00    -0.300 N 
ATOM      9  C   UNL     1      -1.879  -1.504  -1.239  0.00  0.00    +0.247 C 
ATOM     10  O   UNL     1      -1.317  -1.422  -2.315  0.00  0.00    -0.270 OA
ATOM     11  H   UNL     1      -1.605  -1.598   0.756  0.00  0.00    +0.150 HD
BRANCH   8  13
ATOM     12  C   UNL     1       0.746  -0.002  -0.230  0.00  0.00    +0.038 C 
ATOM     13  C   UNL     1       0.305  -1.465  -0.161  0.00  0.00    +0.156 C 
BRANCH  13  14
ATOM     14  C   UNL     1       0.888  -2.107   1.072  0.00  0.00    +0.233 C 
ATOM     15  O   UNL     1       0.154  -2.575   1.917  0.00  0.00    -0.274 OA
ATOM     16  N   UNL     1       2.224  -2.162   1.236  0.00  0.00    -0.317 N 
ATOM     17  C   UNL     1       2.791  -2.786   2.434  0.00  0.00    +0.128 C 
ATOM     18  H   UNL     1       2.812  -1.788   0.560  0.00  0.00    +0.148 HD
ENDBRANCH  13  14
ENDBRANCH   8  13
ENDBRANCH   1   9
BRANCH   6  19
ATOM     19  N   UNL     1      -3.482  -1.197  -3.568  0.00  0.00    -0.356 N 
ATOM     20  H   UNL     1      -3.861  -1.562  -4.383  0.00  0.00    +0.142 HD
ATOM     21  H   UNL     1      -2.663  -0.678  -3.605  0.00  0.00    +0.142 HD
ENDBRANCH   6  19
BRANCH   5  22
ATOM     22  N   UNL     1      -6.306  -1.332  -3.512  0.00  0.00    +0.058 N 
ATOM     23  O   UNL     1      -7.503  -1.498  -3.474  0.00  0.00    -0.126 OA
ATOM     24  O   UNL     1      -5.769  -1.039  -4.555  0.00  0.00    -0.126 OA
ENDBRANCH   5  22
TORSDOF 5
