REMARK  Name = ZINC66684635
REMARK  7 active torsions:
REMARK  status: ('A' for Active; 'I' for Inactive)
REMARK    1  A    between atoms: C_1  and  C_2
REMARK    2  A    between atoms: C_5  and  N_9
REMARK    3  A    between atoms: C_10  and  C_12
REMARK    4  A    between atoms: C_12  and  C_13
REMARK    5  A    between atoms: C_13  and  N_14
REMARK    6  A    between atoms: C_15  and  C_17
REMARK    7  A    between atoms: C_18  and  C_28
REMARK                            x       y       z     vdW  Elec       q    Type
REMARK                         _______ _______ _______ _____ _____    ______ ____
ROOT
ATOM      1  N   UNL     1      -0.330  -8.309  -2.633  0.00  0.00    -0.310 N 
ATOM      2  C   UNL     1      -0.429  -8.977  -3.799  0.00  0.00    +0.261 C 
ATOM      3  O   UNL     1      -0.442  -8.366  -4.851  0.00  0.00    -0.269 OA
ATOM      4  H   UNL     1      -0.319  -8.796  -1.794  0.00  0.00    +0.149 HD
ENDROOT
BRANCH   2   5
ATOM      5  C   UNL     1      -0.520 -10.443  -3.800  0.00  0.00    +0.106 A 
ATOM      6  C   UNL     1      -0.619 -11.236  -4.909  0.00  0.00    -0.010 A 
ATOM      7  C   UNL     1      -0.680 -12.558  -4.452  0.00  0.00    +0.042 A 
ATOM      8  C   UNL     1      -0.619 -12.527  -3.059  0.00  0.00    +0.027 A 
ATOM      9  N   UNL     1      -0.516 -11.253  -2.681  0.00  0.00    -0.354 N 
ATOM     10  H   UNL     1      -0.450 -10.943  -1.764  0.00  0.00    +0.166 HD
ATOM     11  C   UNL     1      -0.665 -13.772  -2.210  0.00  0.00    +0.054 C 
ATOM     12  C   UNL     1      -1.280 -14.915  -3.023  0.00  0.00    +0.014 C 
ATOM     13  C   UNL     1      -0.554 -15.079  -4.362  0.00  0.00    +0.080 C 
ATOM     14  C   UNL     1      -0.787 -13.825  -5.192  0.00  0.00    +0.165 C 
ATOM     15  O   UNL     1      -1.044 -13.867  -6.377  0.00  0.00    -0.292 OA
ATOM     16  C   UNL     1      -0.655 -10.777  -6.344  0.00  0.00    +0.047 C 
ENDBRANCH   2   5
BRANCH   1  17
ATOM     17  C   UNL     1      -0.238  -6.847  -2.632  0.00  0.00    +0.114 C 
BRANCH  17  18
ATOM     18  C   UNL     1      -0.136  -6.343  -1.191  0.00  0.00    +0.115 C 
BRANCH  18  20
ATOM     19  N   UNL     1       0.057  -4.171  -0.023  0.00  0.00    -0.284 N 
ATOM     20  C   UNL     1      -0.042  -4.839  -1.190  0.00  0.00    +0.219 C 
ATOM     21  O   UNL     1      -0.055  -4.230  -2.238  0.00  0.00    -0.275 OA
ATOM     22  H   UNL     1       0.149  -4.660   0.809  0.00  0.00    +0.155 HD
BRANCH  19  27
ATOM     23  C   UNL     1      -0.064   1.502   0.016  0.00  0.00    +0.044 C 
ATOM     24  C   UNL     1      -0.031  -0.005   0.006  0.00  0.00    -0.049 A 
ATOM     25  C   UNL     1      -0.622  -0.701  -1.033  0.00  0.00    +0.005 A 
ATOM     26  C   UNL     1      -0.594  -2.082  -1.045  0.00  0.00    +0.025 A 
ATOM     27  C   UNL     1       0.028  -2.772  -0.014  0.00  0.00    +0.052 A 
ATOM     28  C   UNL     1       0.621  -2.070   1.029  0.00  0.00    +0.062 A 
ATOM     29  C   UNL     1       0.595  -0.688   1.032  0.00  0.00    +0.025 A 
ATOM     30 CL   UNL     1       1.401  -2.928   2.321  0.00  0.00    -0.082 Cl
ENDBRANCH  19  27
ENDBRANCH  18  20
ENDBRANCH  17  18
ENDBRANCH   1  17
TORSDOF 5
