REMARK  Name = ZINC31836426
REMARK  6 active torsions:
REMARK  status: ('A' for Active; 'I' for Inactive)
REMARK    1  A    between atoms: C_1  and  C_2
REMARK    2  A    between atoms: N_12  and  C_13
REMARK    3  A    between atoms: C_13  and  C_14
REMARK    4  A    between atoms: N_16  and  C_17
REMARK    5  A    between atoms: C_19  and  N_24
REMARK    6  A    between atoms: C_22  and  C_23
REMARK                            x       y       z     vdW  Elec       q    Type
REMARK                         _______ _______ _______ _____ _____    ______ ____
ROOT
ATOM      1  C   UNL     1      -1.856   0.039   2.172  0.00  0.00    +0.235 C 
ATOM      2  O   UNL     1      -1.753   1.190   2.542  0.00  0.00    -0.274 OA
ATOM      3  N   UNL     1      -1.648  -0.969   3.042  0.00  0.00    -0.284 N 
ATOM      4  H   UNL     1      -1.830  -2.009   2.732  0.00  0.00    +0.155 HD
ENDROOT
BRANCH   3   5
ATOM      5  C   UNL     1      -1.201  -0.694   4.339  0.00  0.00    +0.039 A 
ATOM      6  C   UNL     1      -0.493   0.473   4.598  0.00  0.00    +0.056 A 
ATOM      7  C   UNL     1      -0.057   0.745   5.879  0.00  0.00    +0.128 A 
ATOM      8  C   UNL     1      -0.316  -0.148   6.903  0.00  0.00    +0.033 A 
ATOM      9  C   UNL     1      -1.015  -1.313   6.648  0.00  0.00    +0.007 A 
ATOM     10  C   UNL     1      -1.458  -1.588   5.369  0.00  0.00    -0.029 A 
ATOM     11  C   UNL     1      -2.221  -2.858   5.091  0.00  0.00    +0.045 C 
BRANCH   7  12
ATOM     12  N   UNL     1       0.692   1.991   6.157  0.00  0.00    +0.056 N 
ATOM     13  O   UNL     1       1.081   2.229   7.287  0.00  0.00    -0.126 OA
ATOM     14  O   UNL     1       0.920   2.778   5.256  0.00  0.00    -0.126 OA
ENDBRANCH   7  12
ENDBRANCH   3   5
BRANCH   1  15
ATOM     15  C   UNL     1      -2.217  -0.263   0.741  0.00  0.00    +0.201 C 
BRANCH  15  27
ATOM     16  C   UNL     1       2.468   3.941   0.028  0.00  0.00    +0.044 C 
ATOM     17  C   UNL     1       1.172   3.172   0.032  0.00  0.00    -0.047 A 
ATOM     18  C   UNL     1       1.188   1.790   0.023  0.00  0.00    +0.005 A 
ATOM     19  C   UNL     1       0.003   1.083   0.021  0.00  0.00    +0.027 A 
ATOM     20  C   UNL     1      -1.217   1.755   0.022  0.00  0.00    +0.074 A 
ATOM     21  C   UNL     1      -1.229   3.144   0.044  0.00  0.00    +0.153 A 
ATOM     22  C   UNL     1      -0.033   3.848   0.044  0.00  0.00    +0.051 A 
ATOM     23  O   UNL     1      -2.397   3.848   0.069  0.00  0.00    -0.423 OA
ATOM     24  C   UNL     1      -3.519   3.123  -0.127  0.00  0.00    +0.330 C 
ATOM     25  O   UNL     1      -4.448   3.549  -0.771  0.00  0.00    -0.249 OA
ATOM     26  C   UNL     1      -3.549   1.745   0.505  0.00  0.00    +0.226 C 
ATOM     27  N   UNL     1      -2.390   0.996   0.003  0.00  0.00    -0.308 N 
ENDBRANCH  15  27
ENDBRANCH   1  15
TORSDOF 4
