REMARK  Name = ZINC32102762
REMARK  9 active torsions:
REMARK  status: ('A' for Active; 'I' for Inactive)
REMARK    1  A    between atoms: C_1  and  C_2
REMARK    2  A    between atoms: C_2  and  C_3
REMARK    3  A    between atoms: C_3  and  C_5
REMARK    4  A    between atoms: C_3  and  C_6
REMARK    5  A    between atoms: C_6  and  C_8
REMARK    6  A    between atoms: C_6  and  N_18
REMARK    7  A    between atoms: N_10  and  C_11
REMARK    8  A    between atoms: C_14  and  O_17
REMARK    9  A    between atoms: N_21  and  C_22
REMARK                            x       y       z     vdW  Elec       q    Type
REMARK                         _______ _______ _______ _____ _____    ______ ____
ROOT
ATOM      1  C   UNL     1       0.307   1.997   5.920  0.00  0.00    +0.163 C 
ENDROOT
BRANCH   1   2
ATOM      2  N   UNL     1       0.979   2.065   4.620  0.00  0.00    -0.288 N 
ATOM      3  C   UNL     1       0.274   1.877   3.486  0.00  0.00    +0.300 C 
ATOM      4  O   UNL     1      -0.919   1.651   3.543  0.00  0.00    -0.253 OA
ATOM      5  N   UNL     1       0.892   1.940   2.290  0.00  0.00    -0.295 N 
ATOM      6  H   UNL     1       2.058   2.270   4.569  0.00  0.00    +0.151 HD
ATOM      7  H   UNL     1       1.972   2.145   2.239  0.00  0.00    +0.151 HD
BRANCH   5   8
ATOM      8  C   UNL     1       0.126   1.736   1.058  0.00  0.00    +0.097 C 
ATOM      9  C   UNL     1      -0.529   3.063   0.632  0.00  0.00    +0.046 C 
ATOM     10  C   UNL     1      -1.059   2.901  -0.821  0.00  0.00    +0.168 C 
ATOM     11  S   UNL     1       0.323   1.948  -1.580  0.00  0.00    -0.029 S 
ATOM     12  O   UNL     1       1.244   2.858  -2.168  0.00  0.00    -0.174 OA
ATOM     13  O   UNL     1      -0.217   0.894  -2.365  0.00  0.00    -0.174 OA
ATOM     14  C   UNL     1       1.074   1.237  -0.059  0.00  0.00    +0.188 C 
ENDBRANCH   5   8
ENDBRANCH   1   2
BRANCH   1  15
ATOM     15  C   UNL     1       1.082   2.804   6.929  0.00  0.00    +0.238 C 
ATOM     16  O   UNL     1       2.273   2.978   6.780  0.00  0.00    -0.273 OA
ATOM     17  N   UNL     1       0.452   3.333   7.997  0.00  0.00    -0.284 N 
ATOM     18  H   UNL     1      -0.610   3.108   8.175  0.00  0.00    +0.155 HD
BRANCH  17  19
ATOM     19  C   UNL     1       1.149   4.169   8.879  0.00  0.00    +0.034 A 
ATOM     20  C   UNL     1       2.175   4.976   8.406  0.00  0.00    +0.027 A 
ATOM     21  C   UNL     1       2.858   5.803   9.275  0.00  0.00    +0.047 A 
ATOM     22  C   UNL     1       2.527   5.820  10.623  0.00  0.00    +0.117 A 
ATOM     23  C   UNL     1       1.506   5.009  11.096  0.00  0.00    +0.047 A 
ATOM     24  C   UNL     1       0.818   4.186  10.227  0.00  0.00    +0.027 A 
BRANCH  22  25
ATOM     25  O   UNL     1       3.204   6.630  11.479  0.00  0.00    -0.507 OA
ATOM     26  H   UNL     1       2.942   6.644  12.547  0.00  0.00    +0.292 HD
ENDBRANCH  22  25
ENDBRANCH  17  19
ENDBRANCH   1  15
BRANCH   1  27
ATOM     27  C   UNL     1       0.234   0.539   6.380  0.00  0.00    +0.015 C 
ATOM     28  C   UNL     1       1.633  -0.079   6.339  0.00  0.00    +0.010 C 
BRANCH  27  30
ATOM     29  C   UNL     1      -2.135   0.245   5.643  0.00  0.00    +0.004 C 
ATOM     30  C   UNL     1      -0.697  -0.243   5.452  0.00  0.00    +0.002 C 
ENDBRANCH  27  30
ENDBRANCH   1  27
TORSDOF 7
