REMARK  Name = ZINC01817067
REMARK  6 active torsions:
REMARK  status: ('A' for Active; 'I' for Inactive)
REMARK    1  A    between atoms: C_1  and  O_2
REMARK    2  A    between atoms: O_2  and  C_3
REMARK    3  A    between atoms: C_6  and  C_18
REMARK    4  A    between atoms: C_8  and  C_9
REMARK    5  A    between atoms: C_9  and  N_10
REMARK    6  A    between atoms: C_12  and  N_15
REMARK                            x       y       z     vdW  Elec       q    Type
REMARK                         _______ _______ _______ _____ _____    ______ ____
ROOT
ATOM      1  C   UNL     1       6.890   4.701   2.738  0.00  0.00    +0.125 A 
ATOM      2  C   UNL     1       5.604   4.928   3.206  0.00  0.00    +0.046 A 
ATOM      3  C   UNL     1       4.549   4.995   2.317  0.00  0.00    +0.006 A 
ATOM      4  C   UNL     1       4.772   4.825   0.963  0.00  0.00    -0.055 A 
ATOM      5  C   UNL     1       6.053   4.599   0.495  0.00  0.00    +0.011 A 
ATOM      6  C   UNL     1       7.112   4.536   1.379  0.00  0.00    +0.016 A 
ENDROOT
BRANCH   4   7
ATOM      7  C   UNL     1       3.618   4.893  -0.004  0.00  0.00    +0.007 C 
ATOM      8  C   UNL     1       2.879   3.575  -0.007  0.00  0.00    +0.010 A 
ATOM      9  C   UNL     1       1.533   3.489   0.005  0.00  0.00    -0.022 A 
ATOM     10  C   UNL     1       1.185   2.074   0.002  0.00  0.00    +0.003 A 
ATOM     11  C   UNL     1      -0.016   1.362   0.009  0.00  0.00    +0.010 A 
ATOM     12  C   UNL     1       0.002  -0.004   0.002  0.00  0.00    +0.001 A 
ATOM     13  C   UNL     1       1.207  -0.693  -0.013  0.00  0.00    +0.002 A 
ATOM     14  C   UNL     1       2.405  -0.012  -0.021  0.00  0.00    +0.026 A 
ATOM     15  C   UNL     1       2.410   1.378  -0.013  0.00  0.00    +0.047 A 
ATOM     16  N   UNL     1       3.417   2.321  -0.018  0.00  0.00    -0.359 N 
ATOM     17  H   UNL     1       4.366   2.122  -0.028  0.00  0.00    +0.166 HD
ATOM     18  C   UNL     1       0.617   4.686   0.016  0.00  0.00    +0.018 C 
ATOM     19  C   UNL     1       1.445   5.917  -0.379  0.00  0.00    -0.076 C 
ATOM     20  N   UNL     1       2.685   5.959   0.424  0.00  0.00    +0.387 N 
ATOM     21  H   UNL     1       3.136   6.872   0.300  0.00  0.00    -0.084 HD
ATOM     22  H   UNL     1       2.450   5.824   1.414  0.00  0.00    -0.084 HD
ENDBRANCH   4   7
BRANCH   1  24
ATOM     23  C   UNL     1       7.628   4.818   4.995  0.00  0.00    +0.277 C 
ATOM     24  O   UNL     1       7.931   4.640   3.610  0.00  0.00    -0.495 OA
ENDBRANCH   1  24
BRANCH   6  25
ATOM     25  C   UNL     1       8.508   4.290   0.867  0.00  0.00    +0.182 C 
BRANCH  25  26
ATOM     26  N   UNL     1       9.233   5.561   0.795  0.00  0.00    -0.265 N 
ATOM     27  C   UNL     1      10.416   5.834   1.384  0.00  0.00    +0.141 A 
ATOM     28  C   UNL     1      10.746   7.109   1.073  0.00  0.00    +0.163 A 
ATOM     29  C   UNL     1       9.726   7.636   0.274  0.00  0.00    +0.167 A 
ATOM     30  N   UNL     1       8.819   6.708   0.107  0.00  0.00    -0.177 NA
BRANCH  28  31
ATOM     31  N   UNL     1      11.969   7.823   1.507  0.00  0.00    +0.059 N 
ATOM     32  O   UNL     1      12.154   8.977   1.165  0.00  0.00    -0.126 OA
ATOM     33  O   UNL     1      12.789   7.256   2.207  0.00  0.00    -0.126 OA
ENDBRANCH  28  31
ENDBRANCH  25  26
ENDBRANCH   6  25
TORSDOF 5
