REMARK  Name = ZINC36313410
REMARK  13 active torsions:
REMARK  status: ('A' for Active; 'I' for Inactive)
REMARK    1  A    between atoms: C_2  and  C_3
REMARK    2  A    between atoms: C_3  and  O_4
REMARK    3  A    between atoms: O_4  and  C_5
REMARK    4  A    between atoms: C_5  and  C_6
REMARK    5  A    between atoms: C_6  and  C_8
REMARK    6  A    between atoms: C_6  and  O_36
REMARK    7  A    between atoms: C_8  and  N_9
REMARK    8  A    between atoms: N_9  and  C_10
REMARK    9  A    between atoms: N_9  and  C_29
REMARK   10  A    between atoms: C_10  and  C_11
REMARK   11  A    between atoms: C_12  and  C_22
REMARK   12  A    between atoms: C_15  and  N_16
REMARK   13  A    between atoms: C_29  and  C_30
REMARK                            x       y       z     vdW  Elec       q    Type
REMARK                         _______ _______ _______ _____ _____    ______ ____
ROOT
ATOM      1  C   UNL     1       4.566   8.106  -0.102  0.00  0.00    -0.035 C 
ENDROOT
BRANCH   1   2
ATOM      2  C   UNL     1       6.071   8.130  -0.172  0.00  0.00    +0.025 A 
ATOM      3  C   UNL     1       6.956   7.805   0.877  0.00  0.00    +0.119 A 
ATOM      4  N   UNL     1       8.183   7.946   0.430  0.00  0.00    -0.076 NA
ATOM      5  O   UNL     1       8.111   8.367  -0.920  0.00  0.00    -0.339 OA
ATOM      6  C   UNL     1       6.814   8.464  -1.257  0.00  0.00    +0.222 A 
BRANCH   3   7
ATOM      7  C   UNL     1       6.569   7.378   2.245  0.00  0.00    +0.039 A 
ATOM      8  C   UNL     1       5.322   6.798   2.470  0.00  0.00    +0.013 A 
ATOM      9  C   UNL     1       4.967   6.402   3.743  0.00  0.00    +0.001 A 
ATOM     10  C   UNL     1       5.846   6.580   4.797  0.00  0.00    +0.003 A 
ATOM     11  C   UNL     1       7.085   7.154   4.582  0.00  0.00    +0.039 A 
ATOM     12  C   UNL     1       7.455   7.550   3.309  0.00  0.00    +0.133 A 
ATOM     13  F   UNL     1       8.667   8.106   3.098  0.00  0.00    -0.205 F 
ENDBRANCH   3   7
BRANCH   6  14
ATOM     14  N   UNL     1       6.322   8.842  -2.494  0.00  0.00    -0.295 N 
ATOM     15  C   UNL     1       6.096  10.259  -2.818  0.00  0.00    +0.136 C 
ATOM     16  C   UNL     1       6.772  10.562  -4.160  0.00  0.00    +0.179 C 
ATOM     17  O   UNL     1       6.335   9.610  -5.133  0.00  0.00    -0.377 OA
ATOM     18  C   UNL     1       6.691   8.259  -4.831  0.00  0.00    +0.179 C 
ATOM     19  C   UNL     1       6.015   7.839  -3.526  0.00  0.00    +0.136 C 
ENDBRANCH   6  14
ENDBRANCH   1   2
BRANCH   1  20
ATOM     20  N   UNL     1       4.059   6.951  -0.855  0.00  0.00    +0.386 N 
ATOM     21  H   UNL     1       4.375   7.008  -1.811  0.00  0.00    -0.081 HD
BRANCH  20  22
ATOM     22  C   UNL     1       2.591   6.952  -0.823  0.00  0.00    -0.044 C 
BRANCH  22  23
ATOM     23  C   UNL     1       2.063   8.089  -1.701  0.00  0.00    +0.124 C 
BRANCH  23  24
ATOM     24  O   UNL     1       2.490   7.887  -3.049  0.00  0.00    -0.391 OA
ATOM     25  H   UNL     1       2.121   7.096  -3.465  0.00  0.00    +0.210 HD
ENDBRANCH  23  24
BRANCH  23  26
ATOM     26  C   UNL     1       0.534   8.106  -1.647  0.00  0.00    +0.190 C 
BRANCH  26  27
ATOM     27  O   UNL     1       0.045   9.237  -2.372  0.00  0.00    -0.365 OA
BRANCH  27  28
ATOM     28  C   UNL     1      -1.380   9.348  -2.384  0.00  0.00    +0.248 C 
BRANCH  28  30
ATOM     29  C   UNL     1      -2.086  11.491  -3.766  0.00  0.00    +0.006 C 
ATOM     30  C   UNL     1      -1.773  10.540  -3.153  0.00  0.00    -0.077 C 
ENDBRANCH  28  30
ENDBRANCH  27  28
ENDBRANCH  26  27
ENDBRANCH  23  26
ENDBRANCH  22  23
ENDBRANCH  20  22
BRANCH  20  31
ATOM     31  C   UNL     1       4.561   5.711  -0.246  0.00  0.00    -0.046 C 
BRANCH  31  32
ATOM     32  C   UNL     1       4.179   4.520  -1.127  0.00  0.00    +0.102 C 
ATOM     33  C   UNL     1       4.598   3.204  -0.437  0.00  0.00    +0.032 C 
ATOM     34  C   UNL     1       5.114   2.356  -1.632  0.00  0.00    +0.030 C 
ATOM     35  C   UNL     1       5.738   3.457  -2.526  0.00  0.00    +0.160 C 
ATOM     36  O   UNL     1       4.874   4.597  -2.377  0.00  0.00    -0.378 OA
ENDBRANCH  31  32
ENDBRANCH  20  31
ENDBRANCH   1  20
TORSDOF 13
