REMARK  Name = ZINC15947647
REMARK  6 active torsions:
REMARK  status: ('A' for Active; 'I' for Inactive)
REMARK    1  A    between atoms: C_1  and  C_2
REMARK    2  A    between atoms: C_11  and  O_30
REMARK    3  A    between atoms: C_13  and  C_16
REMARK    4  A    between atoms: C_20  and  O_22
REMARK    5  A    between atoms: O_22  and  C_23
REMARK    6  A    between atoms: C_23  and  C_25
REMARK                            x       y       z     vdW  Elec       q    Type
REMARK                         _______ _______ _______ _____ _____    ______ ____
ROOT
ATOM      1  C   UNL     1      -0.152   1.890   0.565  0.00  0.00    +0.008 C 
ATOM      2  C   UNL     1      -0.124   0.366   0.435  0.00  0.00    -0.009 C 
ATOM      3  C   UNL     1      -1.556  -0.176   0.438  0.00  0.00    +0.008 C 
ATOM      4  C   UNL     1      -1.552  -1.660   0.062  0.00  0.00    +0.037 C 
ATOM      5  C   UNL     1      -0.564  -2.389   0.962  0.00  0.00    -0.023 A 
ATOM      6  C   UNL     1       0.395  -1.715   1.638  0.00  0.00    -0.004 A 
ATOM      7  S   UNL     1       1.281  -2.964   2.530  0.00  0.00    -0.078 S 
ATOM      8  C   UNL     1       0.433  -4.303   2.042  0.00  0.00    +0.080 A 
ATOM      9  C   UNL     1      -0.554  -3.825   1.173  0.00  0.00    +0.068 A 
ATOM     10  C   UNL     1      -1.469  -4.822   0.561  0.00  0.00    +0.220 C 
ATOM     11  N   UNL     1      -1.464  -6.032   1.053  0.00  0.00    -0.223 NA
ATOM     12  C   UNL     1      -0.671  -6.453   2.201  0.00  0.00    +0.224 C 
ATOM     13  N   UNL     1       0.551  -5.641   2.345  0.00  0.00    -0.313 N 
ATOM     14  C   UNL     1       0.641  -0.238   1.622  0.00  0.00    +0.046 C 
ATOM     15  H   UNL     1       1.392  -6.028   2.635  0.00  0.00    +0.149 HD
ENDROOT
BRANCH  12  16
ATOM     16  C   UNL     1      -1.501  -6.313   3.451  0.00  0.00    -0.002 A 
ATOM     17  C   UNL     1      -0.890  -6.033   4.659  0.00  0.00    +0.007 A 
ATOM     18  C   UNL     1      -1.649  -5.904   5.807  0.00  0.00    +0.004 A 
ATOM     19  C   UNL     1      -3.021  -6.056   5.750  0.00  0.00    +0.046 A 
ATOM     20  C   UNL     1      -3.637  -6.337   4.540  0.00  0.00    +0.132 A 
ATOM     21  C   UNL     1      -2.873  -6.460   3.387  0.00  0.00    +0.053 A 
BRANCH  20  22
ATOM     22  O   UNL     1      -4.987  -6.486   4.481  0.00  0.00    -0.422 OA
BRANCH  22  23
ATOM     23  C   UNL     1      -5.477  -7.719   4.236  0.00  0.00    +0.351 C 
ATOM     24  O   UNL     1      -4.725  -8.673   4.180  0.00  0.00    -0.244 OA
BRANCH  23  25
ATOM     25  C   UNL     1      -6.915  -7.908   4.038  0.00  0.00    +0.097 A 
ATOM     26  C   UNL     1      -7.617  -9.079   3.784  0.00  0.00    +0.022 A 
ATOM     27  C   UNL     1      -8.976  -8.940   3.644  0.00  0.00    +0.008 A 
ATOM     28  C   UNL     1      -9.529  -7.707   3.759  0.00  0.00    +0.046 A 
ATOM     29  S   UNL     1      -8.223  -6.697   4.069  0.00  0.00    -0.090 S 
ENDBRANCH  23  25
ENDBRANCH  22  23
ENDBRANCH  20  22
ENDBRANCH  12  16
BRANCH  10  30
ATOM     30  O   UNL     1      -2.279  -4.490  -0.471  0.00  0.00    -0.492 OA
ATOM     31  H   UNL     1      -2.831  -5.218  -0.788  0.00  0.00    +0.294 HD
ENDBRANCH  10  30
TORSDOF 5
