REMARK  Name = ZINC03516784
REMARK  5 active torsions:
REMARK  status: ('A' for Active; 'I' for Inactive)
REMARK    1  A    between atoms: C_1  and  C_2
REMARK    2  A    between atoms: C_2  and  N_3
REMARK    3  A    between atoms: C_7  and  C_9
REMARK    4  A    between atoms: C_9  and  N_10
REMARK    5  A    between atoms: C_18  and  C_20
REMARK                            x       y       z     vdW  Elec       q    Type
REMARK                         _______ _______ _______ _____ _____    ______ ____
ROOT
ATOM      1  N   UNL     1      -2.136   0.263   2.478  0.00  0.00    -0.215 N 
ATOM      2  C   UNL     1      -2.117   0.991   1.342  0.00  0.00    +0.247 C 
ATOM      3  O   UNL     1      -3.023   1.142   0.552  0.00  0.00    -0.273 OA
ATOM      4  C   UNL     1      -0.726   1.577   1.263  0.00  0.00    +0.115 C 
ATOM      5  C   UNL     1      -0.013   1.086   0.008  0.00  0.00    +0.035 C 
ATOM      6  C   UNL     1      -0.753   1.593  -1.233  0.00  0.00    +0.003 C 
ATOM      7  C   UNL     1      -0.790   3.122  -1.213  0.00  0.00    +0.000 C 
ATOM      8  C   UNL     1      -1.527   3.600   0.040  0.00  0.00    +0.006 C 
ATOM      9  C   UNL     1      -0.790   3.101   1.286  0.00  0.00    +0.018 C 
ATOM     10  C   UNL     1      -1.536   3.561   2.539  0.00  0.00    +0.010 C 
ATOM     11  N   UNL     1      -0.056   1.072   2.468  0.00  0.00    -0.285 N 
ATOM     12  C   UNL     1      -0.960   0.312   3.115  0.00  0.00    +0.310 C 
ATOM     13  O   UNL     1      -0.734  -0.264   4.161  0.00  0.00    -0.252 OA
ATOM     14  H   UNL     1       0.857   1.250   2.743  0.00  0.00    +0.151 HD
ENDROOT
BRANCH   1  15
ATOM     15  C   UNL     1      -3.301  -0.488   2.955  0.00  0.00    +0.214 C 
BRANCH  15  20
ATOM     16  N   UNL     1      -5.178  -4.891   2.505  0.00  0.00    -0.299 N 
ATOM     17  C   UNL     1      -4.201  -4.014   2.200  0.00  0.00    +0.306 C 
ATOM     18  O   UNL     1      -3.287  -4.351   1.472  0.00  0.00    -0.252 OA
ATOM     19  N   UNL     1      -4.237  -2.763   2.700  0.00  0.00    -0.239 N 
ATOM     20  C   UNL     1      -3.260  -1.886   2.395  0.00  0.00    +0.238 C 
ATOM     21  O   UNL     1      -2.349  -2.223   1.669  0.00  0.00    -0.274 OA
ATOM     22  H   UNL     1      -5.907  -4.622   3.086  0.00  0.00    +0.150 HD
ATOM     23  H   UNL     1      -4.966  -2.494   3.281  0.00  0.00    +0.159 HD
BRANCH  16  25
ATOM     24  C   UNL     1      -6.354  -7.035   2.459  0.00  0.00    +0.024 C 
ATOM     25  C   UNL     1      -5.138  -6.250   1.961  0.00  0.00    +0.102 C 
ENDBRANCH  16  25
ENDBRANCH  15  20
ENDBRANCH   1  15
TORSDOF 3
