REMARK  Name = ZINC47777666
REMARK  8 active torsions:
REMARK  status: ('A' for Active; 'I' for Inactive)
REMARK    1  A    between atoms: C_1  and  C_2
REMARK    2  A    between atoms: C_2  and  C_4
REMARK    3  A    between atoms: C_2  and  N_23
REMARK    4  A    between atoms: C_4  and  N_5
REMARK    5  A    between atoms: N_8  and  C_9
REMARK    6  A    between atoms: C_9  and  C_10
REMARK    7  A    between atoms: C_10  and  C_12
REMARK    8  A    between atoms: C_10  and  N_17
REMARK                            x       y       z     vdW  Elec       q    Type
REMARK                         _______ _______ _______ _____ _____    ______ ____
ROOT
ATOM      1  N   UNL     1      -1.104  -2.175   0.656  0.00  0.00    -0.298 N 
ATOM      2  C   UNL     1      -2.306  -2.770   0.523  0.00  0.00    +0.300 C 
ATOM      3  O   UNL     1      -3.309  -2.093   0.400  0.00  0.00    -0.253 OA
ATOM      4  N   UNL     1      -2.396  -4.114   0.525  0.00  0.00    -0.301 N 
ATOM      5  H   UNL     1      -0.304  -2.714   0.753  0.00  0.00    +0.150 HD
ATOM      6  H   UNL     1      -1.596  -4.654   0.623  0.00  0.00    +0.150 HD
ENDROOT
BRANCH   1   7
ATOM      7  C   UNL     1      -1.006  -0.713   0.653  0.00  0.00    +0.124 C 
BRANCH   7   9
ATOM      8  C   UNL     1       0.548   1.223   0.940  0.00  0.00    +0.026 C 
ATOM      9  C   UNL     1       0.458  -0.300   0.818  0.00  0.00    +0.071 C 
BRANCH   9  10
ATOM     10  N   UNL     1       1.009  -0.922   2.030  0.00  0.00    -0.294 NA
ATOM     11  C   UNL     1       0.283  -0.475   3.228  0.00  0.00    +0.113 C 
ATOM     12  C   UNL     1       0.848  -1.190   4.457  0.00  0.00    +0.175 C 
ATOM     13  O   UNL     1       2.252  -0.934   4.548  0.00  0.00    -0.377 OA
ATOM     14  C   UNL     1       2.990  -1.357   3.398  0.00  0.00    +0.175 C 
ATOM     15  C   UNL     1       2.446  -0.643   2.158  0.00  0.00    +0.113 C 
ENDBRANCH   9  10
ENDBRANCH   7   9
ENDBRANCH   1   7
BRANCH   4  16
ATOM     16  C   UNL     1      -3.703  -4.761   0.381  0.00  0.00    +0.098 C 
BRANCH  16  17
ATOM     17  C   UNL     1      -3.514  -6.276   0.284  0.00  0.00    +0.016 C 
BRANCH  17  18
ATOM     18  N   UNL     1      -2.571  -6.584  -0.800  0.00  0.00    +0.387 N 
ATOM     19  C   UNL     1      -3.107  -6.082  -2.070  0.00  0.00    -0.078 C 
ATOM     20  C   UNL     1      -2.093  -6.328  -3.189  0.00  0.00    -0.019 C 
ATOM     21  C   UNL     1      -1.823  -7.831  -3.305  0.00  0.00    -0.004 C 
ATOM     22  C   UNL     1      -1.335  -8.358  -1.953  0.00  0.00    -0.019 C 
ATOM     23  C   UNL     1      -2.378  -8.037  -0.880  0.00  0.00    -0.078 C 
ATOM     24  H   UNL     1      -1.686  -6.138  -0.611  0.00  0.00    -0.081 HD
ENDBRANCH  17  18
BRANCH  17  25
ATOM     25  C   UNL     1      -2.969  -6.799   1.588  0.00  0.00    +0.093 A 
ATOM     26  C   UNL     1      -3.685  -7.400   2.555  0.00  0.00    +0.043 A 
ATOM     27  C   UNL     1      -2.780  -7.725   3.592  0.00  0.00    +0.041 A 
ATOM     28  C   UNL     1      -1.566  -7.304   3.196  0.00  0.00    +0.195 A 
ATOM     29  O   UNL     1      -1.685  -6.748   1.979  0.00  0.00    -0.469 OA
ENDBRANCH  17  25
ENDBRANCH  16  17
ENDBRANCH   4  16
TORSDOF 7
