REMARK  Name = ZINC06221090
REMARK  4 active torsions:
REMARK  status: ('A' for Active; 'I' for Inactive)
REMARK    1  A    between atoms: C_5  and  C_7
REMARK    2  A    between atoms: C_8  and  C_9
REMARK    3  A    between atoms: N_11  and  N_12
REMARK    4  A    between atoms: C_13  and  C_15
REMARK                            x       y       z     vdW  Elec       q    Type
REMARK                         _______ _______ _______ _____ _____    ______ ____
ROOT
ATOM      1  C   UNL     1       1.147   1.655   0.000  0.00  0.00    +0.253 C 
ATOM      2  O   UNL     1       1.130   2.872   0.007  0.00  0.00    -0.269 OA
ATOM      3  N   UNL     1      -0.011   0.966   0.007  0.00  0.00    -0.231 N 
ATOM      4  H   UNL     1       0.002  -0.004   0.002  0.00  0.00    +0.173 HD
ENDROOT
BRANCH   3   5
ATOM      5  N   UNL     1      -1.234   1.650   0.017  0.00  0.00    -0.230 N 
ATOM      6  C   UNL     1      -2.392   0.960   0.019  0.00  0.00    +0.260 C 
ATOM      7  O   UNL     1      -2.375  -0.255   0.012  0.00  0.00    -0.269 OA
ATOM      8  H   UNL     1      -1.247   2.620   0.022  0.00  0.00    +0.173 HD
BRANCH   6   9
ATOM      9  C   UNL     1      -3.682   1.682   0.029  0.00  0.00    +0.040 A 
ATOM     10  C   UNL     1      -3.704   3.078   0.042  0.00  0.00    +0.013 A 
ATOM     11  C   UNL     1      -4.911   3.746   0.048  0.00  0.00    +0.002 A 
ATOM     12  C   UNL     1      -6.099   3.035   0.049  0.00  0.00    +0.020 A 
ATOM     13  C   UNL     1      -6.084   1.651   0.040  0.00  0.00    +0.042 A 
ATOM     14  C   UNL     1      -4.883   0.971   0.030  0.00  0.00    +0.033 A 
ATOM     15 CL   UNL     1      -7.580   0.769   0.043  0.00  0.00    -0.084 Cl
ENDBRANCH   6   9
ENDBRANCH   3   5
BRANCH   1  17
ATOM     16  C   UNL     1       3.583   1.631  -0.023  0.00  0.00    +0.014 C 
ATOM     17  C   UNL     1       2.424   0.941  -0.016  0.00  0.00    +0.069 C 
BRANCH  16  22
ATOM     18  C   UNL     1       6.097  -1.151  -0.063  0.00  0.00    +0.001 A 
ATOM     19  C   UNL     1       7.285  -0.440  -0.071  0.00  0.00    +0.001 A 
ATOM     20  C   UNL     1       7.272   0.943  -0.063  0.00  0.00    +0.020 A 
ATOM     21  C   UNL     1       6.072   1.625  -0.053  0.00  0.00    +0.048 A 
ATOM     22  C   UNL     1       4.867   0.913  -0.040  0.00  0.00    -0.007 A 
ATOM     23  C   UNL     1       4.890  -0.486  -0.047  0.00  0.00    +0.009 A 
ATOM     24 CL   UNL     1       6.056   3.361  -0.051  0.00  0.00    -0.083 Cl
ENDBRANCH  16  22
ENDBRANCH   1  17
TORSDOF 4
