REMARK  Name = ZINC12055745
REMARK  11 active torsions:
REMARK  status: ('A' for Active; 'I' for Inactive)
REMARK    1  A    between atoms: C_1  and  C_2
REMARK    2  A    between atoms: C_10  and  C_13
REMARK    3  A    between atoms: C_11  and  C_12
REMARK    4  A    between atoms: C_13  and  N_73
REMARK    5  A    between atoms: C_25  and  N_33
REMARK    6  A    between atoms: C_27  and  O_29
REMARK    7  A    between atoms: O_29  and  C_30
REMARK    8  A    between atoms: C_30  and  C_31
REMARK    9  A    between atoms: C_34  and  C_36
REMARK   10  A    between atoms: C_36  and  O_37
REMARK   11  A    between atoms: O_37  and  C_38
REMARK                            x       y       z     vdW  Elec       q    Type
REMARK                         _______ _______ _______ _____ _____    ______ ____
ROOT
ATOM      1  C   UNL     1       1.314   1.025  -7.378  0.00  0.00    -0.077 C 
ATOM      2  C   UNL     1      -0.114   0.603  -7.020  0.00  0.00    -0.005 C 
ATOM      3  C   UNL     1      -0.234   0.466  -5.505  0.00  0.00    +0.021 C 
ATOM      4  C   UNL     1       0.800  -0.527  -4.980  0.00  0.00    -0.005 C 
ATOM      5  C   UNL     1       2.199  -0.069  -5.403  0.00  0.00    -0.077 C 
ATOM      6  C   UNL     1      -1.627   0.026  -5.123  0.00  0.00    -0.034 A 
ATOM      7  C   UNL     1      -2.449  -0.945  -5.671  0.00  0.00    +0.004 A 
ATOM      8  C   UNL     1      -3.705  -1.172  -5.143  0.00  0.00    +0.000 A 
ATOM      9  C   UNL     1      -4.145  -0.428  -4.064  0.00  0.00    +0.000 A 
ATOM     10  C   UNL     1      -3.327   0.540  -3.516  0.00  0.00    +0.006 A 
ATOM     11  C   UNL     1      -2.068   0.770  -4.043  0.00  0.00    -0.021 A 
ATOM     12  C   UNL     1      -0.997   1.758  -3.630  0.00  0.00    +0.133 C 
ATOM     13  C   UNL     1      -0.033   1.837  -4.834  0.00  0.00    +0.154 C 
ATOM     14  N   UNL     1       2.255  -0.001  -6.879  0.00  0.00    +0.383 N 
ATOM     15  H   UNL     1       1.986  -0.914  -7.264  0.00  0.00    -0.081 HD
ENDROOT
BRANCH  12  16
ATOM     16  N   UNL     1      -0.288   1.272  -2.443  0.00  0.00    -0.304 N 
ATOM     17  C   UNL     1      -0.742   1.585  -1.213  0.00  0.00    +0.239 C 
ATOM     18  O   UNL     1      -1.736   2.268  -1.088  0.00  0.00    -0.273 OA
ATOM     19  H   UNL     1       0.507   0.726  -2.543  0.00  0.00    +0.149 HD
BRANCH  17  20
ATOM     20  C   UNL     1      -0.013   1.086   0.008  0.00  0.00    +0.255 C 
BRANCH  20  21
ATOM     21  O   UNL     1      -0.682   1.547   1.184  0.00  0.00    -0.374 OA
ATOM     22  C   UNL     1      -0.068   1.127   2.404  0.00  0.00    +0.194 C 
ENDBRANCH  20  21
ENDBRANCH  17  20
ENDBRANCH  12  16
BRANCH  14  23
ATOM     23  C   UNL     1       3.629   0.319  -7.318  0.00  0.00    -0.024 C 
BRANCH  23  33
ATOM     24  C   UNL     1       7.481  -1.912  -3.860  0.00  0.00    +0.046 C 
ATOM     25  C   UNL     1       6.993  -2.672  -5.066  0.00  0.00    -0.027 A 
ATOM     26  C   UNL     1       7.487  -3.930  -5.337  0.00  0.00    +0.005 A 
ATOM     27  C   UNL     1       7.046  -4.641  -6.444  0.00  0.00    +0.001 A 
ATOM     28  C   UNL     1       6.113  -4.105  -7.286  0.00  0.00    +0.010 A 
ATOM     29  C   UNL     1       5.598  -2.833  -7.031  0.00  0.00    +0.003 A 
ATOM     30  C   UNL     1       6.042  -2.108  -5.910  0.00  0.00    +0.050 A 
ATOM     31  N   UNL     1       5.372  -0.905  -5.912  0.00  0.00    -0.359 N 
ATOM     32  H   UNL     1       5.482  -0.204  -5.250  0.00  0.00    +0.166 HD
ATOM     33  C   UNL     1       4.527  -0.846  -6.987  0.00  0.00    +0.003 A 
ATOM     34  C   UNL     1       4.612  -1.980  -7.699  0.00  0.00    -0.024 A 
ATOM     35  C   UNL     1       3.841  -2.312  -8.951  0.00  0.00    +0.046 C 
ENDBRANCH  23  33
ENDBRANCH  14  23
BRANCH  13  36
ATOM     36  O   UNL     1      -0.410   2.895  -5.718  0.00  0.00    -0.370 OA
BRANCH  36  37
ATOM     37  C   UNL     1       0.224   4.143  -5.433  0.00  0.00    +0.187 C 
BRANCH  37  38
ATOM     38  C   UNL     1      -0.243   5.181  -6.421  0.00  0.00    -0.007 C 
ATOM     39  C   UNL     1      -0.585   6.375  -6.004  0.00  0.00    +0.006 C 
ENDBRANCH  37  38
ENDBRANCH  36  37
ENDBRANCH  13  36
TORSDOF 8
