REMARK  Name = ZINC63807396
REMARK  5 active torsions:
REMARK  status: ('A' for Active; 'I' for Inactive)
REMARK    1  A    between atoms: C_8  and  C_12
REMARK    2  A    between atoms: C_18  and  C_20
REMARK    3  A    between atoms: C_20  and  C_21
REMARK    4  A    between atoms: C_21  and  C_22
REMARK    5  A    between atoms: C_22  and  C_23
REMARK                            x       y       z     vdW  Elec       q    Type
REMARK                         _______ _______ _______ _____ _____    ______ ____
ROOT
ATOM      1  C   UNL     1       4.045  -1.517  -1.100  0.00  0.00    +0.017 C 
ATOM      2  C   UNL     1       3.269  -2.764  -0.669  0.00  0.00    +0.024 C 
ATOM      3  C   UNL     1       3.445  -3.861  -1.724  0.00  0.00    +0.108 C 
ATOM      4  N   UNL     1       4.881  -4.088  -1.934  0.00  0.00    -0.301 N 
ATOM      5  C   UNL     1       5.737  -2.940  -2.264  0.00  0.00    +0.108 C 
ATOM      6  C   UNL     1       5.535  -1.853  -1.204  0.00  0.00    +0.024 C 
ATOM      7  C   UNL     1       5.404  -5.325  -1.826  0.00  0.00    +0.216 C 
ATOM      8  O   UNL     1       4.687  -6.265  -1.553  0.00  0.00    -0.276 OA
ENDROOT
BRANCH   1  16
ATOM      9  C   UNL     1       5.903   3.237  -0.828  0.00  0.00    +0.042 A 
ATOM     10  C   UNL     1       5.899   2.590   0.392  0.00  0.00    +0.051 A 
ATOM     11  C   UNL     1       5.189   1.405   0.551  0.00  0.00    +0.153 A 
ATOM     12  C   UNL     1       4.492   0.881  -0.529  0.00  0.00    +0.020 A 
ATOM     13  C   UNL     1       4.493   1.530  -1.745  0.00  0.00    +0.047 A 
ATOM     14  C   UNL     1       5.199   2.712  -1.898  0.00  0.00    +0.124 A 
ATOM     15  F   UNL     1       5.202   3.350  -3.089  0.00  0.00    -0.205 F 
ATOM     16  C   UNL     1       3.844  -0.408  -0.067  0.00  0.00    +0.129 C 
ATOM     17  N   UNL     1       4.574  -0.715   1.189  0.00  0.00    -0.147 NA
ATOM     18  O   UNL     1       5.034   0.607   1.645  0.00  0.00    -0.406 OA
ATOM     19  H   UNL     1       3.962  -1.139   1.869  0.00  0.00    +0.168 HD
ENDBRANCH   1  16
BRANCH   7  20
ATOM     20  C   UNL     1       6.879  -5.542  -2.045  0.00  0.00    +0.096 C 
BRANCH  20  21
ATOM     21  C   UNL     1       7.209  -7.025  -1.865  0.00  0.00    +0.018 C 
BRANCH  21  22
ATOM     22  C   UNL     1       8.707  -7.245  -2.087  0.00  0.00    +0.096 C 
BRANCH  22  23
ATOM     23  C   UNL     1       9.031  -8.706  -1.909  0.00  0.00    +0.219 C 
ATOM     24  O   UNL     1       8.152  -9.494  -1.632  0.00  0.00    -0.275 OA
ATOM     25  N   UNL     1      10.300  -9.137  -2.058  0.00  0.00    -0.263 N 
ATOM     26  C   UNL     1      10.600 -10.485  -1.894  0.00  0.00    +0.187 A 
ATOM     27  N   UNL     1       9.793 -11.487  -1.601  0.00  0.00    -0.126 NA
ATOM     28  N   UNL     1      10.216 -12.672  -1.484  0.00  0.00    -0.148 NA
ATOM     29  C   UNL     1      11.500 -12.915  -1.658  0.00  0.00    +0.183 A 
ATOM     30  S   UNL     1      12.088 -11.267  -2.025  0.00  0.00    -0.039 S 
ATOM     31  H   UNL     1      11.003  -8.507  -2.280  0.00  0.00    +0.157 HD
ENDBRANCH  22  23
ENDBRANCH  21  22
ENDBRANCH  20  21
ENDBRANCH   7  20
TORSDOF 5
