REMARK  Name = ZINC51684470
REMARK  5 active torsions:
REMARK  status: ('A' for Active; 'I' for Inactive)
REMARK    1  A    between atoms: C_4  and  C_8
REMARK    2  A    between atoms: C_8  and  C_10
REMARK    3  A    between atoms: C_8  and  N_24
REMARK    4  A    between atoms: C_10  and  N_11
REMARK    5  A    between atoms: C_18  and  C_21
REMARK                            x       y       z     vdW  Elec       q    Type
REMARK                         _______ _______ _______ _____ _____    ______ ____
ROOT
ATOM      1  C   UNL     1       3.758  -1.305   1.264  0.00  0.00    +0.095 C 
ENDROOT
BRANCH   1   2
ATOM      2  N   UNL     1       3.874  -0.276   2.300  0.00  0.00    -0.300 N 
ATOM      3  C   UNL     1       3.867  -0.627   3.602  0.00  0.00    +0.302 C 
ATOM      4  O   UNL     1       3.847  -1.802   3.914  0.00  0.00    -0.253 OA
ATOM      5  N   UNL     1       3.882   0.325   4.556  0.00  0.00    -0.281 N 
ATOM      6  C   UNL     1       3.978  -0.033   5.981  0.00  0.00    +0.137 C 
ATOM      7  C   UNL     1       5.106   0.792   6.611  0.00  0.00    +0.180 C 
ATOM      8  O   UNL     1       4.899   2.175   6.316  0.00  0.00    -0.364 OA
ATOM      9  C   UNL     1       4.939   2.489   4.922  0.00  0.00    +0.221 C 
ATOM     10  C   UNL     1       3.809   1.752   4.205  0.00  0.00    +0.150 C 
ATOM     11  H   UNL     1       3.955   0.658   2.050  0.00  0.00    +0.150 HD
BRANCH   9  12
ATOM     12  C   UNL     1       4.772   3.975   4.735  0.00  0.00    +0.241 C 
ATOM     13  O   UNL     1       4.542   4.684   5.692  0.00  0.00    -0.273 OA
ATOM     14  N   UNL     1       4.879   4.516   3.505  0.00  0.00    -0.327 N 
ATOM     15  H   UNL     1       5.064   3.949   2.740  0.00  0.00    +0.145 HD
ATOM     16  H   UNL     1       4.772   5.473   3.385  0.00  0.00    +0.145 HD
ENDBRANCH   9  12
ENDBRANCH   1   2
BRANCH   1  17
ATOM     17  C   UNL     1       3.661  -0.636  -0.109  0.00  0.00    -0.016 C 
BRANCH  17  21
ATOM     18  C   UNL     1      -0.039   1.482  -0.405  0.00  0.00    +0.004 A 
ATOM     19  C   UNL     1       1.153   2.180  -0.351  0.00  0.00    +0.038 A 
ATOM     20  C   UNL     1       2.352   1.495  -0.255  0.00  0.00    +0.126 A 
ATOM     21  C   UNL     1       2.356   0.111  -0.213  0.00  0.00    -0.006 A 
ATOM     22  C   UNL     1       1.163  -0.586  -0.268  0.00  0.00    +0.045 A 
ATOM     23  C   UNL     1      -0.035   0.101  -0.364  0.00  0.00    +0.020 A 
ATOM     24 CL   UNL     1       1.167  -2.321  -0.216  0.00  0.00    -0.083 Cl
ATOM     25  F   UNL     1       3.518   2.176  -0.202  0.00  0.00    -0.205 F 
ENDBRANCH  17  21
BRANCH  17  26
ATOM     26  N   UNL     1       3.723  -1.663  -1.159  0.00  0.00    +0.385 N 
ATOM     27  C   UNL     1       3.597  -1.033  -2.498  0.00  0.00    -0.078 C 
ATOM     28  C   UNL     1       4.228  -2.086  -3.445  0.00  0.00    -0.020 C 
ATOM     29  C   UNL     1       5.406  -2.638  -2.610  0.00  0.00    -0.020 C 
ATOM     30  C   UNL     1       5.045  -2.325  -1.147  0.00  0.00    -0.078 C 
ATOM     31  H   UNL     1       2.991  -2.344  -1.023  0.00  0.00    -0.081 HD
ENDBRANCH  17  26
ENDBRANCH   1  17
TORSDOF 5
