REMARK  Name = ZINC67643038
REMARK  7 active torsions:
REMARK  status: ('A' for Active; 'I' for Inactive)
REMARK    1  A    between atoms: C_1  and  N_2
REMARK    2  A    between atoms: C_3  and  C_5
REMARK    3  A    between atoms: C_5  and  N_6
REMARK    4  A    between atoms: C_7  and  C_9
REMARK    5  A    between atoms: C_11  and  C_14
REMARK    6  A    between atoms: C_14  and  O_15
REMARK    7  A    between atoms: O_15  and  C_16
REMARK                            x       y       z     vdW  Elec       q    Type
REMARK                         _______ _______ _______ _____ _____    ______ ____
ROOT
ATOM      1  C   UNL     1       2.194  -4.483   3.589  0.00  0.00    +0.168 A 
ATOM      2  C   UNL     1       2.423  -5.838   3.927  0.00  0.00    +0.084 A 
ATOM      3  C   UNL     1       3.106  -5.869   5.086  0.00  0.00    +0.175 A 
ATOM      4  O   UNL     1       3.312  -4.604   5.485  0.00  0.00    -0.355 OA
ATOM      5  N   UNL     1       2.734  -3.740   4.524  0.00  0.00    -0.073 NA
ENDROOT
BRANCH   1   7
ATOM      6  N   UNL     1       1.333  -2.667   2.182  0.00  0.00    -0.301 N 
ATOM      7  C   UNL     1       1.476  -3.992   2.387  0.00  0.00    +0.266 C 
ATOM      8  O   UNL     1       1.018  -4.783   1.587  0.00  0.00    -0.268 OA
ATOM      9  H   UNL     1       1.700  -2.036   2.821  0.00  0.00    +0.150 HD
BRANCH   6  10
ATOM     10  C   UNL     1       0.625  -2.182   0.995  0.00  0.00    +0.200 C 
BRANCH  10  13
ATOM     11  C   UNL     1      -0.018   1.461   0.010  0.00  0.00    +0.128 C 
ATOM     12  N   UNL     1       0.002  -0.004   0.002  0.00  0.00    -0.317 N 
ATOM     13  C   UNL     1       0.604  -0.675   1.004  0.00  0.00    +0.230 C 
ATOM     14  O   UNL     1       1.130  -0.067   1.911  0.00  0.00    -0.274 OA
ATOM     15  H   UNL     1      -0.418  -0.491  -0.724  0.00  0.00    +0.148 HD
ENDBRANCH  10  13
ENDBRANCH   6  10
ENDBRANCH   1   7
BRANCH   3  16
ATOM     16  C   UNL     1       3.560  -7.109   5.812  0.00  0.00    +0.306 C 
BRANCH  16  17
ATOM     17  O   UNL     1       4.865  -7.475   5.358  0.00  0.00    -0.484 OA
BRANCH  17  18
ATOM     18  C   UNL     1       5.424  -8.581   5.916  0.00  0.00    +0.121 A 
ATOM     19  C   UNL     1       4.732  -9.303   6.877  0.00  0.00    +0.046 A 
ATOM     20  C   UNL     1       5.309 -10.421   7.439  0.00  0.00    +0.007 A 
ATOM     21  C   UNL     1       6.579 -10.833   7.051  0.00  0.00    -0.044 A 
ATOM     22  C   UNL     1       7.266 -10.121   6.094  0.00  0.00    -0.041 A 
ATOM     23  C   UNL     1       6.686  -8.995   5.525  0.00  0.00    +0.049 A 
ATOM     24  C   UNL     1       8.637 -10.520   5.615  0.00  0.00    +0.035 C 
ATOM     25  C   UNL     1       9.293 -11.481   6.604  0.00  0.00    +0.005 C 
ATOM     26  C   UNL     1       8.310 -12.621   6.895  0.00  0.00    +0.005 C 
ATOM     27  C   UNL     1       7.150 -12.060   7.714  0.00  0.00    +0.035 C 
ENDBRANCH  17  18
ENDBRANCH  16  17
ENDBRANCH   3  16
TORSDOF 6
