REMARK  Name = ZINC15484868
REMARK  16 active torsions:
REMARK  status: ('A' for Active; 'I' for Inactive)
REMARK    1  A    between atoms: C_1  and  C_2
REMARK    2  A    between atoms: C_2  and  C_3
REMARK    3  A    between atoms: C_3  and  C_4
REMARK    4  A    between atoms: C_4  and  N_5
REMARK    5  A    between atoms: C_6  and  N_32
REMARK    6  A    between atoms: C_7  and  N_14
REMARK    7  A    between atoms: N_14  and  C_15
REMARK    8  A    between atoms: C_20  and  C_22
REMARK    9  A    between atoms: C_22  and  N_70
REMARK   10  A    between atoms: C_23  and  N_70
REMARK   11  A    between atoms: C_24  and  C_25
REMARK   12  A    between atoms: C_24  and  N_70
REMARK   13  A    between atoms: N_27  and  C_28
REMARK   14  A    between atoms: N_27  and  C_30
REMARK   15  A    between atoms: C_28  and  C_29
REMARK   16  A    between atoms: C_30  and  C_31
REMARK                            x       y       z     vdW  Elec       q    Type
REMARK                         _______ _______ _______ _____ _____    ______ ____
ROOT
ATOM      1  N   UNL     1       0.831  -1.807   1.468  0.00  0.00    -0.263 N 
ATOM      2  C   UNL     1       0.946  -0.492   1.188  0.00  0.00    +0.204 C 
ATOM      3  O   UNL     1       0.512  -0.054   0.143  0.00  0.00    -0.277 OA
ENDROOT
BRANCH   1   6
ATOM      4  N   UNL     1       1.045  -2.425   5.083  0.00  0.00    -0.280 N 
ATOM      5  C   UNL     1       0.609  -1.925   3.878  0.00  0.00    +0.127 A 
ATOM      6  C   UNL     1       1.255  -2.302   2.719  0.00  0.00    +0.140 A 
ATOM      7  C   UNL     1       2.341  -3.194   2.806  0.00  0.00    +0.277 A 
ATOM      8  O   UNL     1       2.927  -3.547   1.796  0.00  0.00    -0.266 OA
ATOM      9  N   UNL     1       2.732  -3.650   4.012  0.00  0.00    -0.273 N 
ATOM     10  H   UNL     1       3.508  -4.277   4.075  0.00  0.00    +0.173 HD
ATOM     11  C   UNL     1       2.090  -3.271   5.131  0.00  0.00    +0.331 A 
ATOM     12  O   UNL     1       2.461  -3.702   6.206  0.00  0.00    -0.246 OA
BRANCH   5  13
ATOM     13  N   UNL     1      -0.459  -1.061   3.830  0.00  0.00    -0.343 N 
ATOM     14  H   UNL     1      -0.814  -0.777   2.973  0.00  0.00    +0.144 HD
ATOM     15  H   UNL     1      -0.857  -0.735   4.652  0.00  0.00    +0.144 HD
ENDBRANCH   5  13
BRANCH   4  16
ATOM     16  C   UNL     1       0.369  -2.033   6.322  0.00  0.00    +0.128 C 
BRANCH  16  17
ATOM     17  C   UNL     1      -0.767  -3.014   6.616  0.00  0.00    +0.021 C 
BRANCH  17  19
ATOM     18  C   UNL     1      -2.610  -3.587   8.203  0.00  0.00    +0.004 C 
ATOM     19  C   UNL     1      -1.474  -2.605   7.909  0.00  0.00    -0.002 C 
ENDBRANCH  17  19
ENDBRANCH  16  17
ENDBRANCH   4  16
ENDBRANCH   1   6
BRANCH   1  20
ATOM     20  C   UNL     1       0.267  -2.721   0.471  0.00  0.00    +0.082 C 
ATOM     21  C   UNL     1       1.071  -2.633  -0.842  0.00  0.00    +0.023 C 
ATOM     22  C   UNL     1      -0.001  -2.773  -1.953  0.00  0.00    +0.002 C 
ATOM     23  C   UNL     1      -1.200  -1.981  -1.374  0.00  0.00    +0.002 C 
ATOM     24  C   UNL     1      -1.176  -2.307   0.134  0.00  0.00    +0.023 C 
ENDBRANCH   1  20
BRANCH   2  25
ATOM     25  C   UNL     1       1.612   0.432   2.174  0.00  0.00    +0.019 C 
BRANCH  25  27
ATOM     26  C   UNL     1       0.073   2.247   1.726  0.00  0.00    -0.095 C 
ATOM     27  N   UNL     1       1.488   1.821   1.684  0.00  0.00    +0.389 N 
ATOM     28  H   UNL     1       1.820   1.864   0.714  0.00  0.00    -0.081 HD
BRANCH  27  29
ATOM     29  C   UNL     1       2.312   2.725   2.514  0.00  0.00    +0.019 C 
BRANCH  29  30
ATOM     30  C   UNL     1       2.344   4.086   1.866  0.00  0.00    +0.199 C 
ATOM     31  O   UNL     1       1.732   4.282   0.838  0.00  0.00    -0.278 OA
ATOM     32  N   UNL     1       3.052   5.084   2.430  0.00  0.00    -0.304 N 
BRANCH  32  33
ATOM     33  C   UNL     1       3.791   4.847   3.673  0.00  0.00    +0.104 C 
ATOM     34  C   UNL     1       5.207   4.374   3.341  0.00  0.00    +0.024 C 
ENDBRANCH  32  33
BRANCH  32  35
ATOM     35  C   UNL     1       3.083   6.407   1.801  0.00  0.00    +0.104 C 
ATOM     36  C   UNL     1       1.934   7.258   2.345  0.00  0.00    +0.024 C 
ENDBRANCH  32  35
ENDBRANCH  29  30
ENDBRANCH  27  29
ENDBRANCH  25  27
ENDBRANCH   2  25
TORSDOF 12
