REMARK  Name = ZINC39959738
REMARK  6 active torsions:
REMARK  status: ('A' for Active; 'I' for Inactive)
REMARK    1  A    between atoms: C_1  and  O_2
REMARK    2  A    between atoms: O_2  and  C_3
REMARK    3  A    between atoms: C_6  and  C_10
REMARK    4  A    between atoms: C_7  and  O_9
REMARK    5  A    between atoms: C_16  and  C_26
REMARK    6  A    between atoms: C_19  and  C_21
REMARK                            x       y       z     vdW  Elec       q    Type
REMARK                         _______ _______ _______ _____ _____    ______ ____
ROOT
ATOM      1  C   UNL     1       2.499  -2.486  -4.373  0.00  0.00    +0.084 A 
ATOM      2  C   UNL     1       3.062  -1.732  -5.364  0.00  0.00    +0.077 A 
ATOM      3  S   UNL     1       3.681  -3.013  -6.446  0.00  0.00    -0.058 S 
ATOM      4  C   UNL     1       3.131  -4.410  -5.476  0.00  0.00    +0.181 A 
ATOM      5  N   UNL     1       2.552  -3.808  -4.452  0.00  0.00    -0.223 NA
ATOM      6  N   UNL     1       3.277  -5.763  -5.729  0.00  0.00    -0.193 N 
ATOM      7  C   UNL     1       3.951  -6.348  -6.899  0.00  0.00    +0.136 C 
ATOM      8  C   UNL     1       3.820  -7.867  -6.671  0.00  0.00    +0.087 C 
ATOM      9  C   UNL     1       3.067  -7.976  -5.365  0.00  0.00    +0.075 C 
ATOM     10  N   UNL     1       2.814  -6.793  -4.913  0.00  0.00    -0.181 NA
ENDROOT
BRANCH   7  11
ATOM     11  C   UNL     1       5.401  -5.936  -6.935  0.00  0.00    -0.021 A 
ATOM     12  C   UNL     1       6.126  -5.861  -5.761  0.00  0.00    +0.009 A 
ATOM     13  C   UNL     1       7.456  -5.485  -5.789  0.00  0.00    +0.050 A 
ATOM     14  C   UNL     1       8.065  -5.182  -6.996  0.00  0.00    +0.166 A 
ATOM     15  C   UNL     1       7.334  -5.258  -8.179  0.00  0.00    +0.167 A 
ATOM     16  C   UNL     1       6.003  -5.641  -8.144  0.00  0.00    +0.055 A 
ATOM     17  O   UNL     1       8.150  -4.915  -9.219  0.00  0.00    -0.453 OA
ATOM     18  C   UNL     1       9.270  -4.236  -8.621  0.00  0.00    +0.466 C 
ATOM     19  O   UNL     1       9.339  -4.792  -7.294  0.00  0.00    -0.453 OA
ENDBRANCH   7  11
BRANCH   1  23
ATOM     20  C   UNL     1       0.606  -0.607  -1.056  0.00  0.00    +0.124 A 
ATOM     21  C   UNL     1       1.173   0.164  -2.062  0.00  0.00    +0.046 A 
ATOM     22  C   UNL     1       1.787  -0.442  -3.138  0.00  0.00    +0.017 A 
ATOM     23  C   UNL     1       1.840  -1.832  -3.217  0.00  0.00    +0.043 A 
ATOM     24  C   UNL     1       1.269  -2.608  -2.203  0.00  0.00    +0.129 A 
ATOM     25  C   UNL     1       0.659  -1.991  -1.125  0.00  0.00    +0.091 A 
BRANCH  20  27
ATOM     26  C   UNL     1      -0.017   1.425   0.010  0.00  0.00    +0.277 C 
ATOM     27  O   UNL     1       0.002  -0.004   0.002  0.00  0.00    -0.495 OA
ENDBRANCH  20  27
BRANCH  24  28
ATOM     28  O   UNL     1       1.318  -3.964  -2.275  0.00  0.00    -0.506 OA
ATOM     29  H   UNL     1       2.100  -4.352  -1.860  0.00  0.00    +0.292 HD
ENDBRANCH  24  28
ENDBRANCH   1  23
BRANCH   9  30
ATOM     30  C   UNL     1       2.689  -9.233  -4.708  0.00  0.00    +0.035 A 
ATOM     31  C   UNL     1       2.000  -9.425  -3.524  0.00  0.00    +0.017 A 
ATOM     32  C   UNL     1       1.762 -10.716  -3.108  0.00  0.00    +0.008 A 
ATOM     33  C   UNL     1       2.207 -11.751  -3.867  0.00  0.00    +0.046 A 
ATOM     34  S   UNL     1       2.991 -10.912  -5.233  0.00  0.00    -0.095 S 
ENDBRANCH   9  30
TORSDOF 5
