REMARK  Name = ZINC13737416
REMARK  4 active torsions:
REMARK  status: ('A' for Active; 'I' for Inactive)
REMARK    1  A    between atoms: C_3  and  N_23
REMARK    2  A    between atoms: C_6  and  N_7
REMARK    3  A    between atoms: N_9  and  C_10
REMARK    4  A    between atoms: N_12  and  C_13
REMARK                            x       y       z     vdW  Elec       q    Type
REMARK                         _______ _______ _______ _____ _____    ______ ____
ROOT
ATOM      1  N   UNL     1       0.035  -2.759   0.114  0.00  0.00    -0.324 N 
ATOM      2  C   UNL     1      -1.164  -2.106   0.166  0.00  0.00    +0.213 C 
ATOM      3  N   UNL     1      -1.198  -0.785   0.171  0.00  0.00    -0.138 NA
ATOM      4  N   UNL     1      -2.329  -2.819   0.213  0.00  0.00    -0.352 N 
ATOM      5  H   UNL     1      -3.175  -2.358   0.326  0.00  0.00    +0.163 HD
ATOM      6  H   UNL     1       0.058  -3.725   0.033  0.00  0.00    +0.169 HD
ENDROOT
BRANCH   4   7
ATOM      7  C   UNL     1      -2.300  -4.279   0.094  0.00  0.00    +0.085 C 
ATOM      8  C   UNL     1      -3.672  -4.808  -0.382  0.00  0.00    +0.028 C 
ATOM      9  C   UNL     1      -4.160  -5.734   0.774  0.00  0.00    -0.009 C 
ATOM     10  C   UNL     1      -4.518  -4.755   1.933  0.00  0.00    +0.004 C 
ATOM     11  C   UNL     1      -3.156  -4.209   2.418  0.00  0.00    +0.006 C 
ATOM     12  C   UNL     1      -2.085  -4.934   1.492  0.00  0.00    +0.012 C 
ATOM     13  C   UNL     1      -2.792  -6.320   1.273  0.00  0.00    +0.009 C 
ENDBRANCH   4   7
BRANCH   1  19
ATOM     14  C   UNL     1       1.307  -0.861   0.929  0.00  0.00    +0.030 A 
ATOM     15  C   UNL     1       2.508  -0.177   0.965  0.00  0.00    +0.045 A 
ATOM     16  C   UNL     1       3.595  -0.677   0.254  0.00  0.00    +0.116 A 
ATOM     17  N   UNL     1       3.487  -1.793  -0.449  0.00  0.00    -0.239 NA
ATOM     18  C   UNL     1       2.357  -2.471  -0.505  0.00  0.00    +0.138 A 
ATOM     19  C   UNL     1       1.232  -2.033   0.178  0.00  0.00    +0.060 A 
BRANCH  16  20
ATOM     20  N   UNL     1       4.808   0.005   0.283  0.00  0.00    -0.343 N 
ATOM     21  H   UNL     1       4.893   0.823   0.797  0.00  0.00    +0.144 HD
ATOM     22  H   UNL     1       5.569  -0.339  -0.210  0.00  0.00    +0.144 HD
ENDBRANCH  16  20
ENDBRANCH   1  19
BRANCH   3  23
ATOM     23  C   UNL     1      -2.377  -0.137   0.327  0.00  0.00    +0.208 C 
ATOM     24  N   UNL     1      -3.367   0.406   0.459  0.00  0.00    -0.169 NA
ENDBRANCH   3  23
TORSDOF 4
