REMARK  Name = ZINC04619850
REMARK  5 active torsions:
REMARK  status: ('A' for Active; 'I' for Inactive)
REMARK    1  A    between atoms: C_6  and  C_7
REMARK    2  A    between atoms: C_9  and  C_12
REMARK    3  A    between atoms: C_12  and  S_13
REMARK    4  A    between atoms: S_13  and  C_14
REMARK    5  A    between atoms: C_20  and  N_22
REMARK                            x       y       z     vdW  Elec       q    Type
REMARK                         _______ _______ _______ _____ _____    ______ ____
ROOT
ATOM      1  C   UNL     1      -6.072   0.560   0.035  0.00  0.00    +0.176 C 
ENDROOT
BRANCH   1   4
ATOM      2  C   UNL     1      -2.505   1.001   0.019  0.00  0.00    +0.202 A 
ATOM      3  N   UNL     1      -3.750   1.529   0.033  0.00  0.00    -0.191 NA
ATOM      4  C   UNL     1      -4.566   0.505   0.026  0.00  0.00    +0.238 A 
ATOM      5  O   UNL     1      -3.812  -0.599   0.017  0.00  0.00    -0.337 OA
ATOM      6  N   UNL     1      -2.637  -0.300   0.012  0.00  0.00    -0.056 NA
BRANCH   2  12
ATOM      7  C   UNL     1      -0.013   1.076   0.008  0.00  0.00    +0.013 A 
ATOM      8  C   UNL     1       1.172   1.783   0.000  0.00  0.00    +0.021 A 
ATOM      9  C   UNL     1       1.155   3.167   0.008  0.00  0.00    +0.041 A 
ATOM     10  C   UNL     1      -0.050   3.849   0.023  0.00  0.00    +0.021 A 
ATOM     11  C   UNL     1      -1.240   3.151   0.031  0.00  0.00    +0.013 A 
ATOM     12  C   UNL     1      -1.228   1.757   0.017  0.00  0.00    +0.023 A 
ATOM     13 CL   UNL     1       2.649   4.052  -0.002  0.00  0.00    -0.084 Cl
ENDBRANCH   2  12
ENDBRANCH   1   4
BRANCH   1  14
ATOM     14  S   UNL     1      -6.684   0.592  -1.669  0.00  0.00    -0.078 S 
BRANCH  14  15
ATOM     15  C   UNL     1      -8.419   0.654  -1.369  0.00  0.00    +0.171 A 
ATOM     16  N   UNL     1      -9.278   0.692  -2.426  0.00  0.00    -0.302 N 
ATOM     17  H   UNL     1      -8.921   0.684  -3.360  0.00  0.00    +0.171 HD
ATOM     18  C   UNL     1     -10.610   0.739  -2.215  0.00  0.00    +0.254 A 
ATOM     19  O   UNL     1     -11.387   0.773  -3.157  0.00  0.00    -0.268 OA
ATOM     20  C   UNL     1     -11.086   0.750  -0.901  0.00  0.00    +0.113 A 
ATOM     21  C   UNL     1     -10.170   0.711   0.141  0.00  0.00    +0.124 A 
ATOM     22  N   UNL     1      -8.860   0.658  -0.128  0.00  0.00    -0.209 NA
BRANCH  21  23
ATOM     23  N   UNL     1     -10.608   0.720   1.450  0.00  0.00    -0.343 N 
ATOM     24  H   UNL     1     -11.558   0.753   1.643  0.00  0.00    +0.144 HD
ATOM     25  H   UNL     1      -9.966   0.692   2.177  0.00  0.00    +0.144 HD
ENDBRANCH  21  23
ENDBRANCH  14  15
ENDBRANCH   1  14
TORSDOF 5
