REMARK  Name = ZINC27215253
REMARK  11 active torsions:
REMARK  status: ('A' for Active; 'I' for Inactive)
REMARK    1  A    between atoms: C_10  and  N_11
REMARK    2  A    between atoms: C_12  and  C_13
REMARK    3  A    between atoms: C_13  and  N_14
REMARK    4  A    between atoms: N_17  and  C_18
REMARK    5  A    between atoms: C_21  and  C_24
REMARK    6  A    between atoms: C_24  and  C_25
REMARK    7  A    between atoms: C_25  and  N_26
REMARK    8  A    between atoms: N_26  and  C_27
REMARK    9  A    between atoms: C_27  and  C_28
REMARK   10  A    between atoms: C_28  and  C_30
REMARK   11  A    between atoms: C_28  and  O_36
REMARK                            x       y       z     vdW  Elec       q    Type
REMARK                         _______ _______ _______ _____ _____    ______ ____
ROOT
ATOM      1  C   UNL     1       4.976  -2.841   0.407  0.00  0.00    +0.032 A 
ATOM      2  C   UNL     1       3.709  -2.391   0.059  0.00  0.00    +0.023 A 
ATOM      3  C   UNL     1       2.612  -3.210   0.241  0.00  0.00    +0.005 A 
ATOM      4  C   UNL     1       2.775  -4.478   0.770  0.00  0.00    -0.049 A 
ATOM      5  C   UNL     1       4.035  -4.929   1.118  0.00  0.00    +0.005 A 
ATOM      6  C   UNL     1       5.136  -4.117   0.932  0.00  0.00    +0.023 A 
ENDROOT
BRANCH   1   9
ATOM      7  N   UNL     1       7.068   0.069   0.457  0.00  0.00    -0.234 NA
ATOM      8  C   UNL     1       6.000  -0.677   0.501  0.00  0.00    +0.126 C 
ATOM      9  N   UNL     1       6.088  -2.014   0.223  0.00  0.00    -0.301 N 
ATOM     10  H   UNL     1       6.923  -2.389  -0.101  0.00  0.00    +0.153 HD
BRANCH   7  20
ATOM     11  C   UNL     1      11.740   0.035   2.332  0.00  0.00    +0.001 A 
ATOM     12  C   UNL     1      10.537   0.589   2.763  0.00  0.00    +0.001 A 
ATOM     13  C   UNL     1       9.395   0.436   2.036  0.00  0.00    +0.010 A 
ATOM     14  C   UNL     1       9.427  -0.287   0.836  0.00  0.00    +0.008 A 
ATOM     15  C   UNL     1      10.649  -0.852   0.396  0.00  0.00    -0.016 A 
ATOM     16  C   UNL     1      11.808  -0.674   1.172  0.00  0.00    +0.008 A 
ATOM     17  C   UNL     1      10.684  -1.577  -0.808  0.00  0.00    +0.008 A 
ATOM     18  C   UNL     1       9.548  -1.734  -1.544  0.00  0.00    +0.003 A 
ATOM     19  C   UNL     1       8.340  -1.188  -1.128  0.00  0.00    +0.028 A 
ATOM     20  C   UNL     1       8.260  -0.465   0.053  0.00  0.00    +0.073 A 
ENDBRANCH   7  20
BRANCH   8  21
ATOM     21  C   UNL     1       4.669  -0.068   0.858  0.00  0.00    +0.282 C 
BRANCH  21  22
ATOM     22  N   UNL     1       4.881   1.100   1.716  0.00  0.00    +0.030 N 
ATOM     23  O   UNL     1       5.738   1.907   1.438  0.00  0.00    -0.131 OA
ATOM     24  O   UNL     1       4.199   1.258   2.702  0.00  0.00    -0.131 OA
ENDBRANCH  21  22
ENDBRANCH   8  21
ENDBRANCH   1   9
BRANCH   4  25
ATOM     25  C   UNL     1       1.576  -5.369   0.968  0.00  0.00    +0.016 C 
BRANCH  25  26
ATOM     26  C   UNL     1       1.416  -6.286  -0.246  0.00  0.00    -0.078 C 
BRANCH  26  27
ATOM     27  N   UNL     1       0.247  -7.155  -0.053  0.00  0.00    +0.381 N 
ATOM     28  H   UNL     1       0.377  -7.714   0.776  0.00  0.00    -0.086 HD
ATOM     29  H   UNL     1      -0.580  -6.587   0.051  0.00  0.00    -0.086 HD
BRANCH  27  30
ATOM     30  C   UNL     1       0.094  -8.035  -1.219  0.00  0.00    -0.046 C 
BRANCH  30  31
ATOM     31  C   UNL     1      -1.123  -8.940  -1.018  0.00  0.00    +0.129 C 
BRANCH  31  32
ATOM     32  C   UNL     1      -1.281  -9.844  -2.214  0.00  0.00    -0.003 A 
ATOM     33  C   UNL     1      -2.126  -9.490  -3.255  0.00  0.00    +0.009 A 
ATOM     34  C   UNL     1      -2.240 -10.352  -4.335  0.00  0.00    +0.020 A 
ATOM     35  C   UNL     1      -1.512 -11.527  -4.338  0.00  0.00    +0.111 A 
ATOM     36  N   UNL     1      -0.717 -11.831  -3.331  0.00  0.00    -0.263 NA
ATOM     37  C   UNL     1      -0.580 -11.032  -2.290  0.00  0.00    +0.116 A 
ENDBRANCH  31  32
BRANCH  31  38
ATOM     38  O   UNL     1      -0.939  -9.733   0.157  0.00  0.00    -0.389 OA
ATOM     39  H   UNL     1      -0.160 -10.305   0.127  0.00  0.00    +0.210 HD
ENDBRANCH  31  38
ENDBRANCH  30  31
ENDBRANCH  27  30
ENDBRANCH  26  27
ENDBRANCH  25  26
ENDBRANCH   4  25
TORSDOF 11
