REMARK  Name = ZINC53105960
REMARK  10 active torsions:
REMARK  status: ('A' for Active; 'I' for Inactive)
REMARK    1  A    between atoms: C_1  and  C_2
REMARK    2  A    between atoms: C_7  and  C_9
REMARK    3  A    between atoms: C_7  and  N_11
REMARK    4  A    between atoms: C_9  and  O_10
REMARK    5  A    between atoms: C_12  and  C_14
REMARK    6  A    between atoms: C_14  and  C_16
REMARK    7  A    between atoms: C_14  and  N_20
REMARK    8  A    between atoms: C_16  and  C_17
REMARK    9  A    between atoms: C_17  and  C_18
REMARK   10  A    between atoms: C_17  and  C_19
REMARK                            x       y       z     vdW  Elec       q    Type
REMARK                         _______ _______ _______ _____ _____    ______ ____
ROOT
ATOM      1  N   UNL     1      -0.262  -2.720   1.292  0.00  0.00    -0.306 N 
ATOM      2  C   UNL     1      -0.642  -4.004   1.141  0.00  0.00    +0.234 C 
ATOM      3  O   UNL     1       0.191  -4.863   0.944  0.00  0.00    -0.274 OA
ATOM      4  H   UNL     1      -0.923  -2.039   1.495  0.00  0.00    +0.149 HD
ENDROOT
BRANCH   1  10
ATOM      5  C   UNL     1       2.318  -3.442   4.651  0.00  0.00    +0.007 C 
ATOM      6  C   UNL     1       1.489  -2.703   3.599  0.00  0.00    -0.012 C 
ATOM      7  C   UNL     1       1.644  -1.194   3.794  0.00  0.00    +0.003 C 
ATOM      8  C   UNL     1       0.815  -0.455   2.742  0.00  0.00    +0.002 C 
ATOM      9  C   UNL     1       1.303  -0.842   1.344  0.00  0.00    +0.028 C 
ATOM     10  C   UNL     1       1.148  -2.351   1.149  0.00  0.00    +0.058 C 
ATOM     11  C   UNL     1       1.978  -3.089   2.201  0.00  0.00    +0.031 C 
BRANCH  10  12
ATOM     12  C   UNL     1       1.637  -2.737  -0.249  0.00  0.00    +0.181 C 
BRANCH  12  13
ATOM     13  O   UNL     1       0.784  -2.147  -1.232  0.00  0.00    -0.393 OA
ATOM     14  H   UNL     1       1.035  -2.350  -2.143  0.00  0.00    +0.209 HD
ENDBRANCH  12  13
ENDBRANCH  10  12
ENDBRANCH   1  10
BRANCH   2  15
ATOM     15  C   UNL     1      -2.101  -4.373   1.218  0.00  0.00    +0.161 C 
BRANCH  15  16
ATOM     16  N   UNL     1      -2.234  -5.830   1.285  0.00  0.00    -0.288 N 
ATOM     17  C   UNL     1      -3.350  -6.382   1.800  0.00  0.00    +0.298 C 
ATOM     18  O   UNL     1      -4.284  -5.675   2.124  0.00  0.00    -0.253 OA
ATOM     19  N   UNL     1      -3.431  -7.718   1.955  0.00  0.00    -0.313 N 
ATOM     20  H   UNL     1      -1.518  -6.398   0.959  0.00  0.00    +0.151 HD
ATOM     21  H   UNL     1      -2.686  -8.283   1.696  0.00  0.00    +0.146 HD
ATOM     22  H   UNL     1      -4.235  -8.116   2.325  0.00  0.00    +0.146 HD
ENDBRANCH  15  16
BRANCH  15  23
ATOM     23  C   UNL     1      -2.825  -3.851  -0.025  0.00  0.00    +0.034 C 
BRANCH  23  24
ATOM     24  C   UNL     1      -2.814  -2.321  -0.017  0.00  0.00    -0.015 C 
ATOM     25  C   UNL     1      -3.387  -1.800  -1.337  0.00  0.00    +0.007 C 
ATOM     26  C   UNL     1      -3.667  -1.811   1.146  0.00  0.00    +0.007 C 
ENDBRANCH  23  24
ENDBRANCH  15  23
ENDBRANCH   2  15
TORSDOF 7
