REMARK  Name = ZINC36231498
REMARK  6 active torsions:
REMARK  status: ('A' for Active; 'I' for Inactive)
REMARK    1  A    between atoms: C_3  and  N_11
REMARK    2  A    between atoms: C_6  and  C_7
REMARK    3  A    between atoms: N_8  and  O_9
REMARK    4  A    between atoms: N_14  and  C_17
REMARK    5  A    between atoms: C_17  and  C_18
REMARK    6  A    between atoms: C_18  and  O_19
REMARK                            x       y       z     vdW  Elec       q    Type
REMARK                         _______ _______ _______ _____ _____    ______ ____
ROOT
ATOM      1  C   UNL     1      -0.005   1.378   0.232  0.00  0.00    +0.016 A 
ATOM      2  C   UNL     1       1.200   2.050   0.225  0.00  0.00    +0.044 A 
ATOM      3  C   UNL     1       2.374   1.340  -0.013  0.00  0.00    +0.121 A 
ATOM      4  N   UNL     1       2.346   0.034  -0.233  0.00  0.00    -0.240 NA
ATOM      5  C   UNL     1       1.217  -0.645  -0.235  0.00  0.00    +0.124 A 
ATOM      6  C   UNL     1       0.002  -0.004  -0.004  0.00  0.00    +0.036 A 
ENDROOT
BRANCH   3   7
ATOM      7  N   UNL     1       3.590   2.010  -0.021  0.00  0.00    -0.313 N 
ATOM      8  C   UNL     1       4.860   1.268  -0.044  0.00  0.00    +0.122 C 
ATOM      9  C   UNL     1       5.726   1.820  -1.181  0.00  0.00    +0.103 C 
ATOM     10  N   UNL     1       5.858   3.275  -1.029  0.00  0.00    -0.297 NA
ATOM     11  C   UNL     1       4.556   3.944  -1.147  0.00  0.00    +0.103 C 
ATOM     12  C   UNL     1       3.642   3.479  -0.014  0.00  0.00    +0.122 C 
BRANCH  10  13
ATOM     13  C   UNL     1       6.819   3.820  -1.997  0.00  0.00    +0.112 C 
BRANCH  13  14
ATOM     14  C   UNL     1       7.119   5.280  -1.652  0.00  0.00    +0.171 C 
BRANCH  14  15
ATOM     15  O   UNL     1       7.780   5.344  -0.386  0.00  0.00    -0.394 OA
ATOM     16  H   UNL     1       8.001   6.242  -0.103  0.00  0.00    +0.209 HD
ENDBRANCH  14  15
ENDBRANCH  13  14
ENDBRANCH  10  13
ENDBRANCH   3   7
BRANCH   6  17
ATOM     17  C   UNL     1      -1.263  -0.770  -0.007  0.00  0.00    +0.164 C 
ATOM     18  N   UNL     1      -2.393  -0.162   0.210  0.00  0.00    -0.071 NA
ATOM     19  N   UNL     1      -1.246  -2.135  -0.241  0.00  0.00    -0.340 N 
ATOM     20  H   UNL     1      -0.403  -2.588  -0.403  0.00  0.00    +0.144 HD
ATOM     21  H   UNL     1      -2.075  -2.637  -0.243  0.00  0.00    +0.144 HD
BRANCH  18  22
ATOM     22  O   UNL     1      -3.604  -0.895   0.207  0.00  0.00    -0.408 OA
ATOM     23  H   UNL     1      -4.390  -0.358   0.378  0.00  0.00    +0.328 HD
ENDBRANCH  18  22
ENDBRANCH   6  17
TORSDOF 6
