REMARK  Name = ZINC15410459
REMARK  7 active torsions:
REMARK  status: ('A' for Active; 'I' for Inactive)
REMARK    1  A    between atoms: C_1  and  C_2
REMARK    2  A    between atoms: C_5  and  N_22
REMARK    3  A    between atoms: C_7  and  N_8
REMARK    4  A    between atoms: C_9  and  C_11
REMARK    5  A    between atoms: C_12  and  C_13
REMARK    6  A    between atoms: C_18  and  O_19
REMARK    7  A    between atoms: O_19  and  C_20
REMARK                            x       y       z     vdW  Elec       q    Type
REMARK                         _______ _______ _______ _____ _____    ______ ____
ROOT
ATOM      1  N   UNL     1      -4.907   1.195   0.031  0.00  0.00    -0.282 N 
ATOM      2  C   UNL     1      -4.894  -0.148  -0.078  0.00  0.00    +0.241 C 
ATOM      3  O   UNL     1      -3.834  -0.748  -0.087  0.00  0.00    -0.270 OA
ATOM      4  H   UNL     1      -5.751   1.667   0.104  0.00  0.00    +0.155 HD
ENDROOT
BRANCH   1  11
ATOM      5  C   UNL     1      -4.856   3.761  -1.197  0.00  0.00    +0.045 C 
ATOM      6  C   UNL     1      -3.634   3.163  -0.548  0.00  0.00    -0.029 A 
ATOM      7  C   UNL     1      -2.444   3.864  -0.538  0.00  0.00    +0.007 A 
ATOM      8  C   UNL     1      -1.324   3.319   0.062  0.00  0.00    +0.033 A 
ATOM      9  C   UNL     1      -1.388   2.066   0.645  0.00  0.00    +0.128 A 
ATOM     10  C   UNL     1      -2.575   1.360   0.638  0.00  0.00    +0.056 A 
ATOM     11  C   UNL     1      -3.704   1.907   0.040  0.00  0.00    +0.039 A 
BRANCH   9  12
ATOM     12  N   UNL     1      -0.186   1.484   1.281  0.00  0.00    +0.056 N 
ATOM     13  O   UNL     1      -0.243   0.383   1.799  0.00  0.00    -0.126 OA
ATOM     14  O   UNL     1       0.863   2.104   1.283  0.00  0.00    -0.126 OA
ENDBRANCH   9  12
ENDBRANCH   1  11
BRANCH   2  15
ATOM     15  C   UNL     1      -6.152  -0.885  -0.187  0.00  0.00    +0.068 C 
ATOM     16  C   UNL     1      -6.139  -2.231  -0.297  0.00  0.00    +0.016 C 
BRANCH  16  17
ATOM     17  C   UNL     1      -7.403  -2.971  -0.406  0.00  0.00    +0.018 A 
ATOM     18  C   UNL     1      -8.623  -2.286  -0.397  0.00  0.00    +0.026 A 
ATOM     19  C   UNL     1      -9.805  -2.988  -0.499  0.00  0.00    +0.019 A 
ATOM     20  C   UNL     1      -9.791  -4.370  -0.612  0.00  0.00    +0.019 A 
ATOM     21  C   UNL     1      -8.594  -5.058  -0.623  0.00  0.00    +0.047 A 
ATOM     22  C   UNL     1      -7.395  -4.370  -0.526  0.00  0.00    +0.127 A 
ATOM     23 BR   UNL     1     -11.454  -2.062  -0.486  0.00  0.00    -0.050 Br
BRANCH  22  24
ATOM     24  O   UNL     1      -6.218  -5.045  -0.542  0.00  0.00    -0.495 OA
ATOM     25  C   UNL     1      -6.287  -6.467  -0.667  0.00  0.00    +0.277 C 
ENDBRANCH  22  24
ENDBRANCH  16  17
ENDBRANCH   2  15
TORSDOF 5
