REMARK  Name = ZINC67313599
REMARK  12 active torsions:
REMARK  status: ('A' for Active; 'I' for Inactive)
REMARK    1  A    between atoms: C_1  and  C_2
REMARK    2  A    between atoms: C_5  and  N_11
REMARK    3  A    between atoms: C_7  and  C_8
REMARK    4  A    between atoms: N_14  and  C_15
REMARK    5  A    between atoms: C_15  and  C_17
REMARK    6  A    between atoms: C_15  and  C_18
REMARK    7  A    between atoms: C_21  and  O_26
REMARK    8  A    between atoms: C_22  and  O_24
REMARK    9  A    between atoms: O_24  and  C_25
REMARK   10  A    between atoms: O_26  and  C_27
REMARK   11  A    between atoms: C_27  and  C_28
REMARK   12  A    between atoms: C_27  and  C_29
REMARK                            x       y       z     vdW  Elec       q    Type
REMARK                         _______ _______ _______ _____ _____    ______ ____
ROOT
ATOM      1  N   UNL     1      -1.840  -2.548   1.378  0.00  0.00    -0.269 N 
ATOM      2  C   UNL     1      -1.590  -3.183   0.216  0.00  0.00    +0.304 C 
ATOM      3  O   UNL     1      -1.719  -2.593  -0.839  0.00  0.00    -0.252 OA
ATOM      4  N   UNL     1      -1.198  -4.473   0.223  0.00  0.00    -0.293 N 
ATOM      5  H   UNL     1      -1.805  -3.037   2.215  0.00  0.00    +0.156 HD
ATOM      6  H   UNL     1      -1.095  -4.944   1.065  0.00  0.00    +0.151 HD
ENDROOT
BRANCH   1  11
ATOM      7  C   UNL     1      -3.079   2.998   1.400  0.00  0.00    +0.044 C 
ATOM      8  C   UNL     1      -2.752   1.527   1.391  0.00  0.00    -0.038 A 
ATOM      9  C   UNL     1      -2.004   0.980   2.414  0.00  0.00    +0.006 A 
ATOM     10  C   UNL     1      -1.702  -0.369   2.411  0.00  0.00    +0.023 A 
ATOM     11  C   UNL     1      -2.149  -1.183   1.377  0.00  0.00    +0.035 A 
ATOM     12  C   UNL     1      -2.901  -0.644   0.346  0.00  0.00    +0.036 A 
ATOM     13  C   UNL     1      -3.211   0.717   0.352  0.00  0.00    +0.041 A 
BRANCH  13  14
ATOM     14  C   UNL     1      -4.018   1.299  -0.742  0.00  0.00    +0.242 C 
ATOM     15  O   UNL     1      -4.263   2.489  -0.749  0.00  0.00    -0.270 OA
ATOM     16  N   UNL     1      -4.481   0.509  -1.731  0.00  0.00    -0.325 N 
ATOM     17  H   UNL     1      -4.285  -0.441  -1.725  0.00  0.00    +0.145 HD
ATOM     18  H   UNL     1      -5.011   0.891  -2.448  0.00  0.00    +0.145 HD
ENDBRANCH  13  14
ENDBRANCH   1  11
BRANCH   4  19
ATOM     19  C   UNL     1      -0.926  -5.163  -1.040  0.00  0.00    +0.102 C 
ATOM     20  C   UNL     1       0.513  -4.880  -1.477  0.00  0.00    +0.033 C 
BRANCH  19  21
ATOM     21  C   UNL     1      -1.112  -6.646  -0.852  0.00  0.00    -0.024 A 
ATOM     22  C   UNL     1      -0.681  -7.253   0.313  0.00  0.00    +0.009 A 
ATOM     23  C   UNL     1      -0.849  -8.614   0.490  0.00  0.00    +0.050 A 
ATOM     24  C   UNL     1      -1.451  -9.373  -0.501  0.00  0.00    +0.162 A 
ATOM     25  C   UNL     1      -1.885  -8.762  -1.673  0.00  0.00    +0.162 A 
ATOM     26  C   UNL     1      -1.718  -7.397  -1.843  0.00  0.00    +0.054 A 
BRANCH  25  27
ATOM     27  O   UNL     1      -2.477  -9.502  -2.649  0.00  0.00    -0.491 OA
ATOM     28  C   UNL     1      -2.898  -8.808  -3.825  0.00  0.00    +0.277 C 
ENDBRANCH  25  27
BRANCH  24  29
ATOM     29  O   UNL     1      -1.617 -10.711  -0.328  0.00  0.00    -0.486 OA
BRANCH  29  30
ATOM     30  C   UNL     1      -1.113 -11.276   0.884  0.00  0.00    +0.167 C 
ATOM     31  C   UNL     1      -2.138 -11.077   2.003  0.00  0.00    +0.051 C 
ATOM     32  C   UNL     1      -0.861 -12.772   0.684  0.00  0.00    +0.051 C 
ENDBRANCH  29  30
ENDBRANCH  24  29
ENDBRANCH  19  21
ENDBRANCH   4  19
TORSDOF 7
