REMARK  Name = ZINC10525635
REMARK  11 active torsions:
REMARK  status: ('A' for Active; 'I' for Inactive)
REMARK    1  A    between atoms: C_1  and  C_2
REMARK    2  A    between atoms: C_6  and  S_8
REMARK    3  A    between atoms: S_8  and  C_9
REMARK    4  A    between atoms: C_9  and  C_11
REMARK    5  A    between atoms: C_9  and  C_12
REMARK    6  A    between atoms: N_14  and  C_15
REMARK    7  A    between atoms: N_23  and  C_31
REMARK    8  A    between atoms: N_26  and  C_27
REMARK    9  A    between atoms: C_27  and  C_28
REMARK   10  A    between atoms: C_28  and  C_29
REMARK   11  A    between atoms: C_28  and  C_30
REMARK                            x       y       z     vdW  Elec       q    Type
REMARK                         _______ _______ _______ _____ _____    ______ ____
ROOT
ATOM      1  C   UNL     1      -0.267  -2.724   3.815  0.00  0.00    +0.088 C 
ATOM      2  C   UNL     1      -1.439  -2.024   3.177  0.00  0.00    +0.130 A 
ATOM      3  N   UNL     1      -1.230  -0.874   2.563  0.00  0.00    -0.214 NA
ATOM      4  C   UNL     1      -2.234  -0.226   1.988  0.00  0.00    +0.154 A 
ATOM      5  C   UNL     1      -3.525  -0.787   2.045  0.00  0.00    +0.114 A 
ATOM      6  C   UNL     1      -3.700  -2.011   2.708  0.00  0.00    +0.116 A 
ATOM      7  N   UNL     1      -2.628  -2.586   3.255  0.00  0.00    -0.225 NA
ATOM      8  C   UNL     1      -4.630  -0.065   1.408  0.00  0.00    +0.268 A 
ATOM      9  O   UNL     1      -5.763  -0.509   1.431  0.00  0.00    -0.267 OA
ATOM     10  N   UNL     1      -4.356   1.109   0.795  0.00  0.00    -0.263 N 
ATOM     11  C   UNL     1      -3.108   1.605   0.773  0.00  0.00    +0.333 A 
ATOM     12  O   UNL     1      -2.915   2.666   0.213  0.00  0.00    -0.246 OA
ATOM     13  N   UNL     1      -2.062   0.977   1.338  0.00  0.00    -0.277 N 
ATOM     14  C   UNL     1      -5.439   1.855   0.150  0.00  0.00    +0.157 C 
ENDROOT
BRANCH   6  15
ATOM     15  S   UNL     1      -5.289  -2.765   2.814  0.00  0.00    -0.093 S 
BRANCH  15  16
ATOM     16  C   UNL     1      -4.867  -4.255   3.751  0.00  0.00    +0.135 C 
ATOM     17  C   UNL     1      -4.393  -3.860   5.151  0.00  0.00    +0.029 C 
BRANCH  16  18
ATOM     18  C   UNL     1      -6.082  -5.139   3.863  0.00  0.00    +0.226 C 
ATOM     19  O   UNL     1      -7.189  -4.672   3.697  0.00  0.00    -0.275 OA
ATOM     20  N   UNL     1      -5.940  -6.449   4.147  0.00  0.00    -0.312 N 
ATOM     21  H   UNL     1      -4.936  -6.872   4.297  0.00  0.00    +0.149 HD
BRANCH  20  22
ATOM     22  C   UNL     1      -7.121  -7.308   4.256  0.00  0.00    +0.073 C 
ATOM     23  C   UNL     1      -7.692  -7.213   5.673  0.00  0.00    +0.022 C 
ATOM     24  C   UNL     1      -8.926  -8.110   5.786  0.00  0.00    +0.002 C 
ATOM     25  C   UNL     1      -8.532  -9.559   5.491  0.00  0.00    +0.000 C 
ATOM     26  C   UNL     1      -7.962  -9.654   4.074  0.00  0.00    +0.002 C 
ATOM     27  C   UNL     1      -6.728  -8.756   3.961  0.00  0.00    +0.022 C 
ENDBRANCH  20  22
ENDBRANCH  16  18
ENDBRANCH  15  16
ENDBRANCH   6  15
BRANCH  13  28
ATOM     28  C   UNL     1      -0.729   1.579   1.267  0.00  0.00    +0.131 C 
BRANCH  28  29
ATOM     29  C   UNL     1      -0.013   1.086   0.008  0.00  0.00    +0.003 C 
ATOM     30  C   UNL     1       1.423   1.615  -0.003  0.00  0.00    +0.009 C 
ATOM     31  C   UNL     1      -0.753   1.593  -1.232  0.00  0.00    +0.009 C 
ENDBRANCH  28  29
ENDBRANCH  13  28
TORSDOF 6
