REMARK  Name = ZINC21948638
REMARK  3 active torsions:
REMARK  status: ('A' for Active; 'I' for Inactive)
REMARK    1  A    between atoms: C_1  and  C_2
REMARK    2  A    between atoms: C_5  and  C_7
REMARK    3  A    between atoms: C_7  and  C_9
REMARK                            x       y       z     vdW  Elec       q    Type
REMARK                         _______ _______ _______ _____ _____    ______ ____
ROOT
ATOM      1  C   UNL     1       3.530   0.568  -0.029  0.00  0.00    +0.111 C 
ATOM      2  C   UNL     1       2.023   0.612  -0.014  0.00  0.00    +0.214 A 
ATOM      3  N   UNL     1       1.222  -0.414  -0.012  0.00  0.00    -0.113 NA
ATOM      4  N   UNL     1       0.002  -0.004   0.002  0.00  0.00    -0.111 NA
ATOM      5  C   UNL     1      -0.016   1.298   0.009  0.00  0.00    +0.235 A 
ATOM      6  O   UNL     1       1.261   1.718  -0.001  0.00  0.00    -0.423 OA
ENDROOT
BRANCH   5   7
ATOM      7  C   UNL     1      -1.242   2.174   0.020  0.00  0.00    +0.165 C 
ATOM      8  C   UNL     1      -1.867   2.159   1.417  0.00  0.00    +0.034 C 
ATOM      9 CL   UNL     1      -2.436   1.550  -1.179  0.00  0.00    -0.112 Cl
ENDBRANCH   5   7
TORSDOF 1
