REMARK  Name = ZINC16022296
REMARK  5 active torsions:
REMARK  status: ('A' for Active; 'I' for Inactive)
REMARK    1  A    between atoms: C_4  and  C_7
REMARK    2  A    between atoms: C_7  and  C_8
REMARK    3  A    between atoms: C_8  and  N_9
REMARK    4  A    between atoms: C_14  and  C_32
REMARK    5  A    between atoms: C_32  and  C_33
REMARK                            x       y       z     vdW  Elec       q    Type
REMARK                         _______ _______ _______ _____ _____    ______ ____
ROOT
ATOM      1  N   UNL     1       5.450  -1.678   1.382  0.00  0.00    -0.241 N 
ATOM      2  C   UNL     1       5.532  -3.014   1.369  0.00  0.00    +0.227 C 
ATOM      3  O   UNL     1       4.587  -3.774   1.373  0.00  0.00    -0.275 OA
ATOM      4  C   UNL     1       6.985  -3.428   1.347  0.00  0.00    +0.107 C 
ATOM      5  C   UNL     1       7.341  -4.115   2.682  0.00  0.00    +0.076 C 
ATOM      6  N   UNL     1       7.724  -3.004   3.593  0.00  0.00    -0.295 NA
ATOM      7  C   UNL     1       8.473  -2.072   2.730  0.00  0.00    +0.136 C 
ATOM      8  C   UNL     1       7.745  -2.072   1.363  0.00  0.00    +0.122 C 
ATOM      9  C   UNL     1       6.631  -1.049   1.373  0.00  0.00    +0.228 C 
ATOM     10  O   UNL     1       6.784   0.153   1.375  0.00  0.00    -0.275 OA
ATOM     11  C   UNL     1       8.533  -0.695   3.327  0.00  0.00    +0.004 A 
ATOM     12  C   UNL     1       7.573   0.221   3.698  0.00  0.00    +0.023 A 
ATOM     13  C   UNL     1       7.949   1.439   4.236  0.00  0.00    +0.018 A 
ATOM     14  C   UNL     1       9.291   1.734   4.401  0.00  0.00    +0.017 A 
ATOM     15  C   UNL     1      10.255   0.820   4.030  0.00  0.00    +0.025 A 
ATOM     16  C   UNL     1       9.885  -0.408   3.487  0.00  0.00    +0.039 A 
ATOM     17  N   UNL     1      10.662  -1.480   3.041  0.00  0.00    -0.283 N 
ATOM     18  C   UNL     1       9.908  -2.497   2.580  0.00  0.00    +0.243 C 
ATOM     19  O   UNL     1      10.309  -3.550   2.133  0.00  0.00    -0.273 OA
ATOM     20 BR   UNL     1       6.633   2.697   4.746  0.00  0.00    -0.050 Br
ATOM     21  H   UNL     1       6.907  -2.559   3.984  0.00  0.00    +0.124 HD
ATOM     22  H   UNL     1      11.632  -1.490   3.061  0.00  0.00    +0.155 HD
ENDROOT
BRANCH   1  23
ATOM     23  C   UNL     1       4.171  -0.963   1.399  0.00  0.00    +0.121 C 
BRANCH  23  24
ATOM     24  C   UNL     1       3.711  -0.707  -0.038  0.00  0.00    +0.054 C 
BRANCH  24  28
ATOM     25  C   UNL     1      -0.017   1.378   0.010  0.00  0.00    +0.000 A 
ATOM     26  C   UNL     1       1.171   2.086   0.002  0.00  0.00    +0.000 A 
ATOM     27  C   UNL     1       2.377   1.411  -0.013  0.00  0.00    +0.004 A 
ATOM     28  C   UNL     1       2.396   0.029  -0.020  0.00  0.00    -0.046 A 
ATOM     29  C   UNL     1       1.208  -0.679  -0.012  0.00  0.00    +0.004 A 
ATOM     30  C   UNL     1       0.002  -0.004   0.002  0.00  0.00    +0.000 A 
ENDBRANCH  24  28
ENDBRANCH  23  24
ENDBRANCH   1  23
BRANCH   5  31
ATOM     31  C   UNL     1       6.127  -4.865   3.234  0.00  0.00    +0.115 C 
BRANCH  31  32
ATOM     32  C   UNL     1       6.528  -5.628   4.471  0.00  0.00    +0.212 C 
ATOM     33  O   UNL     1       7.671  -5.577   4.871  0.00  0.00    -0.276 OA
ATOM     34  N   UNL     1       5.615  -6.367   5.132  0.00  0.00    -0.329 N 
ATOM     35  H   UNL     1       4.700  -6.408   4.812  0.00  0.00    +0.145 HD
ATOM     36  H   UNL     1       5.873  -6.858   5.928  0.00  0.00    +0.145 HD
ENDBRANCH  31  32
ENDBRANCH   5  31
TORSDOF 5
