REMARK  Name = ZINC21066018
REMARK  2 active torsions:
REMARK  status: ('A' for Active; 'I' for Inactive)
REMARK    1  A    between atoms: C_5  and  C_11
REMARK    2  A    between atoms: C_11  and  N_12
REMARK                            x       y       z     vdW  Elec       q    Type
REMARK                         _______ _______ _______ _____ _____    ______ ____
ROOT
ATOM      1  N   UNL     1       6.443   0.700   1.320  0.00  0.00    -0.218 N 
ATOM      2  C   UNL     1       6.698   1.748   2.132  0.00  0.00    +0.247 C 
ATOM      3  O   UNL     1       6.561   2.926   1.878  0.00  0.00    -0.273 OA
ATOM      4  C   UNL     1       7.187   1.142   3.423  0.00  0.00    +0.113 C 
ATOM      5  C   UNL     1       8.606   1.626   3.751  0.00  0.00    +0.035 C 
ATOM      6  C   UNL     1       8.386   2.765   4.780  0.00  0.00    +0.003 C 
ATOM      7  C   UNL     1       7.197   2.240   5.625  0.00  0.00    +0.003 C 
ATOM      8  C   UNL     1       6.287   1.529   4.599  0.00  0.00    +0.035 C 
ATOM      9  N   UNL     1       7.162  -0.302   3.182  0.00  0.00    -0.285 N 
ATOM     10  C   UNL     1       6.712  -0.466   1.922  0.00  0.00    +0.310 C 
ATOM     11  O   UNL     1       6.567  -1.550   1.391  0.00  0.00    -0.252 OA
ATOM     12  H   UNL     1       7.480  -0.997   3.973  0.00  0.00    +0.151 HD
ENDROOT
BRANCH   1  13
ATOM     13  C   UNL     1       5.941   0.823  -0.051  0.00  0.00    +0.175 C 
BRANCH  13  18
ATOM     14  C   UNL     1       0.002  -0.004   0.002  0.00  0.00    +0.025 A 
ATOM     15  C   UNL     1       1.193  -0.662  -0.013  0.00  0.00    +0.048 A 
ATOM     16  C   UNL     1       2.391   0.080  -0.020  0.00  0.00    +0.138 A 
ATOM     17  N   UNL     1       3.666  -0.285  -0.035  0.00  0.00    -0.231 NA
ATOM     18  C   UNL     1       4.434   0.807  -0.036  0.00  0.00    +0.078 A 
ATOM     19  C   UNL     1       3.634   1.897  -0.023  0.00  0.00    +0.117 A 
ATOM     20  N   UNL     1       2.341   1.449  -0.013  0.00  0.00    -0.305 N 
ATOM     21  C   UNL     1       1.140   2.098   0.002  0.00  0.00    +0.112 A 
ATOM     22  C   UNL     1      -0.017   1.401   0.010  0.00  0.00    +0.058 A 
ATOM     23 CL   UNL     1      -1.534   2.245   0.021  0.00  0.00    -0.082 Cl
ENDBRANCH  13  18
ENDBRANCH   1  13
TORSDOF 2
