REMARK  Name = ZINC59110222
REMARK  16 active torsions:
REMARK  status: ('A' for Active; 'I' for Inactive)
REMARK    1  A    between atoms: C_1  and  C_2
REMARK    2  A    between atoms: C_2  and  C_23
REMARK    3  A    between atoms: C_4  and  N_11
REMARK    4  A    between atoms: C_7  and  C_9
REMARK    5  A    between atoms: C_7  and  C_10
REMARK    6  A    between atoms: N_11  and  C_12
REMARK    7  A    between atoms: C_12  and  N_14
REMARK    8  A    between atoms: N_14  and  C_15
REMARK    9  A    between atoms: C_20  and  O_21
REMARK   10  A    between atoms: O_21  and  C_22
REMARK   11  A    between atoms: C_23  and  N_24
REMARK   12  A    between atoms: N_24  and  C_25
REMARK   13  A    between atoms: C_25  and  N_27
REMARK   14  A    between atoms: N_27  and  C_28
REMARK   15  A    between atoms: C_33  and  O_34
REMARK   16  A    between atoms: O_34  and  C_35
REMARK                            x       y       z     vdW  Elec       q    Type
REMARK                         _______ _______ _______ _____ _____    ______ ____
ROOT
ATOM      1  C   UNL     1       0.004   1.907   0.422  0.00  0.00    +0.013 C 
ATOM      2  C   UNL     1       0.553   0.478   0.408  0.00  0.00    -0.014 C 
ATOM      3  C   UNL     1      -0.563  -0.536   0.609  0.00  0.00    +0.030 C 
ATOM      4  C   UNL     1      -1.023  -0.651   2.052  0.00  0.00    +0.073 C 
ATOM      5  C   UNL     1       0.138  -0.902   2.997  0.00  0.00    +0.028 C 
ATOM      6  C   UNL     1       1.279   0.090   2.843  0.00  0.00    -0.033 C 
ATOM      7  C   UNL     1       1.688   0.314   1.400  0.00  0.00    +0.014 C 
ATOM      8  C   UNL     1       2.504  -0.500   3.585  0.00  0.00    +0.011 C 
ATOM      9  C   UNL     1       0.944   1.416   3.534  0.00  0.00    +0.011 C 
ENDROOT
BRANCH   4  10
ATOM     10  N   UNL     1      -1.832   0.490   2.466  0.00  0.00    -0.323 N 
ATOM     11  H   UNL     1      -1.731   1.344   2.017  0.00  0.00    +0.148 HD
BRANCH  10  12
ATOM     12  C   UNL     1      -2.720   0.357   3.471  0.00  0.00    +0.135 C 
ATOM     13  S   UNL     1      -2.897  -1.151   4.263  0.00  0.00    -0.019 S 
BRANCH  12  14
ATOM     14  N   UNL     1      -3.467   1.411   3.854  0.00  0.00    -0.294 N 
ATOM     15  H   UNL     1      -3.341   2.274   3.430  0.00  0.00    +0.154 HD
BRANCH  14  16
ATOM     16  C   UNL     1      -4.427   1.260   4.863  0.00  0.00    +0.075 A 
ATOM     17  C   UNL     1      -5.193   0.105   4.927  0.00  0.00    +0.027 A 
ATOM     18  C   UNL     1      -6.139  -0.043   5.924  0.00  0.00    +0.002 A 
ATOM     19  C   UNL     1      -6.324   0.959   6.859  0.00  0.00    +0.004 A 
ATOM     20  C   UNL     1      -5.565   2.112   6.802  0.00  0.00    +0.047 A 
ATOM     21  C   UNL     1      -4.611   2.266   5.809  0.00  0.00    +0.141 A 
BRANCH  21  22
ATOM     22  O   UNL     1      -3.859   3.397   5.755  0.00  0.00    -0.493 OA
ATOM     23  C   UNL     1      -4.102   4.386   6.757  0.00  0.00    +0.277 C 
ENDBRANCH  21  22
ENDBRANCH  14  16
ENDBRANCH  12  14
ENDBRANCH  10  12
ENDBRANCH   4  10
BRANCH   2  24
ATOM     24  C   UNL     1       1.138   0.239  -1.007  0.00  0.00    +0.110 C 
BRANCH  24  25
ATOM     25  N   UNL     1       0.079   0.401  -2.006  0.00  0.00    -0.326 N 
ATOM     26  H   UNL     1      -0.822   0.624  -1.727  0.00  0.00    +0.148 HD
BRANCH  25  27
ATOM     27  C   UNL     1       0.358   0.239  -3.315  0.00  0.00    +0.135 C 
ATOM     28  S   UNL     1       1.949  -0.155  -3.809  0.00  0.00    -0.019 S 
BRANCH  27  29
ATOM     29  N   UNL     1      -0.616   0.388  -4.235  0.00  0.00    -0.294 N 
ATOM     30  H   UNL     1      -1.506   0.659  -3.960  0.00  0.00    +0.154 HD
BRANCH  29  31
ATOM     31  C   UNL     1      -0.344   0.150  -5.589  0.00  0.00    +0.075 A 
ATOM     32  C   UNL     1       0.483  -0.901  -5.958  0.00  0.00    +0.027 A 
ATOM     33  C   UNL     1       0.750  -1.133  -7.293  0.00  0.00    +0.002 A 
ATOM     34  C   UNL     1       0.195  -0.321  -8.265  0.00  0.00    +0.004 A 
ATOM     35  C   UNL     1      -0.630   0.729  -7.904  0.00  0.00    +0.047 A 
ATOM     36  C   UNL     1      -0.907   0.965  -6.568  0.00  0.00    +0.141 A 
BRANCH  36  37
ATOM     37  O   UNL     1      -1.722   1.994  -6.212  0.00  0.00    -0.493 OA
ATOM     38  C   UNL     1      -2.264   2.788  -7.270  0.00  0.00    +0.277 C 
ENDBRANCH  36  37
ENDBRANCH  29  31
ENDBRANCH  27  29
ENDBRANCH  25  27
ENDBRANCH  24  25
ENDBRANCH   2  24
TORSDOF 11
