REMARK  Name = ZINC19480756
REMARK  2 active torsions:
REMARK  status: ('A' for Active; 'I' for Inactive)
REMARK    1  A    between atoms: C_9  and  C_12
REMARK    2  A    between atoms: C_18  and  C_21
REMARK                            x       y       z     vdW  Elec       q    Type
REMARK                         _______ _______ _______ _____ _____    ______ ____
ROOT
ATOM      1  C   UNL     1      -0.014   1.209   0.009  0.00  0.00    +0.258 C 
ATOM      2  O   UNL     1       0.002  -0.004   0.002  0.00  0.00    -0.271 OA
ATOM      3  N   UNL     1       1.143   1.898   0.001  0.00  0.00    -0.298 N 
ATOM      4  C   UNL     1       1.140   3.368   0.009  0.00  0.00    +0.108 C 
ATOM      5  C   UNL     1       1.988   3.869  -1.163  0.00  0.00    +0.020 C 
ATOM      6  C   UNL     1       3.383   3.244  -1.083  0.00  0.00    +0.016 C 
ATOM      7  C   UNL     1       3.268   1.721  -1.187  0.00  0.00    +0.092 C 
ATOM      8  C   UNL     1       2.434   1.195  -0.009  0.00  0.00    +0.120 C 
ENDROOT
BRANCH   1  17
ATOM      9  C   UNL     1      -6.250   2.367   0.581  0.00  0.00    +0.002 A 
ATOM     10  C   UNL     1      -6.035   1.195  -0.120  0.00  0.00    +0.004 A 
ATOM     11  C   UNL     1      -4.749   0.742  -0.343  0.00  0.00    +0.047 A 
ATOM     12  C   UNL     1      -3.666   1.464   0.135  0.00  0.00    +0.142 A 
ATOM     13  C   UNL     1      -3.884   2.645   0.838  0.00  0.00    +0.070 A 
ATOM     14  C   UNL     1      -5.176   3.094   1.060  0.00  0.00    +0.026 A 
ATOM     15  N   UNL     1      -2.791   3.382   1.320  0.00  0.00    -0.337 N 
ATOM     16  C   UNL     1      -1.474   2.722   1.335  0.00  0.00    +0.155 C 
ATOM     17  C   UNL     1      -1.330   1.944   0.019  0.00  0.00    +0.276 C 
ATOM     18  O   UNL     1      -2.404   1.007  -0.083  0.00  0.00    -0.476 OA
ATOM     19  H   UNL     1      -2.891   4.417   1.679  0.00  0.00    +0.146 HD
ENDBRANCH   1  17
BRANCH   7  20
ATOM     20  C   UNL     1       4.644   1.108  -1.140  0.00  0.00    +0.215 C 
ATOM     21  O   UNL     1       4.929   0.326  -0.259  0.00  0.00    -0.276 OA
ATOM     22  N   UNL     1       5.557   1.430  -2.078  0.00  0.00    -0.329 N 
ATOM     23  H   UNL     1       6.561   0.983  -2.043  0.00  0.00    +0.145 HD
ATOM     24  H   UNL     1       5.298   2.140  -2.877  0.00  0.00    +0.145 HD
ENDBRANCH   7  20
TORSDOF 2
