REMARK  Name = ZINC08913986
REMARK  4 active torsions:
REMARK  status: ('A' for Active; 'I' for Inactive)
REMARK    1  A    between atoms: C_3  and  C_8
REMARK    2  A    between atoms: N_10  and  C_11
REMARK    3  A    between atoms: C_11  and  C_12
REMARK    4  A    between atoms: C_12  and  C_13
REMARK                            x       y       z     vdW  Elec       q    Type
REMARK                         _______ _______ _______ _____ _____    ______ ____
ROOT
ATOM      1  C   UNL     1       8.562   2.038  -0.070  0.00  0.00    +0.217 C 
ATOM      2  O   UNL     1       8.548   3.251  -0.064  0.00  0.00    -0.276 OA
ATOM      3  N   UNL     1       9.737   1.379  -0.085  0.00  0.00    -0.302 N 
ATOM      4  C   UNL     1       9.771  -0.090  -0.099  0.00  0.00    +0.107 C 
ATOM      5  C   UNL     1      10.631  -0.552  -1.279  0.00  0.00    +0.013 C 
ATOM      6  C   UNL     1      12.008   0.109  -1.193  0.00  0.00    -0.022 C 
ATOM      7  C   UNL     1      11.857   1.629  -1.268  0.00  0.00    +0.013 C 
ATOM      8  C   UNL     1      11.009   2.114  -0.094  0.00  0.00    +0.107 C 
ATOM      9  C   UNL     1      12.874  -0.373  -2.325  0.00  0.00    +0.027 A 
ATOM     10  C   UNL     1      14.171  -0.728  -2.178  0.00  0.00    +0.059 A 
ATOM     11  N   UNL     1      14.635  -1.106  -3.368  0.00  0.00    -0.241 NA
ATOM     12  C   UNL     1      13.677  -1.000  -4.254  0.00  0.00    +0.196 A 
ATOM     13  N   UNL     1      12.562  -0.543  -3.637  0.00  0.00    -0.349 N 
ATOM     14  C   UNL     1      14.889  -0.665  -0.852  0.00  0.00    +0.038 C 
ATOM     15  C   UNL     1      14.045   0.201   0.095  0.00  0.00    -0.075 C 
ATOM     16  N   UNL     1      12.650  -0.259   0.079  0.00  0.00    +0.387 N 
ATOM     17  H   UNL     1      12.149   0.168   0.843  0.00  0.00    -0.085 HD
ATOM     18  H   UNL     1      11.703  -0.370  -4.053  0.00  0.00    +0.166 HD
ATOM     19  H   UNL     1      12.628  -1.262   0.186  0.00  0.00    -0.085 HD
ENDROOT
BRANCH   1  20
ATOM     20  C   UNL     1       7.266   1.270  -0.061  0.00  0.00    +0.114 C 
BRANCH  20  21
ATOM     21  C   UNL     1       6.092   2.250  -0.045  0.00  0.00    +0.113 C 
BRANCH  21  24
ATOM     22  C   UNL     1       3.657   2.162  -0.022  0.00  0.00    +0.244 C 
ATOM     23  O   UNL     1       3.642   3.378  -0.015  0.00  0.00    -0.270 OA
ATOM     24  N   UNL     1       4.832   1.502  -0.036  0.00  0.00    -0.311 N 
ATOM     25  H   UNL     1       4.843   0.532  -0.042  0.00  0.00    +0.149 HD
BRANCH  22  28
ATOM     26  C   UNL     1      -0.017   1.379   0.010  0.00  0.00    +0.002 A 
ATOM     27  C   UNL     1       1.167   2.088   0.002  0.00  0.00    +0.013 A 
ATOM     28  C   UNL     1       2.385   1.408  -0.013  0.00  0.00    +0.038 A 
ATOM     29  C   UNL     1       2.398   0.012  -0.021  0.00  0.00    +0.033 A 
ATOM     30  C   UNL     1       1.207  -0.686  -0.013  0.00  0.00    +0.042 A 
ATOM     31  C   UNL     1       0.002  -0.004   0.002  0.00  0.00    +0.020 A 
ATOM     32 CL   UNL     1       1.221  -2.422  -0.023  0.00  0.00    -0.084 Cl
ENDBRANCH  22  28
ENDBRANCH  21  24
ENDBRANCH  20  21
ENDBRANCH   1  20
TORSDOF 4
