REMARK  Name = ZINC01428059
REMARK  13 active torsions:
REMARK  status: ('A' for Active; 'I' for Inactive)
REMARK    1  A    between atoms: C_1  and  C_2
REMARK    2  A    between atoms: C_3  and  C_27
REMARK    3  A    between atoms: C_7  and  C_15
REMARK    4  A    between atoms: C_9  and  C_13
REMARK    5  A    between atoms: C_10  and  N_12
REMARK    6  A    between atoms: C_18  and  O_25
REMARK    7  A    between atoms: C_19  and  O_23
REMARK    8  A    between atoms: C_20  and  O_21
REMARK    9  A    between atoms: O_21  and  C_22
REMARK   10  A    between atoms: O_23  and  C_24
REMARK   11  A    between atoms: O_25  and  C_26
REMARK   12  A    between atoms: C_27  and  O_29
REMARK   13  A    between atoms: O_29  and  C_30
REMARK                            x       y       z     vdW  Elec       q    Type
REMARK                         _______ _______ _______ _____ _____    ______ ____
ROOT
ATOM      1  C   UNL     1      -3.160  -5.255   1.315  0.00  0.00    +0.052 C 
ATOM      2  C   UNL     1      -2.127  -4.219   0.953  0.00  0.00    +0.005 A 
ATOM      3  C   UNL     1      -2.312  -2.870   0.721  0.00  0.00    +0.111 A 
ATOM      4  C   UNL     1      -1.144  -2.079   0.387  0.00  0.00    +0.155 A 
ATOM      5  C   UNL     1       0.025  -2.770   0.338  0.00  0.00    +0.046 A 
ATOM      6  S   UNL     1      -0.421  -4.434   0.730  0.00  0.00    -0.093 S 
ATOM      7  C   UNL     1       1.366  -2.191   0.018  0.00  0.00    +0.108 C 
ATOM      8  C   UNL     1       1.240  -0.685   0.058  0.00  0.00    +0.099 C 
ATOM      9  C   UNL     1       0.031  -0.082   0.108  0.00  0.00    +0.199 C 
ATOM     10  O   UNL     1      -1.146  -0.730   0.130  0.00  0.00    -0.440 OA
ENDROOT
BRANCH   7  11
ATOM     11  C   UNL     1       1.797  -2.631  -1.358  0.00  0.00    +0.011 A 
ATOM     12  C   UNL     1       1.006  -2.341  -2.455  0.00  0.00    +0.012 A 
ATOM     13  C   UNL     1       1.400  -2.738  -3.719  0.00  0.00    +0.050 A 
ATOM     14  C   UNL     1       2.584  -3.439  -3.890  0.00  0.00    +0.165 A 
ATOM     15  C   UNL     1       3.379  -3.737  -2.790  0.00  0.00    +0.204 A 
ATOM     16  C   UNL     1       2.982  -3.331  -1.521  0.00  0.00    +0.169 A 
BRANCH  16  17
ATOM     17  O   UNL     1       3.756  -3.620  -0.441  0.00  0.00    -0.491 OA
ATOM     18  C   UNL     1       4.830  -2.722  -0.152  0.00  0.00    +0.277 C 
ENDBRANCH  16  17
BRANCH  15  19
ATOM     19  O   UNL     1       4.542  -4.424  -2.954  0.00  0.00    -0.488 OA
ATOM     20  C   UNL     1       4.454  -5.850  -2.980  0.00  0.00    +0.277 C 
ENDBRANCH  15  19
BRANCH  14  21
ATOM     21  O   UNL     1       2.968  -3.833  -5.134  0.00  0.00    -0.491 OA
ATOM     22  C   UNL     1       2.103  -3.493  -6.219  0.00  0.00    +0.277 C 
ENDBRANCH  14  21
ENDBRANCH   7  11
BRANCH   9  23
ATOM     23  N   UNL     1       0.004   1.290   0.144  0.00  0.00    -0.328 N 
ATOM     24  H   UNL     1       0.834   1.792   0.134  0.00  0.00    +0.145 HD
ATOM     25  H   UNL     1      -0.846   1.758   0.177  0.00  0.00    +0.145 HD
ENDBRANCH   9  23
BRANCH   8  26
ATOM     26  C   UNL     1       2.426   0.119   0.042  0.00  0.00    +0.101 C 
ATOM     27  N   UNL     1       3.366   0.756   0.030  0.00  0.00    -0.191 NA
ENDBRANCH   8  26
BRANCH   3  28
ATOM     28  C   UNL     1      -3.644  -2.259   0.810  0.00  0.00    +0.343 C 
ATOM     29  O   UNL     1      -4.037  -1.808   1.869  0.00  0.00    -0.245 OA
BRANCH  28  30
ATOM     30  O   UNL     1      -4.433  -2.197  -0.282  0.00  0.00    -0.464 OA
ATOM     31  C   UNL     1      -5.736  -1.579  -0.120  0.00  0.00    +0.280 C 
ENDBRANCH  28  30
ENDBRANCH   3  28
TORSDOF 8
