REMARK  Name = ZINC35851764
REMARK  6 active torsions:
REMARK  status: ('A' for Active; 'I' for Inactive)
REMARK    1  A    between atoms: C_1  and  O_2
REMARK    2  A    between atoms: O_2  and  C_3
REMARK    3  A    between atoms: C_6  and  N_38
REMARK    4  A    between atoms: C_8  and  N_9
REMARK    5  A    between atoms: C_14  and  C_31
REMARK    6  A    between atoms: C_31  and  C_32
REMARK                            x       y       z     vdW  Elec       q    Type
REMARK                         _______ _______ _______ _____ _____    ______ ____
ROOT
ATOM      1  N   UNL     1      -0.075  -2.795  -0.233  0.00  0.00    -0.206 N 
ATOM      2  C   UNL     1       0.548  -3.194   0.882  0.00  0.00    +0.232 C 
ATOM      3  O   UNL     1       0.177  -2.960   2.013  0.00  0.00    -0.274 OA
ATOM      4  C   UNL     1       1.784  -3.982   0.514  0.00  0.00    +0.108 C 
ATOM      5  C   UNL     1       3.037  -3.173   0.911  0.00  0.00    +0.072 C 
ATOM      6  N   UNL     1       3.938  -3.262  -0.269  0.00  0.00    -0.295 NA
ATOM      7  C   UNL     1       3.028  -3.168  -1.426  0.00  0.00    +0.136 C 
ATOM      8  C   UNL     1       1.763  -3.975  -1.040  0.00  0.00    +0.123 C 
ATOM      9  C   UNL     1       0.519  -3.181  -1.369  0.00  0.00    +0.233 C 
ATOM     10  O   UNL     1       0.123  -2.931  -2.487  0.00  0.00    -0.274 OA
ATOM     11  C   UNL     1       2.702  -1.740  -1.757  0.00  0.00    +0.003 A 
ATOM     12  C   UNL     1       2.117  -0.712  -1.051  0.00  0.00    +0.008 A 
ATOM     13  C   UNL     1       1.950   0.528  -1.643  0.00  0.00    +0.000 A 
ATOM     14  C   UNL     1       2.372   0.732  -2.944  0.00  0.00    +0.002 A 
ATOM     15  C   UNL     1       2.957  -0.295  -3.655  0.00  0.00    +0.023 A 
ATOM     16  C   UNL     1       3.130  -1.546  -3.067  0.00  0.00    +0.039 A 
ATOM     17  N   UNL     1       3.687  -2.722  -3.572  0.00  0.00    -0.283 N 
ATOM     18  C   UNL     1       3.666  -3.723  -2.671  0.00  0.00    +0.243 C 
ATOM     19  O   UNL     1       4.080  -4.851  -2.831  0.00  0.00    -0.273 OA
ATOM     20  H   UNL     1       4.605  -2.505  -0.272  0.00  0.00    +0.124 HD
ATOM     21  H   UNL     1       4.047  -2.809  -4.469  0.00  0.00    +0.155 HD
ENDROOT
BRANCH   1  27
ATOM     22  C   UNL     1      -2.492  -2.672  -0.330  0.00  0.00    +0.142 A 
ATOM     23  C   UNL     1      -3.657  -1.922  -0.304  0.00  0.00    +0.050 A 
ATOM     24  C   UNL     1      -3.591  -0.548  -0.169  0.00  0.00    +0.036 A 
ATOM     25  C   UNL     1      -2.364   0.082  -0.060  0.00  0.00    +0.128 A 
ATOM     26  C   UNL     1      -1.198  -0.660  -0.085  0.00  0.00    +0.060 A 
ATOM     27  C   UNL     1      -1.257  -2.040  -0.214  0.00  0.00    +0.088 A 
BRANCH  25  28
ATOM     28  N   UNL     1      -2.300   1.554   0.084  0.00  0.00    +0.056 N 
ATOM     29  O   UNL     1      -3.319   2.204   0.106  0.00  0.00    -0.126 OA
ATOM     30  O   UNL     1      -1.228   2.105   0.180  0.00  0.00    -0.126 OA
ENDBRANCH  25  28
BRANCH  22  32
ATOM     31  C   UNL     1      -3.846  -4.593  -0.692  0.00  0.00    +0.277 C 
ATOM     32  O   UNL     1      -2.555  -4.024  -0.463  0.00  0.00    -0.493 OA
ENDBRANCH  22  32
ENDBRANCH   1  27
BRANCH   5  33
ATOM     33  C   UNL     1       3.704  -3.794   2.140  0.00  0.00    +0.054 C 
BRANCH  33  34
ATOM     34  C   UNL     1       4.851  -2.922   2.584  0.00  0.00    -0.046 A 
ATOM     35  C   UNL     1       6.117  -3.132   2.071  0.00  0.00    +0.004 A 
ATOM     36  C   UNL     1       7.168  -2.332   2.478  0.00  0.00    +0.000 A 
ATOM     37  C   UNL     1       6.953  -1.323   3.398  0.00  0.00    +0.000 A 
ATOM     38  C   UNL     1       5.687  -1.113   3.910  0.00  0.00    +0.000 A 
ATOM     39  C   UNL     1       4.634  -1.909   3.500  0.00  0.00    +0.004 A 
ENDBRANCH  33  34
ENDBRANCH   5  33
TORSDOF 5
