REMARK  Name = ZINC14669868
REMARK  14 active torsions:
REMARK  status: ('A' for Active; 'I' for Inactive)
REMARK    1  A    between atoms: C_1  and  C_2
REMARK    2  A    between atoms: C_2  and  C_3
REMARK    3  A    between atoms: C_3  and  C_4
REMARK    4  A    between atoms: C_4  and  N_5
REMARK    5  A    between atoms: C_6  and  N_30
REMARK    6  A    between atoms: C_7  and  N_14
REMARK    7  A    between atoms: N_14  and  C_15
REMARK    8  A    between atoms: C_15  and  C_16
REMARK    9  A    between atoms: C_16  and  C_17
REMARK   10  A    between atoms: C_16  and  C_18
REMARK   11  A    between atoms: C_19  and  C_21
REMARK   12  A    between atoms: C_21  and  S_22
REMARK   13  A    between atoms: S_22  and  C_23
REMARK   14  A    between atoms: C_26  and  C_29
REMARK                            x       y       z     vdW  Elec       q    Type
REMARK                         _______ _______ _______ _____ _____    ______ ____
ROOT
ATOM      1  N   UNL     1       5.598   9.881  -0.366  0.00  0.00    -0.280 N 
ATOM      2  C   UNL     1       4.975   8.662  -0.506  0.00  0.00    +0.127 A 
ATOM      3  C   UNL     1       5.389   7.600   0.271  0.00  0.00    +0.140 A 
ATOM      4  C   UNL     1       6.436   7.798   1.190  0.00  0.00    +0.277 A 
ATOM      5  O   UNL     1       6.819   6.878   1.893  0.00  0.00    -0.266 OA
ATOM      6  N   UNL     1       7.017   9.011   1.284  0.00  0.00    -0.273 N 
ATOM      7  H   UNL     1       7.767   9.151   1.931  0.00  0.00    +0.173 HD
ATOM      8  C   UNL     1       6.600  10.034   0.519  0.00  0.00    +0.331 A 
ATOM      9  O   UNL     1       7.139  11.119   0.628  0.00  0.00    -0.246 OA
ENDROOT
BRANCH   3  10
ATOM     10  N   UNL     1       4.770   6.338   0.150  0.00  0.00    -0.263 N 
ATOM     11  C   UNL     1       3.453   6.205   0.412  0.00  0.00    +0.230 C 
ATOM     12  O   UNL     1       2.820   7.150   0.834  0.00  0.00    -0.274 OA
BRANCH  10  13
ATOM     13  C   UNL     1       5.557   5.172  -0.259  0.00  0.00    +0.117 C 
BRANCH  13  14
ATOM     14  C   UNL     1       5.439   4.983  -1.773  0.00  0.00    +0.001 C 
ATOM     15  C   UNL     1       6.103   6.162  -2.487  0.00  0.00    +0.009 C 
ATOM     16  C   UNL     1       6.134   3.682  -2.180  0.00  0.00    +0.009 C 
ENDBRANCH  13  14
ENDBRANCH  10  13
BRANCH  11  17
ATOM     17  C   UNL     1       2.768   4.883   0.181  0.00  0.00    +0.170 C 
BRANCH  17  18
ATOM     18  S   UNL     1       1.014   5.024   0.622  0.00  0.00    -0.116 S 
BRANCH  18  19
ATOM     19  C   UNL     1       0.363   3.419   0.301  0.00  0.00    +0.008 A 
ATOM     20  C   UNL     1      -0.982   3.154   0.530  0.00  0.00    +0.015 A 
ATOM     21  C   UNL     1      -1.489   1.895   0.277  0.00  0.00    +0.004 A 
ATOM     22  C   UNL     1      -0.660   0.898  -0.205  0.00  0.00    -0.050 A 
ATOM     23  C   UNL     1       0.679   1.158  -0.434  0.00  0.00    +0.004 A 
ATOM     24  C   UNL     1       1.193   2.414  -0.182  0.00  0.00    +0.015 A 
ATOM     25  C   UNL     1      -1.217  -0.475  -0.481  0.00  0.00    +0.044 C 
ENDBRANCH  18  19
ENDBRANCH  17  18
ENDBRANCH  11  17
ENDBRANCH   3  10
BRANCH   2  26
ATOM     26  N   UNL     1       3.951   8.505  -1.410  0.00  0.00    -0.343 N 
ATOM     27  H   UNL     1       3.569   7.627  -1.561  0.00  0.00    +0.144 HD
ATOM     28  H   UNL     1       3.612   9.273  -1.896  0.00  0.00    +0.144 HD
ENDBRANCH   2  26
BRANCH   1  29
ATOM     29  C   UNL     1       5.168  11.017  -1.184  0.00  0.00    +0.128 C 
BRANCH  29  30
ATOM     30  C   UNL     1       4.064  11.784  -0.452  0.00  0.00    +0.021 C 
BRANCH  30  32
ATOM     31  C   UNL     1       2.512  13.737  -0.575  0.00  0.00    +0.004 C 
ATOM     32  C   UNL     1       3.615  12.971  -1.306  0.00  0.00    -0.002 C 
ENDBRANCH  30  32
ENDBRANCH  29  30
ENDBRANCH   1  29
TORSDOF 10
