REMARK  Name = ZINC06476155
REMARK  8 active torsions:
REMARK  status: ('A' for Active; 'I' for Inactive)
REMARK    1  A    between atoms: C_10  and  C_20
REMARK    2  A    between atoms: N_22  and  C_23
REMARK    3  A    between atoms: C_23  and  C_24
REMARK    4  A    between atoms: C_24  and  C_25
REMARK    5  A    between atoms: C_25  and  C_26
REMARK    6  A    between atoms: C_26  and  C_27
REMARK    7  A    between atoms: C_27  and  C_29
REMARK    8  A    between atoms: C_27  and  N_51
REMARK                            x       y       z     vdW  Elec       q    Type
REMARK                         _______ _______ _______ _____ _____    ______ ____
ROOT
ATOM      1  C   UNK     1      -7.312   5.476   0.096  0.00  0.00    +0.001 A 
ATOM      2  C   UNK     1      -6.459   6.564   0.093  0.00  0.00    +0.001 A 
ATOM      3  C   UNK     1      -5.087   6.381   0.080  0.00  0.00    +0.012 A 
ATOM      4  C   UNK     1      -4.559   5.095   0.070  0.00  0.00    +0.035 A 
ATOM      5  C   UNK     1      -5.428   3.989   0.072  0.00  0.00    +0.033 A 
ATOM      6  C   UNK     1      -6.804   4.188   0.086  0.00  0.00    +0.012 A 
ATOM      7  C   UNK     1      -4.860   2.624   0.039  0.00  0.00    +0.197 C 
ATOM      8  O   UNK     1      -5.590   1.652   0.037  0.00  0.00    -0.287 OA
ATOM      9  C   UNK     1      -3.390   2.458   0.032  0.00  0.00    +0.064 A 
ATOM     10  C   UNK     1      -2.568   1.311   0.022  0.00  0.00    +0.073 A 
ATOM     11  C   UNK     1      -1.232   1.767   0.017  0.00  0.00    +0.060 A 
ATOM     12  C   UNK     1      -0.013   1.076   0.008  0.00  0.00    +0.027 A 
ATOM     13  C   UNK     1       1.157   1.782   0.001  0.00  0.00    +0.003 A 
ATOM     14  C   UNK     1       1.115   3.181   0.008  0.00  0.00    +0.018 A 
ATOM     15  C   UNK     1      -0.075   3.827   0.022  0.00  0.00    +0.092 A 
ATOM     16  N   UNK     1      -1.245   3.132   0.030  0.00  0.00    -0.312 N 
ATOM     17  C   UNK     1      -2.555   3.571   0.044  0.00  0.00    +0.106 A 
ATOM     18  C   UNK     1      -3.097   4.881   0.055  0.00  0.00    +0.211 C 
ATOM     19  O   UNK     1      -2.349   5.842   0.053  0.00  0.00    -0.285 OA
ENDROOT
BRANCH  10  20
ATOM     20  C   UNK     1      -3.016  -0.087   0.017  0.00  0.00    +0.247 C 
ATOM     21  O   UNK     1      -3.196  -0.672   1.069  0.00  0.00    -0.270 OA
ATOM     22  N   UNK     1      -3.228  -0.723  -1.152  0.00  0.00    -0.311 N 
ATOM     23  H   UNK     1      -3.084  -0.257  -1.991  0.00  0.00    +0.149 HD
BRANCH  22  24
ATOM     24  C   UNK     1      -3.674  -2.119  -1.157  0.00  0.00    +0.104 C 
BRANCH  24  25
ATOM     25  C   UNK     1      -3.837  -2.597  -2.600  0.00  0.00    +0.019 C 
BRANCH  25  26
ATOM     26  C   UNK     1      -4.304  -4.054  -2.605  0.00  0.00    +0.000 C 
BRANCH  26  27
ATOM     27  C   UNK     1      -4.467  -4.533  -4.049  0.00  0.00    -0.005 C 
BRANCH  27  28
ATOM     28  C   UNK     1      -4.934  -5.990  -4.054  0.00  0.00    +0.040 C 
BRANCH  28  31
ATOM     29  H   UNK     1      -6.261  -5.801  -2.491  0.00  0.00    -0.089 HD
ATOM     30  H   UNK     1      -6.938  -5.523  -3.985  0.00  0.00    -0.089 HD
ATOM     31  N   UNK     1      -6.280  -6.101  -3.465  0.00  0.00    +0.387 N 
ATOM     32  H   UNK     1      -6.587  -7.080  -3.508  0.00  0.00    -0.089 HD
ENDBRANCH  28  31
BRANCH  28  33
ATOM     33  C   UNK     1      -4.976  -6.499  -5.472  0.00  0.00    +0.342 C 
ATOM     34  O   UNK     1      -6.028  -6.552  -6.063  0.00  0.00    -0.248 OA
ATOM     35  O   UNK     1      -3.845  -6.895  -6.077  0.00  0.00    -0.248 OA
ENDBRANCH  28  33
ENDBRANCH  27  28
ENDBRANCH  26  27
ENDBRANCH  25  26
ENDBRANCH  24  25
ENDBRANCH  22  24
ENDBRANCH  10  20
TORSDOF 8
