REMARK  Name = ZINC49976152
REMARK  9 active torsions:
REMARK  status: ('A' for Active; 'I' for Inactive)
REMARK    1  A    between atoms: C_1  and  C_2
REMARK    2  A    between atoms: C_2  and  C_3
REMARK    3  A    between atoms: C_3  and  C_5
REMARK    4  A    between atoms: C_3  and  C_9
REMARK    5  A    between atoms: N_6  and  O_7
REMARK    6  A    between atoms: N_11  and  C_12
REMARK    7  A    between atoms: N_11  and  C_13
REMARK    8  A    between atoms: C_15  and  C_20
REMARK    9  A    between atoms: C_17  and  C_19
REMARK                            x       y       z     vdW  Elec       q    Type
REMARK                         _______ _______ _______ _____ _____    ______ ____
ROOT
ATOM      1  C   UNL     1       2.084  -0.061  -1.280  0.00  0.00    +0.230 C 
ATOM      2  O   UNL     1       2.976  -0.865  -1.455  0.00  0.00    -0.274 OA
ATOM      3  N   UNL     1       2.371   1.252  -1.179  0.00  0.00    -0.274 N 
ATOM      4  C   UNL     1       1.286   2.232  -1.081  0.00  0.00    +0.138 C 
ENDROOT
BRANCH   3   5
ATOM      5  C   UNL     1       3.703   1.679  -1.169  0.00  0.00    +0.036 A 
ATOM      6  C   UNL     1       4.726   0.773  -1.417  0.00  0.00    +0.027 A 
ATOM      7  C   UNL     1       6.040   1.198  -1.406  0.00  0.00    -0.048 A 
ATOM      8  C   UNL     1       6.338   2.523  -1.149  0.00  0.00    +0.006 A 
ATOM      9  C   UNL     1       5.322   3.428  -0.901  0.00  0.00    -0.048 A 
ATOM     10  C   UNL     1       4.005   3.011  -0.916  0.00  0.00    +0.027 A 
ATOM     11  C   UNL     1       5.651   4.871  -0.620  0.00  0.00    +0.044 C 
ATOM     12  C   UNL     1       7.151   0.215  -1.674  0.00  0.00    +0.044 C 
ENDBRANCH   3   5
BRANCH   1  13
ATOM     13  C   UNL     1       0.657  -0.532  -1.175  0.00  0.00    +0.141 C 
BRANCH  13  14
ATOM     14  C   UNL     1       0.300  -1.333  -2.401  0.00  0.00    +0.144 C 
ATOM     15  N   UNL     1       0.401  -2.620  -2.383  0.00  0.00    -0.076 NA
ATOM     16  N   UNL     1      -0.134  -0.692  -3.540  0.00  0.00    -0.343 N 
ATOM     17  H   UNL     1      -0.210   0.275  -3.553  0.00  0.00    +0.144 HD
ATOM     18  H   UNL     1      -0.363  -1.207  -4.329  0.00  0.00    +0.144 HD
BRANCH  15  19
ATOM     19  O   UNL     1       0.066  -3.373  -3.534  0.00  0.00    -0.408 OA
ATOM     20  H   UNL     1       0.174  -4.328  -3.425  0.00  0.00    +0.328 HD
ENDBRANCH  15  19
ENDBRANCH  13  14
BRANCH  13  22
ATOM     21  C   UNL     1       0.727  -0.558   1.323  0.00  0.00    +0.005 C 
ATOM     22  C   UNL     1       0.498  -1.407   0.070  0.00  0.00    +0.017 C 
ENDBRANCH  13  22
ENDBRANCH   1  13
TORSDOF 5
