REMARK  Name = ZINC41644337
REMARK  6 active torsions:
REMARK  status: ('A' for Active; 'I' for Inactive)
REMARK    1  A    between atoms: C_1  and  C_2
REMARK    2  A    between atoms: C_3  and  C_25
REMARK    3  A    between atoms: C_5  and  N_10
REMARK    4  A    between atoms: C_6  and  C_7
REMARK    5  A    between atoms: C_11  and  C_13
REMARK    6  A    between atoms: C_13  and  C_24
REMARK                            x       y       z     vdW  Elec       q    Type
REMARK                         _______ _______ _______ _____ _____    ______ ____
ROOT
ATOM      1  N   UNL     1       0.054  -3.117   2.083  0.00  0.00    -0.278 N 
ATOM      2  C   UNL     1       0.070  -4.426   1.762  0.00  0.00    +0.243 C 
ATOM      3  O   UNL     1       0.070  -4.765   0.597  0.00  0.00    -0.273 OA
ATOM      4  H   UNL     1       0.054  -2.846   3.014  0.00  0.00    +0.155 HD
ENDROOT
BRANCH   2   5
ATOM      5  C   UNL     1       0.089  -5.468   2.850  0.00  0.00    +0.170 C 
ATOM      6  C   UNL     1      -0.287  -6.809   2.274  0.00  0.00    +0.242 C 
ATOM      7  O   UNL     1      -0.143  -6.986   1.083  0.00  0.00    -0.273 OA
ATOM      8  N   UNL     1      -0.768  -7.807   3.008  0.00  0.00    -0.283 N 
ATOM      9  C   UNL     1      -1.109  -7.757   4.356  0.00  0.00    +0.047 A 
ATOM     10  C   UNL     1      -1.268  -8.947   5.060  0.00  0.00    +0.024 A 
ATOM     11  C   UNL     1      -1.597  -8.924   6.401  0.00  0.00    +0.002 A 
ATOM     12  C   UNL     1      -1.772  -7.720   7.059  0.00  0.00    +0.001 A 
ATOM     13  C   UNL     1      -1.622  -6.530   6.371  0.00  0.00    +0.016 A 
ATOM     14  C   UNL     1      -1.296  -6.548   5.025  0.00  0.00    +0.031 A 
ATOM     15  S   UNL     1      -1.123  -5.033   4.135  0.00  0.00    -0.098 S 
ATOM     16  C   UNL     1       1.488  -5.543   3.467  0.00  0.00    +0.043 C 
ATOM     17  H   UNL     1      -0.894  -8.657   2.558  0.00  0.00    +0.155 HD
ENDBRANCH   2   5
BRANCH   1  22
ATOM     18  C   UNL     1      -0.018   1.503   0.010  0.00  0.00    +0.045 C 
ATOM     19  C   UNL     1       0.002  -0.004   0.002  0.00  0.00    -0.027 A 
ATOM     20  C   UNL     1       0.006  -0.713  -1.142  0.00  0.00    -0.008 A 
ATOM     21  S   UNL     1       0.032  -2.400  -0.579  0.00  0.00    -0.078 S 
ATOM     22  C   UNL     1       0.036  -2.158   1.081  0.00  0.00    +0.084 A 
ATOM     23  C   UNL     1       0.024  -0.778   1.222  0.00  0.00    +0.068 A 
ATOM     24  C   UNL     1      -0.007  -0.200  -2.559  0.00  0.00    +0.052 C 
BRANCH  23  25
ATOM     25  C   UNL     1       0.028  -0.138   2.541  0.00  0.00    +0.244 C 
ATOM     26  O   UNL     1      -1.024   0.114   3.099  0.00  0.00    -0.270 OA
ATOM     27  N   UNL     1       1.197   0.172   3.136  0.00  0.00    -0.325 N 
ATOM     28  H   UNL     1       2.035  -0.028   2.692  0.00  0.00    +0.145 HD
ATOM     29  H   UNL     1       1.199   0.596   4.009  0.00  0.00    +0.145 HD
ENDBRANCH  23  25
ENDBRANCH   1  22
TORSDOF 3
