REMARK  Name = ZINC61844537
REMARK  2 active torsions:
REMARK  status: ('A' for Active; 'I' for Inactive)
REMARK    1  A    between atoms: C_5  and  C_6
REMARK    2  A    between atoms: C_8  and  C_11
REMARK                            x       y       z     vdW  Elec       q    Type
REMARK                         _______ _______ _______ _____ _____    ______ ____
ROOT
ATOM      1  C   UNL     1      -1.125  -0.944   0.008  0.00  0.00    +0.265 A 
ATOM      2  N   UNL     1      -1.035  -2.258   0.005  0.00  0.00    -0.184 NA
ATOM      3  C   UNL     1      -2.262  -2.799   0.013  0.00  0.00    +0.241 A 
ATOM      4  N   UNL     1      -3.151  -1.836   0.021  0.00  0.00    -0.052 NA
ATOM      5  O   UNL     1      -2.430  -0.614   0.023  0.00  0.00    -0.332 OA
ENDROOT
BRANCH   1  10
ATOM      6  C   UNL     1      -0.017   1.381   0.010  0.00  0.00    +0.022 A 
ATOM      7  C   UNL     1       1.215   1.996   0.001  0.00  0.00    +0.024 A 
ATOM      8  C   UNL     1       2.333   1.229  -0.014  0.00  0.00    +0.056 A 
ATOM      9  S   UNL     1       1.751  -0.347  -0.017  0.00  0.00    -0.077 S 
ATOM     10  C   UNL     1       0.002  -0.004   0.002  0.00  0.00    +0.078 A 
ATOM     11 BR   UNL     1       4.134   1.803  -0.028  0.00  0.00    -0.043 Br
ENDBRANCH   1  10
BRANCH   3  12
ATOM     12  C   UNL     1      -2.564  -4.253   0.013  0.00  0.00    +0.222 A 
ATOM     13  N   UNL     1      -3.789  -4.796   0.021  0.00  0.00    -0.212 NA
ATOM     14  H   UNL     1      -2.018  -7.324   0.002  0.00  0.00    +0.190 HD
ATOM     15  C   UNL     1      -3.695  -6.099   0.017  0.00  0.00    +0.216 A 
ATOM     16  N   UNL     1      -2.391  -6.428   0.007  0.00  0.00    -0.265 N 
ATOM     17  N   UNL     1      -1.674  -5.221  -0.002  0.00  0.00    -0.149 NA
ENDBRANCH   3  12
TORSDOF 2
