REMARK  Name = ZINC67085293
REMARK  7 active torsions:
REMARK  status: ('A' for Active; 'I' for Inactive)
REMARK    1  A    between atoms: C_1  and  C_2
REMARK    2  A    between atoms: C_4  and  C_7
REMARK    3  A    between atoms: C_7  and  C_8
REMARK    4  A    between atoms: C_8  and  C_9
REMARK    5  A    between atoms: C_9  and  N_10
REMARK    6  A    between atoms: N_13  and  N_14
REMARK    7  A    between atoms: C_15  and  C_17
REMARK                            x       y       z     vdW  Elec       q    Type
REMARK                         _______ _______ _______ _____ _____    ______ ____
ROOT
ATOM      1  N   UNL     1       2.881  -5.134  -3.300  0.00  0.00    -0.298 N 
ATOM      2  C   UNL     1       3.137  -6.160  -4.135  0.00  0.00    +0.316 C 
ATOM      3  O   UNL     1       2.219  -6.787  -4.627  0.00  0.00    -0.251 OA
ATOM      4  N   UNL     1       4.411  -6.492  -4.423  0.00  0.00    -0.218 N 
ATOM      5  H   UNL     1       3.613  -4.633  -2.907  0.00  0.00    +0.150 HD
ATOM      6  H   UNL     1       4.596  -7.232  -5.023  0.00  0.00    +0.174 HD
ENDROOT
BRANCH   4   7
ATOM      7  N   UNL     1       5.469  -5.770  -3.855  0.00  0.00    -0.229 N 
ATOM      8  C   UNL     1       6.743  -6.102  -4.144  0.00  0.00    +0.267 C 
ATOM      9  O   UNL     1       6.974  -7.029  -4.897  0.00  0.00    -0.268 OA
ATOM     10  H   UNL     1       5.284  -5.031  -3.255  0.00  0.00    +0.173 HD
BRANCH   8  11
ATOM     11  C   UNL     1       7.850  -5.346  -3.550  0.00  0.00    +0.076 A 
ATOM     12  C   UNL     1       9.210  -5.517  -3.716  0.00  0.00    +0.024 A 
ATOM     13  C   UNL     1      10.046  -4.647  -3.022  0.00  0.00    -0.036 A 
ATOM     14  C   UNL     1       9.437  -3.713  -2.245  0.00  0.00    -0.006 A 
ATOM     15  S   UNL     1       7.793  -3.962  -2.429  0.00  0.00    -0.088 S 
ATOM     16  C   UNL     1      10.085  -2.663  -1.391  0.00  0.00    +0.043 C 
ATOM     17  C   UNL     1      11.443  -2.283  -1.993  0.00  0.00    +0.005 C 
ATOM     18  C   UNL     1      12.509  -3.207  -1.413  0.00  0.00    +0.001 C 
ATOM     19  C   UNL     1      12.209  -4.661  -1.766  0.00  0.00    +0.005 C 
ATOM     20  C   UNL     1      11.562  -4.752  -3.144  0.00  0.00    +0.036 C 
ENDBRANCH   8  11
ENDBRANCH   4   7
BRANCH   1  21
ATOM     21  C   UNL     1       1.496  -4.773  -2.987  0.00  0.00    +0.106 C 
BRANCH  21  22
ATOM     22  C   UNL     1       1.484  -3.583  -2.025  0.00  0.00    +0.028 C 
BRANCH  22  23
ATOM     23  C   UNL     1       0.038  -3.206  -1.697  0.00  0.00    +0.100 C 
BRANCH  23  27
ATOM     24  C   UNL     1      -0.018   1.503   0.010  0.00  0.00    +0.091 C 
ATOM     25  C   UNL     1       0.002  -0.004   0.002  0.00  0.00    +0.169 A 
ATOM     26  N   UNL     1       0.008  -0.776  -1.091  0.00  0.00    -0.196 NA
ATOM     27  C   UNL     1       0.026  -2.034  -0.750  0.00  0.00    +0.227 A 
ATOM     28  O   UNL     1       0.033  -2.107   0.587  0.00  0.00    -0.338 OA
ATOM     29  N   UNL     1       0.023  -0.767   1.057  0.00  0.00    -0.062 NA
ENDBRANCH  23  27
ENDBRANCH  22  23
ENDBRANCH  21  22
ENDBRANCH   1  21
TORSDOF 6
