REMARK  Name = ZINC17244863
REMARK  9 active torsions:
REMARK  status: ('A' for Active; 'I' for Inactive)
REMARK    1  A    between atoms: C_1  and  C_2
REMARK    2  A    between atoms: C_2  and  C_3
REMARK    3  A    between atoms: C_3  and  N_4
REMARK    4  A    between atoms: N_11  and  C_14
REMARK    5  A    between atoms: C_14  and  C_15
REMARK    6  A    between atoms: C_15  and  O_17
REMARK    7  A    between atoms: O_17  and  C_18
REMARK    8  A    between atoms: C_18  and  C_19
REMARK    9  A    between atoms: N_24  and  C_25
REMARK                            x       y       z     vdW  Elec       q    Type
REMARK                         _______ _______ _______ _____ _____    ______ ____
ROOT
ATOM      1  C   UNL     1      -0.196  -7.006   5.363  0.00  0.00    +0.328 C 
ENDROOT
BRANCH   1   2
ATOM      2  C   UNL     1      -0.939  -8.205   5.896  0.00  0.00    +0.258 C 
ATOM      3  O   UNL     1      -1.799  -8.733   5.224  0.00  0.00    -0.272 OA
ATOM      4  N   UNL     1      -0.647  -8.689   7.119  0.00  0.00    -0.237 N 
ATOM      5  C   UNL     1      -1.311  -9.761   7.595  0.00  0.00    +0.306 C 
ATOM      6  O   UNL     1      -2.173 -10.290   6.922  0.00  0.00    -0.252 OA
ATOM      7  N   UNL     1      -1.018 -10.246   8.818  0.00  0.00    -0.294 N 
ATOM      8  H   UNL     1       0.041  -8.267   7.656  0.00  0.00    +0.159 HD
ATOM      9  H   UNL     1      -0.330  -9.823   9.356  0.00  0.00    +0.151 HD
BRANCH   7  10
ATOM     10  C   UNL     1      -1.740 -11.411   9.336  0.00  0.00    +0.037 C 
ATOM     11  C   UNL     1      -3.235 -11.093   9.412  0.00  0.00    +0.029 C 
ATOM     12  C   UNL     1      -3.989 -12.309   9.953  0.00  0.00    -0.008 C 
ATOM     13  C   UNL     1      -3.469 -12.652  11.350  0.00  0.00    +0.007 C 
ATOM     14  C   UNL     1      -1.974 -12.970  11.274  0.00  0.00    -0.008 C 
ATOM     15  C   UNL     1      -1.220 -11.753  10.734  0.00  0.00    +0.029 C 
ATOM     16  C   UNL     1      -1.753 -14.162  10.342  0.00  0.00    +0.007 C 
ATOM     17  C   UNL     1      -2.273 -13.820   8.944  0.00  0.00    -0.008 C 
ATOM     18  C   UNL     1      -3.768 -13.502   9.020  0.00  0.00    +0.007 C 
ATOM     19  C   UNL     1      -1.519 -12.604   8.403  0.00  0.00    +0.029 C 
ENDBRANCH   7  10
ENDBRANCH   1   2
BRANCH   1  20
ATOM     20  O   UNL     1      -0.690  -6.681   4.037  0.00  0.00    -0.454 OA
BRANCH  20  21
ATOM     21  C   UNL     1      -0.129  -5.631   3.418  0.00  0.00    +0.328 C 
ATOM     22  O   UNL     1       0.747  -5.004   3.966  0.00  0.00    -0.249 OA
BRANCH  21  23
ATOM     23  C   UNL     1      -0.589  -5.234   2.039  0.00  0.00    +0.247 C 
BRANCH  23  31
ATOM     24  N   UNL     1       0.762  -1.976   1.234  0.00  0.00    -0.292 N 
ATOM     25  C   UNL     1       1.746  -2.775   0.655  0.00  0.00    +0.070 A 
ATOM     26  C   UNL     1       2.915  -2.494  -0.035  0.00  0.00    +0.028 A 
ATOM     27  C   UNL     1       3.705  -3.528  -0.498  0.00  0.00    +0.002 A 
ATOM     28  C   UNL     1       3.334  -4.843  -0.276  0.00  0.00    +0.002 A 
ATOM     29  C   UNL     1       2.171  -5.132   0.411  0.00  0.00    +0.028 A 
ATOM     30  C   UNL     1       1.372  -4.101   0.879  0.00  0.00    +0.070 A 
ATOM     31  N   UNL     1       0.172  -4.067   1.587  0.00  0.00    -0.281 N 
ATOM     32  C   UNL     1      -0.165  -2.779   1.789  0.00  0.00    +0.331 A 
ATOM     33  O   UNL     1      -1.157  -2.400   2.381  0.00  0.00    -0.246 OA
BRANCH  24  34
ATOM     34  C   UNL     1       0.742  -0.511   1.242  0.00  0.00    +0.127 C 
BRANCH  34  36
ATOM     35  C   UNL     1      -0.019   1.526   0.010  0.00  0.00    +0.005 C 
ATOM     36  C   UNL     1       0.002  -0.004   0.002  0.00  0.00    +0.018 C 
ENDBRANCH  34  36
ENDBRANCH  24  34
ENDBRANCH  23  31
ENDBRANCH  21  23
ENDBRANCH  20  21
ENDBRANCH   1  20
TORSDOF 8
