REMARK  Name = ZINC39935590
REMARK  9 active torsions:
REMARK  status: ('A' for Active; 'I' for Inactive)
REMARK    1  A    between atoms: C_1  and  C_2
REMARK    2  A    between atoms: C_4  and  S_9
REMARK    3  A    between atoms: C_5  and  C_8
REMARK    4  A    between atoms: S_9  and  C_10
REMARK    5  A    between atoms: C_15  and  N_16
REMARK    6  A    between atoms: C_17  and  C_18
REMARK    7  A    between atoms: C_21  and  O_26
REMARK    8  A    between atoms: C_22  and  O_24
REMARK    9  A    between atoms: O_24  and  C_25
REMARK                            x       y       z     vdW  Elec       q    Type
REMARK                         _______ _______ _______ _____ _____    ______ ____
ROOT
ATOM      1  C   UNL     1       1.754  -1.006  -3.754  0.00  0.00    +0.038 A 
ATOM      2  C   UNL     1       2.731  -1.695  -3.048  0.00  0.00    +0.017 A 
ATOM      3  C   UNL     1       3.746  -2.344  -3.724  0.00  0.00    +0.001 A 
ATOM      4  C   UNL     1       3.798  -2.312  -5.108  0.00  0.00    +0.002 A 
ATOM      5  C   UNL     1       2.836  -1.632  -5.826  0.00  0.00    +0.029 A 
ATOM      6  C   UNL     1       1.801  -0.978  -5.157  0.00  0.00    +0.078 A 
ENDROOT
BRANCH   6   7
ATOM      7  N   UNL     1       0.841  -0.307  -5.863  0.00  0.00    -0.254 NA
ATOM      8  C   UNL     1       1.187   0.518  -6.811  0.00  0.00    +0.119 C 
BRANCH   8   9
ATOM      9  C   UNL     1       0.161   1.314  -7.503  0.00  0.00    -0.003 A 
ATOM     10  C   UNL     1      -1.185   1.191  -7.141  0.00  0.00    +0.013 A 
ATOM     11  C   UNL     1      -2.143   1.938  -7.791  0.00  0.00    +0.050 A 
ATOM     12  C   UNL     1      -1.777   2.813  -8.805  0.00  0.00    +0.158 A 
ATOM     13  C   UNL     1      -0.438   2.941  -9.171  0.00  0.00    +0.162 A 
ATOM     14  C   UNL     1       0.530   2.200  -8.521  0.00  0.00    +0.058 A 
BRANCH  13  15
ATOM     15  O   UNL     1      -0.085   3.798 -10.166  0.00  0.00    -0.491 OA
ATOM     16  C   UNL     1       1.305   3.878 -10.489  0.00  0.00    +0.277 C 
ENDBRANCH  13  15
BRANCH  12  17
ATOM     17  O   UNL     1      -2.727   3.547  -9.442  0.00  0.00    -0.503 OA
ATOM     18  H   UNL     1      -2.901   4.405  -9.032  0.00  0.00    +0.292 HD
ENDBRANCH  12  17
ENDBRANCH   8   9
ENDBRANCH   6   7
BRANCH   1  19
ATOM     19  S   UNL     1       0.459  -0.177  -2.894  0.00  0.00    -0.088 S 
BRANCH  19  22
ATOM     20  C   UNL     1      -0.846  -2.551  -0.731  0.00  0.00    +0.040 C 
ATOM     21  C   UNL     1       0.580  -2.015  -0.585  0.00  0.00    +0.163 C 
ATOM     22  C   UNL     1       0.703  -0.636  -1.210  0.00  0.00    +0.039 C 
ATOM     23  C   UNL     1       1.046   0.156  -0.167  0.00  0.00    +0.072 C 
ATOM     24  N   UNL     1       1.137  -0.558   0.957  0.00  0.00    -0.158 NA
ATOM     25  N   UNL     1       0.901  -1.766   0.831  0.00  0.00    -0.179 NA
ATOM     26  C   UNL     1       1.292   1.640  -0.262  0.00  0.00    +0.068 C 
ENDBRANCH  19  22
ENDBRANCH   1  19
TORSDOF 6
