REMARK  Name = ZINC04820709
REMARK  10 active torsions:
REMARK  status: ('A' for Active; 'I' for Inactive)
REMARK    1  A    between atoms: C_1  and  C_2
REMARK    2  A    between atoms: C_5  and  C_29
REMARK    3  A    between atoms: C_6  and  C_8
REMARK    4  A    between atoms: C_10  and  C_25
REMARK    5  A    between atoms: C_11  and  C_16
REMARK    6  A    between atoms: C_16  and  N_52
REMARK    7  A    between atoms: C_17  and  C_18
REMARK    8  A    between atoms: C_17  and  N_52
REMARK    9  A    between atoms: C_25  and  O_27
REMARK   10  A    between atoms: O_27  and  C_28
REMARK                            x       y       z     vdW  Elec       q    Type
REMARK                         _______ _______ _______ _____ _____    ______ ____
ROOT
ATOM      1  C   UNL     1       3.196   2.180  -0.255  0.00  0.00    +0.144 C 
ATOM      2  C   UNL     1       3.814   2.483  -1.605  0.00  0.00    +0.076 C 
ATOM      3  C   UNL     1       4.020   3.779  -1.926  0.00  0.00    +0.007 C 
ATOM      4  N   UNL     1       3.682   4.781  -1.062  0.00  0.00    -0.274 N 
ATOM      5  C   UNL     1       3.134   4.571   0.142  0.00  0.00    +0.304 C 
ATOM      6  O   UNL     1       2.868   5.528   0.842  0.00  0.00    -0.252 OA
ATOM      7  N   UNL     1       2.870   3.332   0.603  0.00  0.00    -0.288 N 
ATOM      8  H   UNL     1       3.848   5.696  -1.336  0.00  0.00    +0.156 HD
ATOM      9  H   UNL     1       2.473   3.203   1.478  0.00  0.00    +0.151 HD
ENDROOT
BRANCH   1  15
ATOM     10  C   UNL     1      -1.755   2.072  -0.976  0.00  0.00    +0.044 C 
ATOM     11  C   UNL     1      -0.441   1.348  -0.829  0.00  0.00    -0.050 A 
ATOM     12  C   UNL     1      -0.398  -0.031  -0.913  0.00  0.00    +0.003 A 
ATOM     13  C   UNL     1       0.807  -0.695  -0.784  0.00  0.00    +0.004 A 
ATOM     14  C   UNL     1       1.971   0.021  -0.571  0.00  0.00    -0.045 A 
ATOM     15  C   UNL     1       1.928   1.400  -0.488  0.00  0.00    -0.019 A 
ATOM     16  C   UNL     1       0.722   2.064  -0.616  0.00  0.00    +0.009 A 
ATOM     17  C   UNL     1       3.285  -0.702  -0.430  0.00  0.00    +0.044 C 
ENDBRANCH   1  15
BRANCH   2  18
ATOM     18  C   UNL     1       4.162   1.444  -2.499  0.00  0.00    +0.338 C 
ATOM     19  O   UNL     1       3.311   0.942  -3.210  0.00  0.00    -0.245 OA
BRANCH  18  20
ATOM     20  O   UNL     1       5.438   1.009  -2.564  0.00  0.00    -0.465 OA
ATOM     21  C   UNL     1       5.699  -0.111  -3.413  0.00  0.00    +0.280 C 
ENDBRANCH  18  20
ENDBRANCH   2  18
BRANCH   3  22
ATOM     22  C   UNL     1       4.631   4.124  -3.259  0.00  0.00    -0.030 C 
BRANCH  22  23
ATOM     23  N   UNL     1       3.637   4.847  -4.074  0.00  0.00    +0.385 N 
ATOM     24  H   UNL     1       3.359   5.706  -3.586  0.00  0.00    -0.085 HD
ATOM     25  H   UNL     1       2.813   4.249  -4.213  0.00  0.00    -0.085 HD
BRANCH  23  26
ATOM     26  C   UNL     1       4.210   5.198  -5.388  0.00  0.00    -0.045 C 
BRANCH  26  27
ATOM     27  C   UNL     1       3.173   5.934  -6.197  0.00  0.00    -0.046 A 
ATOM     28  C   UNL     1       2.454   5.267  -7.170  0.00  0.00    +0.003 A 
ATOM     29  C   UNL     1       1.500   5.941  -7.910  0.00  0.00    +0.000 A 
ATOM     30  C   UNL     1       1.272   7.285  -7.683  0.00  0.00    +0.001 A 
ATOM     31  C   UNL     1       1.995   7.955  -6.714  0.00  0.00    +0.020 A 
ATOM     32  C   UNL     1       2.946   7.280  -5.970  0.00  0.00    +0.042 A 
ATOM     33 CL   UNL     1       3.854   8.120  -4.752  0.00  0.00    -0.083 Cl
ENDBRANCH  26  27
ENDBRANCH  23  26
ENDBRANCH  22  23
ENDBRANCH   3  22
TORSDOF 7
