REMARK  Name = ZINC43683424
REMARK  7 active torsions:
REMARK  status: ('A' for Active; 'I' for Inactive)
REMARK    1  A    between atoms: C_4  and  C_10
REMARK    2  A    between atoms: C_5  and  C_6
REMARK    3  A    between atoms: C_7  and  C_8
REMARK    4  A    between atoms: C_8  and  O_9
REMARK    5  A    between atoms: C_10  and  S_11
REMARK    6  A    between atoms: S_11  and  C_12
REMARK    7  A    between atoms: C_18  and  N_20
REMARK                            x       y       z     vdW  Elec       q    Type
REMARK                         _______ _______ _______ _____ _____    ______ ____
ROOT
ATOM      1  S   UNL     1       1.617  -2.699  -1.739  0.00  0.00    -0.083 S 
ENDROOT
BRANCH   1   2
ATOM      2  C   UNL     1       1.965  -4.419  -1.584  0.00  0.00    +0.171 A 
ATOM      3  N   UNL     1       2.114  -5.174  -2.708  0.00  0.00    -0.302 N 
ATOM      4  H   UNL     1       2.028  -4.762  -3.582  0.00  0.00    +0.171 HD
ATOM      5  C   UNL     1       2.381  -6.493  -2.608  0.00  0.00    +0.254 A 
ATOM      6  O   UNL     1       2.516  -7.176  -3.611  0.00  0.00    -0.268 OA
ATOM      7  C   UNL     1       2.500  -7.063  -1.337  0.00  0.00    +0.113 A 
ATOM      8  C   UNL     1       2.340  -6.251  -0.223  0.00  0.00    +0.124 A 
ATOM      9  N   UNL     1       2.082  -4.948  -0.383  0.00  0.00    -0.209 NA
BRANCH   8  10
ATOM     10  N   UNL     1       2.452  -6.784   1.045  0.00  0.00    -0.343 N 
ATOM     11  H   UNL     1       2.644  -7.729   1.159  0.00  0.00    +0.144 HD
ATOM     12  H   UNL     1       2.340  -6.215   1.822  0.00  0.00    +0.144 HD
ENDBRANCH   8  10
ENDBRANCH   1   2
BRANCH   1  13
ATOM     13  C   UNL     1       1.513  -2.116  -0.024  0.00  0.00    +0.121 C 
BRANCH  13  17
ATOM     14  C   UNL     1      -0.017   1.389   0.010  0.00  0.00    +0.025 A 
ATOM     15  C   UNL     1       1.156   2.061   0.002  0.00  0.00    +0.047 A 
ATOM     16  S   UNL     1       2.352   0.737  -0.016  0.00  0.00    -0.100 S 
ATOM     17  C   UNL     1       1.215  -0.639  -0.013  0.00  0.00    +0.015 A 
ATOM     18  C   UNL     1       0.002  -0.004   0.002  0.00  0.00    +0.036 A 
BRANCH  18  19
ATOM     19  C   UNL     1      -1.218  -0.754   0.010  0.00  0.00    -0.063 C 
ATOM     20  C   UNL     1      -2.218  -1.369   0.017  0.00  0.00    -0.069 C 
BRANCH  20  21
ATOM     21  C   UNL     1      -3.472  -2.140   0.025  0.00  0.00    +0.244 C 
BRANCH  21  22
ATOM     22  O   UNL     1      -3.172  -3.537   0.015  0.00  0.00    -0.383 OA
ATOM     23  H   UNL     1      -3.953  -4.107   0.019  0.00  0.00    +0.211 HD
ENDBRANCH  21  22
ENDBRANCH  20  21
ENDBRANCH  18  19
ENDBRANCH  13  17
ENDBRANCH   1  13
TORSDOF 7
