REMARK  Name = ZINC47559298
REMARK  9 active torsions:
REMARK  status: ('A' for Active; 'I' for Inactive)
REMARK    1  A    between atoms: C_1  and  C_2
REMARK    2  A    between atoms: C_3  and  C_26
REMARK    3  A    between atoms: C_5  and  S_7
REMARK    4  A    between atoms: S_7  and  C_8
REMARK    5  A    between atoms: C_8  and  C_10
REMARK    6  A    between atoms: C_8  and  C_11
REMARK    7  A    between atoms: N_13  and  C_14
REMARK    8  A    between atoms: C_14  and  C_16
REMARK    9  A    between atoms: C_14  and  C_17
REMARK                            x       y       z     vdW  Elec       q    Type
REMARK                         _______ _______ _______ _____ _____    ______ ____
ROOT
ATOM      1  C   UNL     1      -0.050  -3.893   4.414  0.00  0.00    +0.227 C 
ATOM      2  O   UNL     1       0.328  -5.008   4.123  0.00  0.00    -0.275 OA
ATOM      3  N   UNL     1      -0.564  -3.653   5.637  0.00  0.00    -0.305 N 
ATOM      4  H   UNL     1      -0.866  -2.761   5.870  0.00  0.00    +0.149 HD
ENDROOT
BRANCH   1   5
ATOM      5  C   UNL     1       0.055  -2.775   3.409  0.00  0.00    +0.138 C 
ATOM      6  C   UNL     1       1.353  -2.000   3.641  0.00  0.00    +0.029 C 
BRANCH   5   7
ATOM      7  S   UNL     1       0.056  -3.469   1.732  0.00  0.00    -0.055 S 
BRANCH   7  12
ATOM      8  C   UNL     1      -0.018   1.503   0.010  0.00  0.00    +0.069 C 
ATOM      9  C   UNL     1       0.002  -0.004   0.002  0.00  0.00    +0.080 A 
ATOM     10  C   UNL     1       0.008  -0.788  -1.086  0.00  0.00    +0.126 A 
ATOM     11  O   UNL     1       0.027  -2.069  -0.657  0.00  0.00    -0.436 OA
ATOM     12  C   UNL     1       0.033  -2.052   0.685  0.00  0.00    +0.258 A 
ATOM     13  N   UNL     1       0.024  -0.803   1.086  0.00  0.00    -0.208 NA
ATOM     14  C   UNL     1      -0.005  -0.326  -2.520  0.00  0.00    +0.088 C 
ENDBRANCH   7  12
ENDBRANCH   5   7
ENDBRANCH   1   5
BRANCH   3  15
ATOM     15  C   UNL     1      -0.665  -4.739   6.615  0.00  0.00    +0.136 C 
ATOM     16  C   UNL     1       0.663  -4.879   7.361  0.00  0.00    +0.036 C 
BRANCH  15  17
ATOM     17  C   UNL     1      -1.764  -4.428   7.598  0.00  0.00    +0.126 A 
ATOM     18  C   UNL     1      -2.630  -5.325   8.089  0.00  0.00    +0.055 A 
ATOM     19  C   UNL     1      -3.512  -4.586   9.001  0.00  0.00    +0.020 A 
ATOM     20  C   UNL     1      -4.595  -4.935   9.806  0.00  0.00    +0.011 A 
ATOM     21  C   UNL     1      -5.217  -3.978  10.558  0.00  0.00    +0.001 A 
ATOM     22  C   UNL     1      -4.777  -2.662  10.524  0.00  0.00    +0.004 A 
ATOM     23  C   UNL     1      -3.708  -2.298   9.733  0.00  0.00    +0.047 A 
ATOM     24  C   UNL     1      -3.061  -3.256   8.962  0.00  0.00    +0.135 A 
ATOM     25  O   UNL     1      -2.013  -3.213   8.115  0.00  0.00    -0.458 OA
ENDBRANCH  15  17
ENDBRANCH   3  15
TORSDOF 5
