REMARK  Name = ZINC06721739
REMARK  8 active torsions:
REMARK  status: ('A' for Active; 'I' for Inactive)
REMARK    1  A    between atoms: C_1  and  C_2
REMARK    2  A    between atoms: C_2  and  O_3
REMARK    3  A    between atoms: O_3  and  C_4
REMARK    4  A    between atoms: C_7  and  C_10
REMARK    5  A    between atoms: C_16  and  C_18
REMARK    6  A    between atoms: C_23  and  O_24
REMARK    7  A    between atoms: C_29  and  O_32
REMARK    8  A    between atoms: O_32  and  C_33
REMARK                            x       y       z     vdW  Elec       q    Type
REMARK                         _______ _______ _______ _____ _____    ______ ____
ROOT
ATOM      1  C   UNL     1       1.527   0.036   6.140  0.00  0.00    +0.311 C 
ATOM      2  N   UNL     1       2.960  -0.242   5.990  0.00  0.00    -0.205 N 
ATOM      3  C   UNL     1       3.431  -1.345   5.121  0.00  0.00    +0.136 C 
ATOM      4  C   UNL     1       4.883  -1.539   5.576  0.00  0.00    +0.086 C 
ATOM      5  C   UNL     1       5.151  -0.325   6.442  0.00  0.00    +0.072 C 
ATOM      6  N   UNL     1       4.054   0.340   6.604  0.00  0.00    -0.184 NA
ATOM      7  C   UNL     1       2.573  -2.539   5.447  0.00  0.00    +0.020 A 
ATOM      8  C   UNL     1       2.990  -3.798   5.053  0.00  0.00    +0.009 A 
ATOM      9  C   UNL     1       2.216  -4.909   5.325  0.00  0.00    +0.004 A 
ATOM     10  C   UNL     1       1.015  -4.761   5.994  0.00  0.00    +0.049 A 
ATOM     11  C   UNL     1       0.596  -3.507   6.396  0.00  0.00    +0.162 A 
ATOM     12  C   UNL     1       1.380  -2.378   6.131  0.00  0.00    +0.170 A 
ATOM     13  O   UNL     1       0.928  -1.183   6.594  0.00  0.00    -0.461 OA
ENDROOT
BRANCH   1  17
ATOM     14  C   UNL     1      -0.149   1.182   2.380  0.00  0.00    +0.121 A 
ATOM     15  C   UNL     1       1.132   1.591   2.723  0.00  0.00    +0.046 A 
ATOM     16  C   UNL     1       1.669   1.224   3.942  0.00  0.00    +0.012 A 
ATOM     17  C   UNL     1       0.936   0.440   4.814  0.00  0.00    +0.013 A 
ATOM     18  C   UNL     1      -0.338   0.027   4.471  0.00  0.00    +0.012 A 
ATOM     19  C   UNL     1      -0.882   0.396   3.256  0.00  0.00    +0.046 A 
BRANCH  14  20
ATOM     20  O   UNL     1      -0.682   1.547   1.184  0.00  0.00    -0.492 OA
BRANCH  20  22
ATOM     21  C   UNL     1      -0.632   2.663  -0.959  0.00  0.00    +0.048 C 
ATOM     22  C   UNL     1       0.131   2.357   0.332  0.00  0.00    +0.225 C 
ENDBRANCH  20  22
ENDBRANCH  14  20
ENDBRANCH   1  17
BRANCH   5  23
ATOM     23  C   UNL     1       6.460   0.042   7.013  0.00  0.00    +0.039 A 
ATOM     24  C   UNL     1       7.579  -0.759   6.774  0.00  0.00    +0.013 A 
ATOM     25  C   UNL     1       8.802  -0.407   7.306  0.00  0.00    +0.001 A 
ATOM     26  C   UNL     1       8.923   0.731   8.085  0.00  0.00    +0.004 A 
ATOM     27  C   UNL     1       7.822   1.528   8.333  0.00  0.00    +0.046 A 
ATOM     28  C   UNL     1       6.588   1.193   7.802  0.00  0.00    +0.126 A 
BRANCH  28  29
ATOM     29  O   UNL     1       5.505   1.976   8.045  0.00  0.00    -0.506 OA
ATOM     30  H   UNL     1       5.010   1.728   8.838  0.00  0.00    +0.292 HD
ENDBRANCH  28  29
ENDBRANCH   5  23
BRANCH  11  31
ATOM     31  O   UNL     1      -0.587  -3.369   7.053  0.00  0.00    -0.491 OA
ATOM     32  C   UNL     1      -1.339  -4.560   7.292  0.00  0.00    +0.277 C 
ENDBRANCH  11  31
TORSDOF 6
