REMARK  Name = ZINC64871717
REMARK  6 active torsions:
REMARK  status: ('A' for Active; 'I' for Inactive)
REMARK    1  A    between atoms: C_1  and  C_2
REMARK    2  A    between atoms: C_2  and  C_3
REMARK    3  A    between atoms: C_2  and  C_4
REMARK    4  A    between atoms: N_15  and  C_18
REMARK    5  A    between atoms: C_18  and  C_19
REMARK    6  A    between atoms: N_21  and  C_22
REMARK                            x       y       z     vdW  Elec       q    Type
REMARK                         _______ _______ _______ _____ _____    ______ ____
ROOT
ATOM      1  C   UNL     1      -1.506  -0.513   0.088  0.00  0.00    +0.141 A 
ATOM      2  N   UNL     1      -2.392  -0.379   1.047  0.00  0.00    -0.133 NA
ATOM      3  N   UNL     1      -3.493  -0.958   0.714  0.00  0.00    -0.124 NA
ATOM      4  C   UNL     1      -3.360  -1.493  -0.479  0.00  0.00    +0.227 A 
ATOM      5  N   UNL     1      -2.086  -1.213  -0.904  0.00  0.00    -0.273 N 
ATOM      6  C   UNL     1      -1.656  -1.655  -2.154  0.00  0.00    +0.073 A 
ATOM      7  C   UNL     1      -0.366  -1.375  -2.586  0.00  0.00    +0.028 A 
ATOM      8  C   UNL     1       0.059  -1.813  -3.824  0.00  0.00    +0.002 A 
ATOM      9  C   UNL     1      -0.798  -2.532  -4.640  0.00  0.00    +0.002 A 
ATOM     10  C   UNL     1      -2.082  -2.816  -4.221  0.00  0.00    +0.028 A 
ATOM     11  C   UNL     1      -2.521  -2.380  -2.976  0.00  0.00    +0.069 A 
ATOM     12  N   UNL     1      -3.818  -2.670  -2.560  0.00  0.00    -0.295 N 
ATOM     13  C   UNL     1      -4.258  -2.262  -1.352  0.00  0.00    +0.297 A 
ATOM     14  O   UNL     1      -5.393  -2.516  -0.994  0.00  0.00    -0.264 OA
ENDROOT
BRANCH   1  16
ATOM     15  C   UNL     1      -0.064   1.378  -0.616  0.00  0.00    +0.015 C 
ATOM     16  C   UNL     1      -0.098   0.023   0.095  0.00  0.00    +0.051 C 
ATOM     17  C   UNL     1       0.376   0.194   1.540  0.00  0.00    +0.015 C 
ENDBRANCH   1  16
BRANCH  12  18
ATOM     18  C   UNL     1      -4.710  -3.433  -3.438  0.00  0.00    +0.221 C 
BRANCH  18  19
ATOM     19  C   UNL     1      -4.556  -4.905  -3.154  0.00  0.00    +0.237 C 
ATOM     20  O   UNL     1      -3.779  -5.280  -2.301  0.00  0.00    -0.274 OA
ATOM     21  N   UNL     1      -5.283  -5.804  -3.846  0.00  0.00    -0.282 N 
ATOM     22  H   UNL     1      -5.842  -5.512  -4.583  0.00  0.00    +0.155 HD
BRANCH  21  23
ATOM     23  C   UNL     1      -5.230  -7.162  -3.503  0.00  0.00    +0.069 A 
ATOM     24  C   UNL     1      -5.074  -7.537  -2.176  0.00  0.00    +0.029 A 
ATOM     25  C   UNL     1      -5.022  -8.876  -1.838  0.00  0.00    +0.040 A 
ATOM     26  C   UNL     1      -5.125  -9.844  -2.823  0.00  0.00    +0.126 A 
ATOM     27  C   UNL     1      -5.280  -9.473  -4.148  0.00  0.00    +0.078 A 
ATOM     28  C   UNL     1      -5.339  -8.135  -4.490  0.00  0.00    +0.147 A 
ATOM     29  F   UNL     1      -5.496  -7.773  -5.782  0.00  0.00    -0.203 F 
ATOM     30  F   UNL     1      -5.074 -11.152  -2.490  0.00  0.00    -0.205 F 
ENDBRANCH  21  23
ENDBRANCH  18  19
ENDBRANCH  12  18
TORSDOF 4
