REMARK  Name = ZINC04039873
REMARK  15 active torsions:
REMARK  status: ('A' for Active; 'I' for Inactive)
REMARK    1  A    between atoms: C_1  and  C_2
REMARK    2  A    between atoms: C_3  and  C_13
REMARK    3  A    between atoms: C_4  and  C_12
REMARK    4  A    between atoms: C_7  and  C_8
REMARK    5  A    between atoms: C_8  and  O_10
REMARK    6  A    between atoms: O_10  and  C_11
REMARK    7  A    between atoms: C_13  and  C_15
REMARK    8  A    between atoms: N_19  and  C_30
REMARK    9  A    between atoms: C_20  and  C_22
REMARK   10  A    between atoms: C_25  and  O_28
REMARK   11  A    between atoms: O_28  and  C_29
REMARK   12  A    between atoms: C_30  and  C_31
REMARK   13  A    between atoms: C_31  and  N_32
REMARK   14  A    between atoms: N_32  and  C_33
REMARK   15  A    between atoms: N_32  and  C_34
REMARK                            x       y       z     vdW  Elec       q    Type
REMARK                         _______ _______ _______ _____ _____    ______ ____
ROOT
ATOM      1  C   UNL     1      -0.330  -0.960  -4.086  0.00  0.00    +0.076 C 
ATOM      2  C   UNL     1      -0.096  -0.549  -5.354  0.00  0.00    +0.249 C 
ATOM      3  C   UNL     1      -0.197  -1.707  -6.266  0.00  0.00    +0.288 C 
ATOM      4  O   UNL     1      -0.038  -1.662  -7.470  0.00  0.00    -0.266 OA
ATOM      5  N   UNL     1      -0.490  -2.819  -5.567  0.00  0.00    -0.285 N 
ATOM      6  C   UNL     1      -0.591  -2.447  -4.151  0.00  0.00    +0.145 C 
ATOM      7  O   UNL     1       0.186   0.721  -5.727  0.00  0.00    -0.282 OA
ENDROOT
BRANCH   6   8
ATOM      8  C   UNL     1      -1.974  -2.753  -3.636  0.00  0.00    -0.022 A 
ATOM      9  C   UNL     1      -3.081  -2.454  -4.409  0.00  0.00    +0.009 A 
ATOM     10  C   UNL     1      -4.349  -2.733  -3.939  0.00  0.00    +0.046 A 
ATOM     11  C   UNL     1      -4.513  -3.313  -2.689  0.00  0.00    +0.120 A 
ATOM     12  C   UNL     1      -3.401  -3.612  -1.915  0.00  0.00    +0.046 A 
ATOM     13  C   UNL     1      -2.134  -3.336  -2.392  0.00  0.00    +0.009 A 
BRANCH  11  14
ATOM     14  O   UNL     1      -5.760  -3.588  -2.224  0.00  0.00    -0.495 OA
ATOM     15  C   UNL     1      -5.852  -4.185  -0.929  0.00  0.00    +0.277 C 
ENDBRANCH  11  14
ENDBRANCH   6   8
BRANCH   1  16
ATOM     16  C   UNL     1      -0.324  -0.125  -2.881  0.00  0.00    +0.197 C 
ATOM     17  O   UNL     1      -1.376   0.211  -2.368  0.00  0.00    -0.287 OA
BRANCH  16  20
ATOM     18  C   UNL     1       0.022   1.867  -0.419  0.00  0.00    +0.047 C 
ATOM     19  C   UNL     1       1.121   1.191  -1.199  0.00  0.00    -0.008 A 
ATOM     20  C   UNL     1       0.955   0.309  -2.290  0.00  0.00    +0.046 A 
ATOM     21  C   UNL     1       2.221  -0.072  -2.700  0.00  0.00    +0.025 A 
ATOM     22  N   UNL     1       3.122   0.536  -1.912  0.00  0.00    -0.352 N 
ATOM     23  H   UNL     1       4.085   0.443  -1.983  0.00  0.00    +0.166 HD
ATOM     24  C   UNL     1       2.462   1.319  -0.989  0.00  0.00    +0.128 A 
ATOM     25  C   UNL     1       2.535  -1.010  -3.837  0.00  0.00    +0.064 C 
BRANCH  24  26
ATOM     26  C   UNL     1       3.095   2.146   0.045  0.00  0.00    +0.356 C 
ATOM     27  O   UNL     1       2.407   2.795   0.809  0.00  0.00    -0.243 OA
BRANCH  26  28
ATOM     28  O   UNL     1       4.439   2.186   0.147  0.00  0.00    -0.463 OA
ATOM     29  C   UNL     1       4.987   3.012   1.176  0.00  0.00    +0.280 C 
ENDBRANCH  26  28
ENDBRANCH  24  26
ENDBRANCH  16  20
ENDBRANCH   1  16
BRANCH   5  30
ATOM     30  C   UNL     1      -0.671  -4.163  -6.121  0.00  0.00    +0.090 C 
BRANCH  30  31
ATOM     31  C   UNL     1       0.674  -4.893  -6.138  0.00  0.00    -0.060 C 
BRANCH  31  32
ATOM     32  N   UNL     1       0.493  -6.240  -6.693  0.00  0.00    +0.377 N 
ATOM     33  C   UNL     1       0.087  -6.139  -8.102  0.00  0.00    -0.097 C 
ATOM     34  C   UNL     1       1.757  -6.983  -6.600  0.00  0.00    -0.097 C 
ATOM     35  H   UNL     1      -0.222  -6.726  -6.172  0.00  0.00    -0.083 HD
ENDBRANCH  31  32
ENDBRANCH  30  31
ENDBRANCH   5  30
TORSDOF 9
