REMARK  Name = ZINC05700436
REMARK  8 active torsions:
REMARK  status: ('A' for Active; 'I' for Inactive)
REMARK    1  A    between atoms: C_1  and  C_2
REMARK    2  A    between atoms: C_7  and  N_8
REMARK    3  A    between atoms: N_8  and  C_9
REMARK    4  A    between atoms: C_9  and  N_11
REMARK    5  A    between atoms: N_11  and  N_12
REMARK    6  A    between atoms: C_13  and  C_15
REMARK    7  A    between atoms: C_15  and  N_16
REMARK    8  A    between atoms: C_17  and  C_19
REMARK                            x       y       z     vdW  Elec       q    Type
REMARK                         _______ _______ _______ _____ _____    ______ ____
ROOT
ATOM      1  N   UNL     1      -8.498   0.999   2.622  0.00  0.00    -0.234 N 
ATOM      2  C   UNL     1      -7.213   1.359   2.432  0.00  0.00    +0.246 C 
ATOM      3  O   UNL     1      -6.758   2.316   3.022  0.00  0.00    -0.273 OA
ATOM      4  H   UNL     1      -8.862   0.234   2.149  0.00  0.00    +0.173 HD
ENDROOT
BRANCH   1   5
ATOM      5  N   UNL     1      -9.308   1.730   3.501  0.00  0.00    -0.246 N 
ATOM      6  H   UNL     1      -8.944   2.495   3.973  0.00  0.00    +0.172 HD
BRANCH   5   7
ATOM      7  C   UNL     1     -10.592   1.370   3.691  0.00  0.00    +0.151 C 
ATOM      8  S   UNL     1     -11.582   2.263   4.765  0.00  0.00    -0.017 S 
BRANCH   7   9
ATOM      9  N   UNL     1     -11.098   0.307   3.034  0.00  0.00    -0.296 N 
ATOM     10  H   UNL     1     -10.563  -0.150   2.367  0.00  0.00    +0.154 HD
BRANCH   9  17
ATOM     11  C   UNL     1     -12.792  -0.367   0.850  0.00  0.00    +0.045 C 
ATOM     12  C   UNL     1     -13.255  -0.476   2.280  0.00  0.00    -0.029 A 
ATOM     13  C   UNL     1     -14.534  -0.914   2.561  0.00  0.00    +0.005 A 
ATOM     14  C   UNL     1     -14.959  -1.014   3.873  0.00  0.00    +0.000 A 
ATOM     15  C   UNL     1     -14.105  -0.677   4.907  0.00  0.00    +0.002 A 
ATOM     16  C   UNL     1     -12.823  -0.244   4.633  0.00  0.00    +0.023 A 
ATOM     17  C   UNL     1     -12.395  -0.137   3.316  0.00  0.00    +0.036 A 
ENDBRANCH   9  17
ENDBRANCH   7   9
ENDBRANCH   5   7
ENDBRANCH   1   5
BRANCH   2  18
ATOM     18  C   UNL     1      -6.342   0.573   1.486  0.00  0.00    +0.201 C 
BRANCH  18  19
ATOM     19  N   UNL     1      -5.000   1.160   1.456  0.00  0.00    -0.306 N 
ATOM     20  C   UNL     1      -4.045   0.619   0.673  0.00  0.00    +0.220 C 
ATOM     21  O   UNL     1      -4.297  -0.354  -0.006  0.00  0.00    -0.275 OA
ATOM     22  H   UNL     1      -4.799   1.939   1.998  0.00  0.00    +0.149 HD
BRANCH  20  23
ATOM     23  C   UNL     1      -2.665   1.223   0.642  0.00  0.00    +0.048 C 
ATOM     24  C   UNL     1      -1.781   0.425  -0.318  0.00  0.00    +0.019 C 
ATOM     25  C   UNL     1      -0.380   1.039  -0.350  0.00  0.00    -0.009 C 
ATOM     26  C   UNL     1       0.227   0.999   1.054  0.00  0.00    +0.007 C 
ATOM     27  C   UNL     1      -0.658   1.797   2.014  0.00  0.00    -0.009 C 
ATOM     28  C   UNL     1      -2.059   1.183   2.046  0.00  0.00    +0.019 C 
ATOM     29  C   UNL     1      -0.747   3.248   1.538  0.00  0.00    +0.007 C 
ATOM     30  C   UNL     1      -1.353   3.288   0.134  0.00  0.00    -0.009 C 
ATOM     31  C   UNL     1      -0.469   2.490  -0.826  0.00  0.00    +0.007 C 
ATOM     32  C   UNL     1      -2.754   2.675   0.166  0.00  0.00    +0.019 C 
ENDBRANCH  20  23
ENDBRANCH  18  19
ENDBRANCH   2  18
TORSDOF 7
