REMARK  Name = ZINC63794425
REMARK  7 active torsions:
REMARK  status: ('A' for Active; 'I' for Inactive)
REMARK    1  A    between atoms: C_1  and  N_2
REMARK    2  A    between atoms: N_2  and  C_3
REMARK    3  A    between atoms: C_3  and  C_4
REMARK    4  A    between atoms: C_10  and  C_12
REMARK    5  A    between atoms: C_12  and  N_13
REMARK    6  A    between atoms: C_16  and  C_21
REMARK    7  A    between atoms: C_21  and  C_22
REMARK                            x       y       z     vdW  Elec       q    Type
REMARK                         _______ _______ _______ _____ _____    ______ ____
ROOT
ATOM      1  N   UNL     1      -0.020  -0.857  -3.588  0.00  0.00    -0.216 N 
ATOM      2  C   UNL     1       1.096  -1.335  -4.174  0.00  0.00    +0.244 C 
ATOM      3  O   UNL     1       2.244  -1.073  -3.885  0.00  0.00    -0.273 OA
ATOM      4  C   UNL     1       0.617  -2.268  -5.268  0.00  0.00    +0.165 C 
ATOM      5  N   UNL     1      -0.851  -2.202  -5.162  0.00  0.00    -0.287 N 
ATOM      6  C   UNL     1      -1.126  -1.358  -4.152  0.00  0.00    +0.310 C 
ATOM      7  O   UNL     1      -2.253  -1.078  -3.792  0.00  0.00    -0.252 OA
ATOM      8  H   UNL     1      -1.493  -2.677  -5.712  0.00  0.00    +0.151 HD
ENDROOT
BRANCH   1   9
ATOM      9  C   UNL     1      -0.023   0.089  -2.470  0.00  0.00    +0.213 C 
BRANCH   9  12
ATOM     10  C   UNL     1      -0.018   1.461   0.010  0.00  0.00    +0.132 C 
ATOM     11  N   UNL     1       0.002  -0.004   0.002  0.00  0.00    -0.302 N 
ATOM     12  C   UNL     1       0.000  -0.672  -1.169  0.00  0.00    +0.233 C 
ATOM     13  O   UNL     1       0.017  -1.884  -1.175  0.00  0.00    -0.274 OA
BRANCH  11  14
ATOM     14  C   UNL     1       0.024  -0.743   1.267  0.00  0.00    +0.122 C 
BRANCH  14  15
ATOM     15  C   UNL     1      -1.411  -1.020   1.720  0.00  0.00    +0.072 C 
ATOM     16  C   UNL     1      -1.443  -1.900   2.998  0.00  0.00    +0.043 C 
ATOM     17  C   UNL     1      -2.563  -2.888   2.933  0.00  0.00    -0.019 C 
ATOM     18  C   UNL     1      -3.121  -3.171   1.772  0.00  0.00    +0.036 C 
ATOM     19  S   UNL     1      -2.276  -2.164   0.564  0.00  0.00    -0.128 S 
ENDBRANCH  14  15
ENDBRANCH  11  14
ENDBRANCH   9  12
ENDBRANCH   1   9
BRANCH   4  20
ATOM     20  C   UNL     1       1.084  -1.775  -6.639  0.00  0.00    +0.065 C 
BRANCH  20  21
ATOM     21  C   UNL     1       0.702  -2.783  -7.692  0.00  0.00    -0.039 C 
ATOM     22  C   UNL     1      -0.405  -2.766  -8.470  0.00  0.00    -0.001 A 
ATOM     23  C   UNL     1      -1.540  -1.840  -8.564  0.00  0.00    +0.010 A 
ATOM     24  C   UNL     1      -2.520  -2.093  -9.461  0.00  0.00    +0.001 A 
ATOM     25  C   UNL     1      -2.480  -3.215 -10.300  0.00  0.00    +0.002 A 
ATOM     26  C   UNL     1      -1.470  -4.111 -10.272  0.00  0.00    +0.026 A 
ATOM     27  C   UNL     1      -0.385  -3.943  -9.368  0.00  0.00    +0.043 A 
ATOM     28  N   UNL     1       0.691  -4.660  -9.153  0.00  0.00    -0.380 N 
ATOM     29  C   UNL     1       1.480  -4.014  -8.098  0.00  0.00    +0.144 C 
ATOM     30  H   UNL     1       0.928  -5.478  -9.617  0.00  0.00    +0.160 HD
ENDBRANCH  20  21
ENDBRANCH   4  20
TORSDOF 6
