REMARK  Name = ZINC36956670
REMARK  7 active torsions:
REMARK  status: ('A' for Active; 'I' for Inactive)
REMARK    1  A    between atoms: C_1  and  C_2
REMARK    2  A    between atoms: C_2  and  C_3
REMARK    3  A    between atoms: C_2  and  C_4
REMARK    4  A    between atoms: C_2  and  C_5
REMARK    5  A    between atoms: C_10  and  N_11
REMARK    6  A    between atoms: N_11  and  C_12
REMARK    7  A    between atoms: N_21  and  C_22
REMARK                            x       y       z     vdW  Elec       q    Type
REMARK                         _______ _______ _______ _____ _____    ______ ____
ROOT
ATOM      1  N   UNL     1       0.134  -2.731  -0.676  0.00  0.00    -0.337 N 
ATOM      2  H   UNL     1      -0.264  -2.437   0.158  0.00  0.00    +0.147 HD
ENDROOT
BRANCH   1   3
ATOM      3  C   UNL     1       0.087  -4.147  -1.050  0.00  0.00    +0.104 C 
ATOM      4  C   UNL     1      -0.057  -5.010   0.209  0.00  0.00    +0.027 C 
ATOM      5  C   UNL     1      -0.364  -6.455  -0.193  0.00  0.00    +0.008 C 
ATOM      6  C   UNL     1      -1.785  -6.537  -0.764  0.00  0.00    +0.055 C 
ATOM      7  C   UNL     1      -1.940  -5.461  -1.810  0.00  0.00    +0.044 A 
ATOM      8  C   UNL     1      -1.105  -4.398  -1.939  0.00  0.00    +0.013 A 
ATOM      9  C   UNL     1      -1.555  -3.624  -3.007  0.00  0.00    +0.140 A 
ATOM     10  N   UNL     1      -2.622  -4.199  -3.504  0.00  0.00    -0.179 NA
ATOM     11  N   UNL     1      -2.884  -5.361  -2.760  0.00  0.00    -0.271 N 
ATOM     12  C   UNL     1      -3.988  -6.297  -2.982  0.00  0.00    +0.172 C 
ENDBRANCH   1   3
BRANCH   1  18
ATOM     13  C   UNL     1       0.686  -0.449  -1.232  0.00  0.00    -0.021 A 
ATOM     14  C   UNL     1       1.304   0.463  -2.066  0.00  0.00    +0.006 A 
ATOM     15  C   UNL     1       1.984   0.027  -3.187  0.00  0.00    +0.000 A 
ATOM     16  C   UNL     1       2.049  -1.324  -3.479  0.00  0.00    +0.002 A 
ATOM     17  C   UNL     1       1.433  -2.241  -2.650  0.00  0.00    +0.023 A 
ATOM     18  C   UNL     1       0.753  -1.806  -1.519  0.00  0.00    +0.031 A 
BRANCH  13  20
ATOM     19  C   UNL     1      -0.021   1.557   0.043  0.00  0.00    +0.015 C 
ATOM     20  C   UNL     1      -0.056   0.028  -0.010  0.00  0.00    -0.011 C 
ATOM     21  C   UNL     1       0.609  -0.541   1.244  0.00  0.00    +0.015 C 
ATOM     22  C   UNL     1      -1.509  -0.447  -0.077  0.00  0.00    +0.015 C 
ENDBRANCH  13  20
ENDBRANCH   1  18
TORSDOF 3
