REMARK  Name = ZINC40377247
REMARK  7 active torsions:
REMARK  status: ('A' for Active; 'I' for Inactive)
REMARK    1  A    between atoms: C_1  and  C_2
REMARK    2  A    between atoms: C_2  and  C_3
REMARK    3  A    between atoms: C_2  and  S_4
REMARK    4  A    between atoms: S_4  and  N_7
REMARK    5  A    between atoms: N_7  and  C_8
REMARK    6  A    between atoms: C_8  and  C_14
REMARK    7  A    between atoms: N_15  and  O_16
REMARK                            x       y       z     vdW  Elec       q    Type
REMARK                         _______ _______ _______ _____ _____    ______ ____
ROOT
ATOM      1  C   UNL     1      -2.050  -0.532  -2.571  0.00  0.00    +0.098 C 
ATOM      2  C   UNL     1      -2.442  -2.009  -2.497  0.00  0.00    +0.031 C 
ATOM      3  C   UNL     1      -3.965  -2.128  -2.404  0.00  0.00    +0.002 C 
ATOM      4  C   UNL     1      -4.603  -1.492  -3.640  0.00  0.00    +0.000 C 
ATOM      5  C   UNL     1      -4.210  -0.015  -3.714  0.00  0.00    +0.002 C 
ATOM      6  C   UNL     1      -2.688   0.104  -3.808  0.00  0.00    +0.031 C 
ENDROOT
BRANCH   1   7
ATOM      7  C   UNL     1      -0.550  -0.415  -2.663  0.00  0.00    +0.153 C 
ATOM      8  N   UNL     1      -0.010   0.199  -3.663  0.00  0.00    -0.075 NA
ATOM      9  N   UNL     1       0.245  -0.963  -1.681  0.00  0.00    -0.342 N 
ATOM     10  H   UNL     1      -0.155  -1.487  -0.969  0.00  0.00    +0.144 HD
ATOM     11  H   UNL     1       1.205  -0.825  -1.700  0.00  0.00    +0.144 HD
BRANCH   8  12
ATOM     12  O   UNL     1       1.399   0.309  -3.749  0.00  0.00    -0.408 OA
ATOM     13  H   UNL     1       1.709   0.784  -4.532  0.00  0.00    +0.328 HD
ENDBRANCH   8  12
ENDBRANCH   1   7
BRANCH   1  14
ATOM     14  N   UNL     1      -2.521   0.159  -1.368  0.00  0.00    -0.181 NA
ATOM     15  H   UNL     1      -3.276  -0.193  -0.871  0.00  0.00    +0.149 HD
BRANCH  14  16
ATOM     16  S   UNL     1      -1.764   1.540  -0.857  0.00  0.00    +0.033 S 
ATOM     17  O   UNL     1      -0.396   1.179  -0.732  0.00  0.00    -0.158 OA
ATOM     18  O   UNL     1      -2.509   1.964   0.277  0.00  0.00    -0.158 OA
BRANCH  16  20
ATOM     19  C   UNL     1      -3.465   3.019  -2.407  0.00  0.00    +0.033 C 
ATOM     20  C   UNL     1      -1.976   2.719  -2.220  0.00  0.00    +0.142 C 
ATOM     21  C   UNL     1      -1.232   4.015  -1.893  0.00  0.00    +0.033 C 
ENDBRANCH  16  20
ENDBRANCH  14  16
ENDBRANCH   1  14
TORSDOF 5
