REMARK  Name = ZINC12660519
REMARK  4 active torsions:
REMARK  status: ('A' for Active; 'I' for Inactive)
REMARK    1  A    between atoms: C_11  and  C_15
REMARK    2  A    between atoms: C_18  and  O_21
REMARK    3  A    between atoms: O_21  and  C_22
REMARK    4  A    between atoms: C_22  and  C_23
REMARK                            x       y       z     vdW  Elec       q    Type
REMARK                         _______ _______ _______ _____ _____    ______ ____
ROOT
ATOM      1  C   UNL     1      -0.013   1.076   0.008  0.00  0.00    +0.001 A 
ATOM      2  C   UNL     1      -1.227   1.748   0.017  0.00  0.00    +0.002 A 
ATOM      3  C   UNL     1      -1.267   3.125   0.031  0.00  0.00    +0.026 A 
ATOM      4  C   UNL     1      -0.082   3.852   0.024  0.00  0.00    +0.047 A 
ATOM      5  C   UNL     1       1.149   3.166   0.008  0.00  0.00    +0.003 A 
ATOM      6  C   UNL     1       1.164   1.769   0.000  0.00  0.00    +0.010 A 
ATOM      7  C   UNL     1       2.177   4.198   0.002  0.00  0.00    -0.022 A 
ATOM      8  C   UNL     1       1.552   5.393   0.015  0.00  0.00    +0.010 A 
ATOM      9  N   UNL     1       0.201   5.201   0.029  0.00  0.00    -0.359 N 
ATOM     10  H   UNL     1      -0.462   5.909   0.039  0.00  0.00    +0.166 HD
ATOM     11  C   UNL     1       2.295   6.709   0.018  0.00  0.00    +0.007 C 
ATOM     12  C   UNL     1       4.290   5.388  -0.413  0.00  0.00    -0.076 C 
ATOM     13  C   UNL     1       3.676   4.037  -0.019  0.00  0.00    +0.018 C 
ATOM     14  N   UNL     1       3.699   6.460   0.414  0.00  0.00    +0.387 N 
ATOM     15  H   UNL     1       3.726   6.179   1.401  0.00  0.00    -0.084 HD
ATOM     16  H   UNL     1       4.243   7.322   0.288  0.00  0.00    -0.084 HD
ENDROOT
BRANCH  11  17
ATOM     17  C   UNL     1       1.658   7.649   1.009  0.00  0.00    -0.056 A 
ATOM     18  C   UNL     1       1.939   7.524   2.357  0.00  0.00    +0.006 A 
ATOM     19  C   UNL     1       1.361   8.389   3.267  0.00  0.00    +0.046 A 
ATOM     20  C   UNL     1       0.490   9.375   2.828  0.00  0.00    +0.121 A 
ATOM     21  C   UNL     1       0.205   9.494   1.475  0.00  0.00    +0.046 A 
ATOM     22  C   UNL     1       0.790   8.632   0.569  0.00  0.00    +0.006 A 
BRANCH  20  23
ATOM     23  O   UNL     1      -0.085  10.222   3.721  0.00  0.00    -0.483 OA
BRANCH  23  24
ATOM     24  C   UNL     1       0.254  10.041   5.098  0.00  0.00    +0.324 C 
BRANCH  24  25
ATOM     25  C   UNL     1      -0.473  11.063   5.933  0.00  0.00    +0.248 C 
ATOM     26  O   UNL     1      -1.208  11.868   5.402  0.00  0.00    -0.272 OA
ATOM     27  N   UNL     1      -0.305  11.083   7.270  0.00  0.00    -0.327 N 
ATOM     28  H   UNL     1       0.283  10.439   7.695  0.00  0.00    +0.145 HD
ATOM     29  H   UNL     1      -0.773  11.741   7.808  0.00  0.00    +0.145 HD
ENDBRANCH  24  25
ENDBRANCH  23  24
ENDBRANCH  20  23
ENDBRANCH  11  17
TORSDOF 4
