REMARK  Name = ZINC02387602
REMARK  7 active torsions:
REMARK  status: ('A' for Active; 'I' for Inactive)
REMARK    1  A    between atoms: C_1  and  C_2
REMARK    2  A    between atoms: C_2  and  C_3
REMARK    3  A    between atoms: C_6  and  N_9
REMARK    4  A    between atoms: C_10  and  N_31
REMARK    5  A    between atoms: C_11  and  C_22
REMARK    6  A    between atoms: N_24  and  C_25
REMARK    7  A    between atoms: C_25  and  C_26
REMARK                            x       y       z     vdW  Elec       q    Type
REMARK                         _______ _______ _______ _____ _____    ______ ____
ROOT
ATOM      1  N   UNL     1      -3.161   2.975  -0.698  0.00  0.00    -0.280 N 
ATOM      2  C   UNL     1      -2.018   2.344  -1.090  0.00  0.00    +0.117 A 
ATOM      3  C   UNL     1      -1.290   1.927   0.019  0.00  0.00    +0.104 A 
ATOM      4  C   UNL     1      -2.053   2.350   1.204  0.00  0.00    +0.123 A 
ATOM      5  C   UNL     1      -3.246   3.020   0.680  0.00  0.00    +0.166 A 
ATOM      6  N   UNL     1      -4.133   3.513   1.518  0.00  0.00    -0.225 NA
ATOM      7  C   UNL     1      -3.937   3.400   2.838  0.00  0.00    +0.092 A 
ATOM      8  C   UNL     1      -4.879   3.924   3.742  0.00  0.00    +0.030 A 
ATOM      9  C   UNL     1      -4.673   3.805   5.082  0.00  0.00    +0.002 A 
ATOM     10  C   UNL     1      -3.537   3.168   5.578  0.00  0.00    +0.002 A 
ATOM     11  C   UNL     1      -2.603   2.648   4.735  0.00  0.00    +0.030 A 
ATOM     12  C   UNL     1      -2.782   2.752   3.343  0.00  0.00    +0.090 A 
ATOM     13  N   UNL     1      -1.870   2.244   2.505  0.00  0.00    -0.241 NA
ENDROOT
BRANCH   1  17
ATOM     14  C   UNL     1      -5.998   4.569  -3.302  0.00  0.00    -0.047 A 
ATOM     15  C   UNL     1      -4.722   5.100  -3.264  0.00  0.00    +0.005 A 
ATOM     16  C   UNL     1      -3.780   4.574  -2.402  0.00  0.00    +0.026 A 
ATOM     17  C   UNL     1      -4.115   3.512  -1.573  0.00  0.00    +0.050 A 
ATOM     18  C   UNL     1      -5.396   2.978  -1.618  0.00  0.00    +0.026 A 
ATOM     19  C   UNL     1      -6.335   3.511  -2.479  0.00  0.00    +0.005 A 
BRANCH  14  21
ATOM     20  C   UNL     1      -6.955   4.412  -5.585  0.00  0.00    +0.009 C 
ATOM     21  C   UNL     1      -7.024   5.146  -4.244  0.00  0.00    +0.032 C 
ENDBRANCH  14  21
ENDBRANCH   1  17
BRANCH   3  22
ATOM     22  C   UNL     1      -0.014   1.214   0.009  0.00  0.00    +0.250 C 
ATOM     23  O   UNL     1       0.002  -0.004   0.002  0.00  0.00    -0.270 OA
ATOM     24  N   UNL     1       1.143   1.903   0.001  0.00  0.00    -0.307 N 
ATOM     25  H   UNL     1       1.130   2.873   0.007  0.00  0.00    +0.149 HD
BRANCH  24  26
ATOM     26  C   UNL     1       2.422   1.188  -0.015  0.00  0.00    +0.147 C 
BRANCH  26  27
ATOM     27  C   UNL     1       3.554   2.183  -0.020  0.00  0.00    +0.007 A 
ATOM     28  C   UNL     1       4.202   2.745   1.030  0.00  0.00    +0.013 A 
ATOM     29  C   UNL     1       5.225   3.641   0.784  0.00  0.00    +0.008 A 
ATOM     30  C   UNL     1       5.544   3.939  -0.499  0.00  0.00    +0.045 A 
ATOM     31  S   UNL     1       4.385   2.933  -1.411  0.00  0.00    -0.100 S 
ENDBRANCH  26  27
ENDBRANCH  24  26
ENDBRANCH   3  22
BRANCH   2  32
ATOM     32  N   UNL     1      -1.641   2.146  -2.393  0.00  0.00    -0.343 N 
ATOM     33  H   UNL     1      -0.813   1.683  -2.593  0.00  0.00    +0.144 HD
ATOM     34  H   UNL     1      -2.204   2.467  -3.115  0.00  0.00    +0.144 HD
ENDBRANCH   2  32
TORSDOF 6
