REMARK  Name = ZINC15708752
REMARK  8 active torsions:
REMARK  status: ('A' for Active; 'I' for Inactive)
REMARK    1  A    between atoms: C_6  and  N_7
REMARK    2  A    between atoms: N_7  and  C_8
REMARK    3  A    between atoms: C_8  and  N_10
REMARK    4  A    between atoms: N_10  and  C_11
REMARK    5  A    between atoms: C_20  and  C_23
REMARK    6  A    between atoms: C_23  and  C_24
REMARK    7  A    between atoms: C_24  and  C_25
REMARK    8  A    between atoms: C_30  and  O_33
REMARK                            x       y       z     vdW  Elec       q    Type
REMARK                         _______ _______ _______ _____ _____    ______ ____
ROOT
ATOM      1  C   UNL     1      -4.260   5.222   3.903  0.00  0.00    +0.054 C 
ATOM      2  C   UNL     1      -5.644   5.704   4.424  0.00  0.00    +0.014 C 
ATOM      3  C   UNL     1      -6.610   4.870   3.568  0.00  0.00    +0.021 C 
ATOM      4  C   UNL     1      -7.975   5.458   3.404  0.00  0.00    +0.200 C 
ATOM      5  O   UNL     1      -8.498   6.060   4.318  0.00  0.00    -0.278 OA
ATOM      6  N   UNL     1      -8.617   5.313   2.229  0.00  0.00    -0.318 N 
ATOM      7  C   UNL     1      -8.033   4.724   1.032  0.00  0.00    +0.089 C 
ATOM      8  C   UNL     1      -6.681   4.052   1.319  0.00  0.00    -0.050 C 
ATOM      9  C   UNL     1      -4.542   4.651   2.490  0.00  0.00    -0.055 C 
ATOM     10  H   UNL     1      -9.534   5.623   2.176  0.00  0.00    +0.149 HD
ATOM     11  N   UNL     1      -5.968   4.967   2.282  0.00  0.00    +0.391 N 
ATOM     12  H   UNL     1      -6.041   5.928   1.927  0.00  0.00    -0.080 HD
ENDROOT
BRANCH   1  13
ATOM     13  N   UNL     1      -3.325   6.347   3.821  0.00  0.00    -0.325 N 
ATOM     14  H   UNL     1      -3.662   7.254   3.760  0.00  0.00    +0.148 HD
BRANCH  13  15
ATOM     15  C   UNL     1      -1.996   6.121   3.830  0.00  0.00    +0.135 C 
ATOM     16  S   UNL     1      -1.401   4.519   3.938  0.00  0.00    -0.019 S 
BRANCH  15  17
ATOM     17  N   UNL     1      -1.136   7.156   3.755  0.00  0.00    -0.297 N 
ATOM     18  H   UNL     1      -1.470   8.066   3.777  0.00  0.00    +0.154 HD
BRANCH  17  24
ATOM     19  C   UNL     1       1.140   7.696   4.357  0.00  0.00    +0.025 A 
ATOM     20  C   UNL     1       2.495   7.454   4.249  0.00  0.00    +0.022 A 
ATOM     21  C   UNL     1       2.956   6.444   3.424  0.00  0.00    +0.041 A 
ATOM     22  C   UNL     1       2.060   5.669   2.708  0.00  0.00    +0.022 A 
ATOM     23  C   UNL     1       0.703   5.903   2.816  0.00  0.00    +0.025 A 
ATOM     24  C   UNL     1       0.238   6.916   3.644  0.00  0.00    +0.033 A 
ATOM     25 CL   UNL     1       4.661   6.148   3.285  0.00  0.00    -0.084 Cl
ENDBRANCH  17  24
ENDBRANCH  15  17
ENDBRANCH  13  15
ENDBRANCH   1  13
BRANCH   8  26
ATOM     26  C   UNL     1      -5.893   3.892   0.018  0.00  0.00    -0.005 C 
BRANCH  26  27
ATOM     27  C   UNL     1      -6.597   2.876  -0.884  0.00  0.00    +0.094 C 
BRANCH  27  28
ATOM     28  C   UNL     1      -5.881   2.798  -2.208  0.00  0.00    +0.216 C 
ATOM     29  O   UNL     1      -4.904   3.487  -2.410  0.00  0.00    -0.276 OA
ATOM     30  N   UNL     1      -6.327   1.962  -3.166  0.00  0.00    -0.301 N 
ATOM     31  C   UNL     1      -5.639   1.874  -4.462  0.00  0.00    +0.110 C 
ATOM     32  C   UNL     1      -5.293   0.408  -4.739  0.00  0.00    +0.050 C 
ATOM     33  C   UNL     1      -6.565  -0.439  -4.643  0.00  0.00    +0.118 C 
ATOM     34  C   UNL     1      -7.142  -0.337  -3.229  0.00  0.00    +0.050 C 
ATOM     35  C   UNL     1      -7.509   1.121  -2.936  0.00  0.00    +0.110 C 
BRANCH  33  36
ATOM     36  O   UNL     1      -6.251  -1.803  -4.932  0.00  0.00    -0.392 OA
ATOM     37  H   UNL     1      -7.011  -2.399  -4.890  0.00  0.00    +0.210 HD
ENDBRANCH  33  36
ENDBRANCH  27  28
ENDBRANCH  26  27
ENDBRANCH   8  26
TORSDOF 8
