REMARK  Name = ZINC20835763
REMARK  11 active torsions:
REMARK  status: ('A' for Active; 'I' for Inactive)
REMARK    1  A    between atoms: C_1  and  C_2
REMARK    2  A    between atoms: C_2  and  C_25
REMARK    3  A    between atoms: N_3  and  N_4
REMARK    4  A    between atoms: C_7  and  S_10
REMARK    5  A    between atoms: S_10  and  C_11
REMARK    6  A    between atoms: C_11  and  C_12
REMARK    7  A    between atoms: N_14  and  C_15
REMARK    8  A    between atoms: C_17  and  C_23
REMARK    9  A    between atoms: C_17  and  C_24
REMARK   10  A    between atoms: C_19  and  C_21
REMARK   11  A    between atoms: C_19  and  C_22
REMARK                            x       y       z     vdW  Elec       q    Type
REMARK                         _______ _______ _______ _____ _____    ______ ____
ROOT
ATOM      1  S   UNL     1      -5.365  -5.922  -0.003  0.00  0.00    -0.075 S 
ENDROOT
BRANCH   1   5
ATOM      2  N   UNL     1      -3.690  -0.991   0.015  0.00  0.00    -0.205 N 
ATOM      3  C   UNL     1      -3.677  -2.378   0.008  0.00  0.00    +0.232 A 
ATOM      4  N   UNL     1      -4.776  -3.192   0.009  0.00  0.00    -0.186 NA
ATOM      5  C   UNL     1      -4.342  -4.487   0.000  0.00  0.00    +0.211 A 
ATOM      6  N   UNL     1      -3.030  -4.476  -0.006  0.00  0.00    -0.144 NA
ATOM      7  N   UNL     1      -2.610  -3.139  -0.007  0.00  0.00    -0.245 N 
ATOM      8  H   UNL     1      -4.648  -0.450   0.023  0.00  0.00    +0.177 HD
ATOM      9  H   UNL     1      -1.609  -2.682  -0.016  0.00  0.00    +0.192 HD
BRANCH   2  12
ATOM     10  C   UNL     1      -3.807   1.761   0.030  0.00  0.00    +0.069 C 
ATOM     11  C   UNL     1      -2.495   1.020   0.020  0.00  0.00    +0.081 C 
ATOM     12  N   UNL     1      -2.483  -0.279   0.013  0.00  0.00    -0.183 NA
BRANCH  11  13
ATOM     13  C   UNL     1      -1.226   1.768   0.017  0.00  0.00    +0.086 A 
ATOM     14  C   UNL     1      -0.013   1.076   0.008  0.00  0.00    +0.029 A 
ATOM     15  C   UNL     1       1.169   1.793   0.001  0.00  0.00    +0.004 A 
ATOM     16  C   UNL     1       1.104   3.181   0.008  0.00  0.00    +0.020 A 
ATOM     17  C   UNL     1      -0.131   3.802   0.023  0.00  0.00    +0.111 A 
ATOM     18  N   UNL     1      -1.244   3.098   0.030  0.00  0.00    -0.254 NA
ENDBRANCH  11  13
ENDBRANCH   2  12
ENDBRANCH   1   5
BRANCH   1  19
ATOM     19  C   UNL     1      -4.096  -7.213  -0.016  0.00  0.00    +0.173 C 
BRANCH  19  20
ATOM     20  C   UNL     1      -4.757  -8.567  -0.021  0.00  0.00    +0.224 C 
ATOM     21  O   UNL     1      -5.967  -8.651  -0.016  0.00  0.00    -0.275 OA
ATOM     22  N   UNL     1      -4.004  -9.684  -0.030  0.00  0.00    -0.312 N 
ATOM     23  H   UNL     1      -2.906  -9.608  -0.035  0.00  0.00    +0.149 HD
BRANCH  22  24
ATOM     24  C   UNL     1      -4.648 -11.004  -0.035  0.00  0.00    +0.070 C 
ATOM     25  C   UNL     1      -4.942 -11.425   1.405  0.00  0.00    +0.009 C 
ATOM     26  C   UNL     1      -5.593 -12.806   1.432  0.00  0.00    -0.072 C 
ATOM     27  N   UNL     1      -4.880 -13.783   0.635  0.00  0.00    +0.386 N 
ATOM     28  C   UNL     1      -4.332 -13.414  -0.653  0.00  0.00    -0.072 C 
ATOM     29  C   UNL     1      -3.696 -12.027  -0.655  0.00  0.00    +0.009 C 
ATOM     30  C   UNL     1      -5.400 -13.489  -1.751  0.00  0.00    -0.010 C 
ATOM     31  C   UNL     1      -3.229 -14.433  -1.018  0.00  0.00    -0.010 C 
ATOM     32  C   UNL     1      -7.056 -12.692   0.990  0.00  0.00    -0.010 C 
ATOM     33  C   UNL     1      -5.595 -13.290   2.900  0.00  0.00    -0.010 C 
ATOM     34  H   UNL     1      -4.008 -14.148   1.197  0.00  0.00    -0.084 HD
ATOM     35  H   UNL     1      -5.548 -14.626   0.406  0.00  0.00    -0.084 HD
ENDBRANCH  22  24
ENDBRANCH  19  20
ENDBRANCH   1  19
TORSDOF 6
