REMARK  Name = ZINC47138099
REMARK  6 active torsions:
REMARK  status: ('A' for Active; 'I' for Inactive)
REMARK    1  A    between atoms: C_4  and  O_29
REMARK    2  A    between atoms: C_5  and  C_7
REMARK    3  A    between atoms: N_8  and  N_9
REMARK    4  A    between atoms: N_11  and  C_23
REMARK    5  A    between atoms: C_15  and  C_16
REMARK    6  A    between atoms: C_23  and  C_24
REMARK                            x       y       z     vdW  Elec       q    Type
REMARK                         _______ _______ _______ _____ _____    ______ ____
ROOT
ATOM      1  N   UNL     1       3.520  -2.125  -0.040  0.00  0.00    -0.126 NA
ATOM      2  C   UNL     1       4.660  -2.763   0.129  0.00  0.00    +0.190 C 
ATOM      3  N   UNL     1       4.887  -4.122   0.142  0.00  0.00    -0.237 N 
ATOM      4  C   UNL     1       6.106  -4.601   0.326  0.00  0.00    +0.259 C 
ATOM      5  O   UNL     1       6.324  -5.798   0.341  0.00  0.00    -0.269 OA
ATOM      6  C   UNL     1       7.190  -3.615   0.513  0.00  0.00    +0.078 C 
ATOM      7  C   UNL     1       8.516  -3.822   0.718  0.00  0.00    +0.029 C 
ATOM      8  S   UNL     1       6.288  -2.078   0.388  0.00  0.00    -0.047 S 
ENDROOT
BRANCH   7   9
ATOM      9  C   UNL     1       9.431  -2.676   0.820  0.00  0.00    -0.006 A 
ATOM     10  C   UNL     1       8.931  -1.366   0.880  0.00  0.00    +0.011 A 
ATOM     11  C   UNL     1       9.835  -0.324   0.976  0.00  0.00    +0.020 A 
ATOM     12  C   UNL     1      11.191  -0.603   1.010  0.00  0.00    +0.111 A 
ATOM     13  N   UNL     1      11.633  -1.845   0.952  0.00  0.00    -0.263 NA
ATOM     14  C   UNL     1      10.815  -2.872   0.866  0.00  0.00    +0.118 A 
ENDBRANCH   7   9
BRANCH   1  16
ATOM     15  C   UNL     1       1.298  -2.156  -0.384  0.00  0.00    +0.146 C 
ATOM     16  N   UNL     1       2.428  -2.789  -0.217  0.00  0.00    -0.155 NA
BRANCH  15  21
ATOM     17  C   UNL     1       2.455   1.381  -0.839  0.00  0.00    +0.001 A 
ATOM     18  C   UNL     1       1.264   2.075  -0.706  0.00  0.00    +0.004 A 
ATOM     19  C   UNL     1       0.082   1.398  -0.469  0.00  0.00    +0.046 A 
ATOM     20  C   UNL     1       0.082   0.018  -0.362  0.00  0.00    +0.125 A 
ATOM     21  C   UNL     1       1.286  -0.690  -0.496  0.00  0.00    +0.036 A 
ATOM     22  C   UNL     1       2.474   0.007  -0.736  0.00  0.00    +0.013 A 
BRANCH  20  23
ATOM     23  O   UNL     1      -1.079  -0.648  -0.129  0.00  0.00    -0.506 OA
ATOM     24  H   UNL     1      -1.589  -0.841  -0.927  0.00  0.00    +0.292 HD
ENDBRANCH  20  23
ENDBRANCH  15  21
ENDBRANCH   1  16
BRANCH   3  25
ATOM     25  C   UNL     1       3.767  -5.046  -0.049  0.00  0.00    +0.190 C 
BRANCH  25  26
ATOM     26  C   UNL     1       3.603  -5.340  -1.518  0.00  0.00    +0.123 A 
ATOM     27  C   UNL     1       4.196  -6.344  -2.190  0.00  0.00    +0.046 A 
ATOM     28  C   UNL     1       3.766  -6.247  -3.534  0.00  0.00    +0.041 A 
ATOM     29  C   UNL     1       2.936  -5.191  -3.602  0.00  0.00    +0.195 A 
ATOM     30  O   UNL     1       2.837  -4.649  -2.377  0.00  0.00    -0.466 OA
ENDBRANCH  25  26
ENDBRANCH   3  25
TORSDOF 6
