REMARK  Name = ZINC39934660
REMARK  11 active torsions:
REMARK  status: ('A' for Active; 'I' for Inactive)
REMARK    1  A    between atoms: C_1  and  C_2
REMARK    2  A    between atoms: C_2  and  O_3
REMARK    3  A    between atoms: O_3  and  C_4
REMARK    4  A    between atoms: C_6  and  C_11
REMARK    5  A    between atoms: C_9  and  O_10
REMARK    6  A    between atoms: C_11  and  C_12
REMARK    7  A    between atoms: C_11  and  C_25
REMARK    8  A    between atoms: C_13  and  O_24
REMARK    9  A    between atoms: C_16  and  C_18
REMARK   10  A    between atoms: C_26  and  O_37
REMARK   11  A    between atoms: C_29  and  C_31
REMARK                            x       y       z     vdW  Elec       q    Type
REMARK                         _______ _______ _______ _____ _____    ______ ____
ROOT
ATOM      1  C   UNL     1       0.687  -5.511  -0.162  0.00  0.00    +0.086 C 
ENDROOT
BRANCH   1   4
ATOM      2  C   UNL     1      -1.798  -3.051  -1.592  0.00  0.00    +0.162 A 
ATOM      3  C   UNL     1      -0.604  -3.676  -1.270  0.00  0.00    +0.054 A 
ATOM      4  C   UNL     1      -0.612  -4.831  -0.510  0.00  0.00    -0.032 A 
ATOM      5  C   UNL     1      -1.809  -5.365  -0.070  0.00  0.00    +0.008 A 
ATOM      6  C   UNL     1      -3.004  -4.745  -0.388  0.00  0.00    +0.049 A 
ATOM      7  C   UNL     1      -3.002  -3.584  -1.144  0.00  0.00    +0.158 A 
BRANCH   7   8
ATOM      8  O   UNL     1      -4.176  -2.971  -1.452  0.00  0.00    -0.503 OA
ATOM      9  H   UNL     1      -4.575  -3.277  -2.278  0.00  0.00    +0.292 HD
ENDBRANCH   7   8
BRANCH   2  10
ATOM     10  O   UNL     1      -1.792  -1.914  -2.339  0.00  0.00    -0.489 OA
BRANCH  10  12
ATOM     11  C   UNL     1      -0.712  -0.149  -3.587  0.00  0.00    +0.048 C 
ATOM     12  C   UNL     1      -0.519  -1.424  -2.764  0.00  0.00    +0.226 C 
ENDBRANCH  10  12
ENDBRANCH   2  10
ENDBRANCH   1   4
BRANCH   1  13
ATOM     13  C   UNL     1       0.665  -5.924   1.288  0.00  0.00    +0.033 C 
ATOM     14  C   UNL     1       0.479  -7.150   1.794  0.00  0.00    +0.232 C 
ATOM     15  N   UNL     1       0.527  -7.121   3.147  0.00  0.00    -0.140 NA
ATOM     16  N   UNL     1       0.727  -6.003   3.627  0.00  0.00    -0.294 N 
ATOM     17  C   UNL     1       0.855  -5.048   2.513  0.00  0.00    +0.161 C 
ATOM     18  H   UNL     1       0.792  -5.790   4.572  0.00  0.00    +0.184 HD
BRANCH  17  19
ATOM     19  C   UNL     1       2.221  -4.412   2.507  0.00  0.00    -0.019 A 
ATOM     20  C   UNL     1       3.336  -5.168   2.816  0.00  0.00    +0.006 A 
ATOM     21  C   UNL     1       4.590  -4.585   2.811  0.00  0.00    +0.000 A 
ATOM     22  C   UNL     1       4.727  -3.246   2.496  0.00  0.00    +0.000 A 
ATOM     23  C   UNL     1       3.612  -2.490   2.187  0.00  0.00    +0.000 A 
ATOM     24  C   UNL     1       2.359  -3.075   2.188  0.00  0.00    +0.006 A 
ENDBRANCH  17  19
BRANCH  14  25
ATOM     25  O   UNL     1       0.270  -8.269   1.051  0.00  0.00    -0.491 OA
ATOM     26  H   UNL     1       0.154  -9.073   1.576  0.00  0.00    +0.294 HD
ENDBRANCH  14  25
ENDBRANCH   1  13
BRANCH   1  27
ATOM     27  C   UNL     1       0.865  -6.730  -1.029  0.00  0.00    +0.033 C 
ATOM     28  C   UNL     1      -0.001  -7.251  -1.908  0.00  0.00    +0.232 C 
ATOM     29  N   UNL     1       0.522  -8.353  -2.498  0.00  0.00    -0.140 NA
ATOM     30  N   UNL     1       1.658  -8.647  -2.117  0.00  0.00    -0.294 N 
ATOM     31  C   UNL     1       2.070  -7.650  -1.114  0.00  0.00    +0.161 C 
ATOM     32  H   UNL     1       2.187  -9.399  -2.425  0.00  0.00    +0.184 HD
BRANCH  31  33
ATOM     33  C   UNL     1       3.286  -6.893  -1.581  0.00  0.00    -0.019 A 
ATOM     34  C   UNL     1       3.393  -6.504  -2.904  0.00  0.00    +0.006 A 
ATOM     35  C   UNL     1       4.509  -5.809  -3.332  0.00  0.00    +0.000 A 
ATOM     36  C   UNL     1       5.518  -5.503  -2.438  0.00  0.00    +0.000 A 
ATOM     37  C   UNL     1       5.410  -5.891  -1.115  0.00  0.00    +0.000 A 
ATOM     38  C   UNL     1       4.293  -6.582  -0.686  0.00  0.00    +0.006 A 
ENDBRANCH  31  33
BRANCH  28  39
ATOM     39  O   UNL     1      -1.234  -6.744  -2.172  0.00  0.00    -0.491 OA
ATOM     40  H   UNL     1      -1.730  -7.243  -2.835  0.00  0.00    +0.294 HD
ENDBRANCH  28  39
ENDBRANCH   1  27
TORSDOF 10
