REMARK  Name = ZINC65719974
REMARK  7 active torsions:
REMARK  status: ('A' for Active; 'I' for Inactive)
REMARK    1  A    between atoms: C_1  and  C_2
REMARK    2  A    between atoms: C_5  and  O_9
REMARK    3  A    between atoms: C_7  and  C_8
REMARK    4  A    between atoms: O_9  and  C_10
REMARK    5  A    between atoms: C_10  and  C_11
REMARK    6  A    between atoms: N_13  and  N_14
REMARK    7  A    between atoms: C_15  and  C_17
REMARK                            x       y       z     vdW  Elec       q    Type
REMARK                         _______ _______ _______ _____ _____    ______ ____
ROOT
ATOM      1  C   UNL     1       0.259  -6.254  -1.143  0.00  0.00    +0.267 C 
ATOM      2  O   UNL     1       0.613  -6.705  -0.074  0.00  0.00    -0.271 OA
ATOM      3  N   UNL     1       0.025  -7.082  -2.180  0.00  0.00    -0.231 N 
ATOM      4  H   UNL     1      -0.258  -6.722  -3.034  0.00  0.00    +0.173 HD
ENDROOT
BRANCH   3   5
ATOM      5  N   UNL     1       0.189  -8.465  -2.022  0.00  0.00    -0.231 N 
ATOM      6  C   UNL     1      -0.045  -9.293  -3.059  0.00  0.00    +0.253 C 
ATOM      7  O   UNL     1      -0.399  -8.841  -4.131  0.00  0.00    -0.269 OA
ATOM      8  H   UNL     1       0.472  -8.826  -1.168  0.00  0.00    +0.173 HD
BRANCH   6   9
ATOM      9  C   UNL     1       0.128 -10.745  -2.894  0.00  0.00    +0.068 C 
ATOM     10  C   UNL     1       0.032 -11.550  -3.949  0.00  0.00    -0.065 C 
ATOM     11  C   UNL     1       0.022 -10.990  -5.354  0.00  0.00    +0.031 C 
ATOM     12  C   UNL     1       1.078 -11.731  -6.181  0.00  0.00    +0.004 C 
ATOM     13  C   UNL     1       0.822 -13.237  -6.101  0.00  0.00    +0.001 C 
ATOM     14  C   UNL     1       0.991 -13.715  -4.658  0.00  0.00    +0.004 C 
ATOM     15  C   UNL     1      -0.062 -13.050  -3.773  0.00  0.00    +0.031 C 
ENDBRANCH   6   9
ENDBRANCH   3   5
BRANCH   1  16
ATOM     16  C   UNL     1       0.082  -4.767  -1.312  0.00  0.00    +0.326 C 
BRANCH  16  17
ATOM     17  O   UNL     1       0.388  -4.108  -0.081  0.00  0.00    -0.483 OA
BRANCH  17  22
ATOM     18  C   UNL     1      -0.071   1.505  -0.004  0.00  0.00    +0.044 C 
ATOM     19  C   UNL     1       0.052   0.004  -0.025  0.00  0.00    -0.047 A 
ATOM     20  C   UNL     1      -0.229  -0.696  -1.184  0.00  0.00    +0.007 A 
ATOM     21  C   UNL     1      -0.117  -2.073  -1.206  0.00  0.00    +0.046 A 
ATOM     22  C   UNL     1       0.278  -2.753  -0.063  0.00  0.00    +0.121 A 
ATOM     23  C   UNL     1       0.559  -2.049   1.099  0.00  0.00    +0.049 A 
ATOM     24  C   UNL     1       0.451  -0.672   1.114  0.00  0.00    -0.044 A 
ATOM     25  C   UNL     1       0.762   0.094   2.374  0.00  0.00    +0.044 C 
ENDBRANCH  17  22
ENDBRANCH  16  17
ENDBRANCH   1  16
TORSDOF 5
