REMARK  Name = ZINC48925900
REMARK  7 active torsions:
REMARK  status: ('A' for Active; 'I' for Inactive)
REMARK    1  A    between atoms: C_1  and  C_2
REMARK    2  A    between atoms: C_5  and  C_7
REMARK    3  A    between atoms: C_7  and  C_9
REMARK    4  A    between atoms: C_7  and  N_10
REMARK    5  A    between atoms: C_11  and  C_13
REMARK    6  A    between atoms: C_15  and  N_19
REMARK    7  A    between atoms: C_16  and  C_18
REMARK                            x       y       z     vdW  Elec       q    Type
REMARK                         _______ _______ _______ _____ _____    ______ ____
ROOT
ATOM      1  N   UNL     1       2.210  -4.147   0.855  0.00  0.00    -0.304 N 
ATOM      2  C   UNL     1       2.553  -5.328   1.406  0.00  0.00    +0.251 C 
ATOM      3  O   UNL     1       1.893  -6.324   1.171  0.00  0.00    -0.270 OA
ATOM      4  H   UNL     1       2.735  -3.354   1.042  0.00  0.00    +0.150 HD
ENDROOT
BRANCH   2   5
ATOM      5  C   UNL     1       3.720  -5.414   2.288  0.00  0.00    +0.076 A 
ATOM      6  C   UNL     1       4.241  -6.519   2.944  0.00  0.00    +0.053 A 
ATOM      7  C   UNL     1       5.357  -6.287   3.711  0.00  0.00    +0.137 A 
ATOM      8  C   UNL     1       5.863  -5.031   3.776  0.00  0.00    +0.018 A 
ATOM      9  S   UNL     1       4.845  -4.126   2.792  0.00  0.00    -0.087 S 
ATOM     10  C   UNL     1       7.067  -4.556   4.548  0.00  0.00    +0.054 C 
BRANCH   7  11
ATOM     11  N   UNL     1       5.999  -7.393   4.457  0.00  0.00    +0.057 N 
ATOM     12  O   UNL     1       5.541  -8.510   4.393  0.00  0.00    -0.126 OA
ATOM     13  O   UNL     1       6.980  -7.179   5.129  0.00  0.00    -0.126 OA
ENDBRANCH   7  11
ENDBRANCH   2   5
BRANCH   1  14
ATOM     14  C   UNL     1       1.043  -4.062  -0.027  0.00  0.00    +0.107 C 
ATOM     15  C   UNL     1       1.452  -4.441  -1.452  0.00  0.00    +0.033 C 
BRANCH  14  20
ATOM     16  C   UNL     1      -0.018   1.503   0.010  0.00  0.00    +0.051 C 
ATOM     17  C   UNL     1       0.002  -0.004   0.002  0.00  0.00    -0.013 A 
ATOM     18  C   UNL     1      -1.039  -0.872   0.002  0.00  0.00    +0.011 A 
ATOM     19  C   UNL     1      -0.780  -2.230  -0.007  0.00  0.00    +0.013 A 
ATOM     20  C   UNL     1       0.507  -2.653  -0.016  0.00  0.00    +0.010 A 
ATOM     21  S   UNL     1       1.404  -1.109  -0.018  0.00  0.00    -0.097 S 
ENDBRANCH  14  20
ENDBRANCH   1  14
TORSDOF 4
