REMARK  Name = ZINC01087810
REMARK  5 active torsions:
REMARK  status: ('A' for Active; 'I' for Inactive)
REMARK    1  A    between atoms: C_3  and  C_6
REMARK    2  A    between atoms: C_11  and  C_19
REMARK    3  A    between atoms: C_13  and  C_17
REMARK    4  A    between atoms: C_14  and  N_16
REMARK    5  A    between atoms: C_24  and  C_25
REMARK                            x       y       z     vdW  Elec       q    Type
REMARK                         _______ _______ _______ _____ _____    ______ ____
ROOT
ATOM      1  C   UNL     1      -4.142   4.881   3.447  0.00  0.00    +0.070 C 
ATOM      2  C   UNL     1      -4.596   3.780   2.487  0.00  0.00    +0.086 C 
ATOM      3  C   UNL     1      -3.749   3.816   1.236  0.00  0.00    +0.115 C 
ATOM      4  C   UNL     1      -2.466   4.218   1.287  0.00  0.00    +0.046 C 
ATOM      5  C   UNL     1      -1.618   4.241   0.038  0.00  0.00    +0.105 C 
ATOM      6  C   UNL     1      -2.496   4.222  -1.182  0.00  0.00    +0.098 C 
ATOM      7  C   UNL     1      -3.787   3.822  -1.090  0.00  0.00    +0.198 C 
ATOM      8  O   UNL     1      -4.317   3.429   0.078  0.00  0.00    -0.445 OA
ATOM      9  C   UNL     1      -1.876   4.631   2.497  0.00  0.00    +0.164 C 
ATOM     10  O   UNL     1      -0.710   4.972   2.506  0.00  0.00    -0.292 OA
ATOM     11  C   UNL     1      -2.663   4.657   3.779  0.00  0.00    +0.091 C 
ENDROOT
BRANCH   5  12
ATOM     12  C   UNL     1      -0.716   3.034   0.024  0.00  0.00    +0.010 A 
ATOM     13  C   UNL     1      -1.115   1.743   0.016  0.00  0.00    +0.110 A 
ATOM     14  N   UNL     1      -0.011   0.966   0.007  0.00  0.00    -0.284 N 
ATOM     15  H   UNL     1       0.003  -0.034   0.006  0.00  0.00    +0.188 HD
ATOM     16  N   UNL     1       1.112   1.803   0.001  0.00  0.00    -0.174 NA
ATOM     17  C   UNL     1       0.692   3.050   0.011  0.00  0.00    +0.097 A 
BRANCH  17  18
ATOM     18  C   UNL     1       1.551   4.261   0.010  0.00  0.00    +0.003 A 
ATOM     19  C   UNL     1       1.146   5.404  -0.676  0.00  0.00    +0.013 A 
ATOM     20  C   UNL     1       1.946   6.529  -0.671  0.00  0.00    +0.039 A 
ATOM     21  C   UNL     1       3.154   6.519   0.006  0.00  0.00    +0.123 A 
ATOM     22  C   UNL     1       3.563   5.383   0.686  0.00  0.00    +0.039 A 
ATOM     23  C   UNL     1       2.767   4.255   0.690  0.00  0.00    +0.013 A 
ATOM     24  F   UNL     1       3.937   7.620   0.004  0.00  0.00    -0.205 F 
ENDBRANCH  17  18
ENDBRANCH   5  12
BRANCH   1  27
ATOM     25  C   UNL     1      -6.318   5.318   6.390  0.00  0.00    +0.041 A 
ATOM     26  C   UNL     1      -5.741   5.801   5.193  0.00  0.00    +0.045 A 
ATOM     27  C   UNL     1      -4.960   4.818   4.712  0.00  0.00    +0.109 A 
ATOM     28  O   UNL     1      -5.036   3.768   5.546  0.00  0.00    -0.468 OA
ATOM     29  C   UNL     1      -5.854   4.068   6.569  0.00  0.00    +0.195 A 
ENDBRANCH   1  27
BRANCH   7  30
ATOM     30  N   UNL     1      -4.571   3.819  -2.217  0.00  0.00    -0.328 N 
ATOM     31  H   UNL     1      -4.199   4.101  -3.068  0.00  0.00    +0.145 HD
ATOM     32  H   UNL     1      -5.497   3.535  -2.164  0.00  0.00    +0.145 HD
ENDBRANCH   7  30
BRANCH   6  33
ATOM     33  C   UNL     1      -1.964   4.630  -2.447  0.00  0.00    +0.101 C 
ATOM     34  N   UNL     1      -1.543   4.953  -3.452  0.00  0.00    -0.191 NA
ENDBRANCH   6  33
TORSDOF 5
