REMARK  Name = ZINC05667092
REMARK  9 active torsions:
REMARK  status: ('A' for Active; 'I' for Inactive)
REMARK    1  A    between atoms: C_1  and  C_2
REMARK    2  A    between atoms: C_2  and  C_3
REMARK    3  A    between atoms: C_5  and  C_11
REMARK    4  A    between atoms: C_6  and  O_10
REMARK    5  A    between atoms: C_8  and  O_9
REMARK    6  A    between atoms: C_11  and  C_14
REMARK    7  A    between atoms: N_12  and  O_13
REMARK    8  A    between atoms: C_14  and  C_15
REMARK    9  A    between atoms: C_17  and  C_20
REMARK                            x       y       z     vdW  Elec       q    Type
REMARK                         _______ _______ _______ _____ _____    ______ ____
ROOT
ATOM      1  C   UNL     1       0.624  -0.776  -1.190  0.00  0.00    -0.005 A 
ATOM      2  C   UNL     1       1.963  -1.097  -1.131  0.00  0.00    +0.020 A 
ATOM      3  C   UNL     1       2.647  -1.452  -2.296  0.00  0.00    +0.042 A 
ATOM      4  C   UNL     1       1.965  -1.482  -3.522  0.00  0.00    +0.129 A 
ATOM      5  C   UNL     1       0.621  -1.159  -3.568  0.00  0.00    +0.091 A 
ATOM      6  C   UNL     1      -0.051  -0.812  -2.405  0.00  0.00    +0.124 A 
ENDROOT
BRANCH   1   8
ATOM      7  C   UNL     1      -0.243   1.130   0.138  0.00  0.00    +0.009 C 
ATOM      8  C   UNL     1      -0.112  -0.393   0.067  0.00  0.00    +0.035 C 
ENDBRANCH   1   8
BRANCH   6   9
ATOM      9  O   UNL     1      -1.372  -0.500  -2.454  0.00  0.00    -0.506 OA
ATOM     10  H   UNL     1      -1.549   0.438  -2.607  0.00  0.00    +0.292 HD
ENDBRANCH   6   9
BRANCH   4  11
ATOM     11  O   UNL     1       2.623  -1.827  -4.658  0.00  0.00    -0.506 OA
ATOM     12  H   UNL     1       2.605  -2.774  -4.851  0.00  0.00    +0.292 HD
ENDBRANCH   4  11
BRANCH   3  13
ATOM     13  C   UNL     1       4.079  -1.795  -2.238  0.00  0.00    +0.097 C 
ATOM     14  N   UNL     1       4.710  -2.125  -3.319  0.00  0.00    -0.091 NA
BRANCH  14  15
ATOM     15  O   UNL     1       6.108  -2.349  -3.282  0.00  0.00    -0.409 OA
ATOM     16  H   UNL     1       6.490  -2.591  -4.136  0.00  0.00    +0.328 HD
ENDBRANCH  14  15
BRANCH  13  17
ATOM     17  C   UNL     1       4.808  -1.762  -0.919  0.00  0.00    +0.122 C 
BRANCH  17  18
ATOM     18  C   UNL     1       5.381  -0.386  -0.697  0.00  0.00    +0.084 A 
ATOM     19  N   UNL     1       4.827   0.640  -0.101  0.00  0.00    -0.249 NA
ATOM     20  C   UNL     1       5.461   1.790   0.017  0.00  0.00    +0.046 A 
ATOM     21  C   UNL     1       6.711   1.860  -0.507  0.00  0.00    +0.070 A 
ATOM     22  S   UNL     1       6.892   0.203  -1.149  0.00  0.00    -0.080 S 
ATOM     23  C   UNL     1       4.826   2.972   0.703  0.00  0.00    +0.066 C 
ENDBRANCH  17  18
ENDBRANCH  13  17
ENDBRANCH   3  13
TORSDOF 7
