REMARK  Name = ZINC64337956
REMARK  11 active torsions:
REMARK  status: ('A' for Active; 'I' for Inactive)
REMARK    1  A    between atoms: C_1  and  C_2
REMARK    2  A    between atoms: C_2  and  N_3
REMARK    3  A    between atoms: N_3  and  C_4
REMARK    4  A    between atoms: N_3  and  S_6
REMARK    5  A    between atoms: C_4  and  C_5
REMARK    6  A    between atoms: S_6  and  C_9
REMARK    7  A    between atoms: C_13  and  N_15
REMARK    8  A    between atoms: C_16  and  C_18
REMARK    9  A    between atoms: C_18  and  S_19
REMARK   10  A    between atoms: S_19  and  C_20
REMARK   11  A    between atoms: C_23  and  C_25
REMARK                            x       y       z     vdW  Elec       q    Type
REMARK                         _______ _______ _______ _____ _____    ______ ____
ROOT
ATOM      1  N   UNL     1       1.456   2.322  -6.226  0.00  0.00    -0.284 N 
ATOM      2  C   UNL     1       2.550   1.545  -6.351  0.00  0.00    +0.228 C 
ATOM      3  O   UNL     1       2.659   0.538  -5.683  0.00  0.00    -0.275 OA
ATOM      4  H   UNL     1       1.331   3.082  -6.816  0.00  0.00    +0.155 HD
ENDROOT
BRANCH   1   9
ATOM      5  C   UNL     1      -0.083   1.038  -3.143  0.00  0.00    +0.107 A 
ATOM      6  C   UNL     1      -1.389   1.460  -3.307  0.00  0.00    +0.030 A 
ATOM      7  C   UNL     1      -1.754   2.167  -4.437  0.00  0.00    +0.024 A 
ATOM      8  C   UNL     1      -0.813   2.455  -5.408  0.00  0.00    +0.062 A 
ATOM      9  C   UNL     1       0.501   2.033  -5.245  0.00  0.00    +0.054 A 
ATOM     10  C   UNL     1       0.864   1.327  -4.106  0.00  0.00    +0.053 A 
ATOM     11 CL   UNL     1      -1.272   3.342  -6.828  0.00  0.00    -0.082 Cl
BRANCH   5  12
ATOM     12  S   UNL     1       0.377   0.137  -1.700  0.00  0.00    +0.061 S 
ATOM     13  O   UNL     1       1.538  -0.609  -2.040  0.00  0.00    -0.153 OA
ATOM     14  O   UNL     1      -0.807  -0.477  -1.210  0.00  0.00    -0.153 OA
BRANCH  12  15
ATOM     15  N   UNL     1       0.843   1.244  -0.559  0.00  0.00    -0.177 NA
BRANCH  15  17
ATOM     16  C   UNL     1      -0.667   3.130  -0.181  0.00  0.00    +0.022 C 
ATOM     17  C   UNL     1      -0.145   1.801   0.368  0.00  0.00    +0.106 C 
ENDBRANCH  15  17
BRANCH  15  18
ATOM     18  C   UNL     1       2.243   1.666  -0.477  0.00  0.00    +0.106 C 
ATOM     19  C   UNL     1       2.970   0.823   0.572  0.00  0.00    +0.022 C 
ENDBRANCH  15  18
ENDBRANCH  12  15
ENDBRANCH   5  12
ENDBRANCH   1   9
BRANCH   2  20
ATOM     20  C   UNL     1       3.639   1.926  -7.321  0.00  0.00    +0.175 C 
BRANCH  20  21
ATOM     21  S   UNL     1       4.966   0.690  -7.257  0.00  0.00    -0.056 S 
BRANCH  21  22
ATOM     22  C   UNL     1       6.145   1.270  -8.431  0.00  0.00    +0.278 A 
ATOM     23  N   UNL     1       6.045   2.369  -9.164  0.00  0.00    -0.101 NA
ATOM     24  N   UNL     1       7.087   2.481  -9.910  0.00  0.00    -0.107 NA
ATOM     25  C   UNL     1       7.896   1.458  -9.684  0.00  0.00    +0.248 A 
ATOM     26  O   UNL     1       7.313   0.681  -8.740  0.00  0.00    -0.411 OA
BRANCH  25  27
ATOM     27  C   UNL     1       9.133   1.226 -10.304  0.00  0.00    +0.044 C 
ATOM     28  C   UNL     1       9.755   2.019 -11.268  0.00  0.00    +0.008 A 
ATOM     29  C   UNL     1       9.381   3.226 -11.896  0.00  0.00    +0.010 A 
ATOM     30  C   UNL     1      10.203   3.787 -12.820  0.00  0.00    +0.001 A 
ATOM     31  C   UNL     1      11.419   3.198 -13.172  0.00  0.00    +0.002 A 
ATOM     32  C   UNL     1      11.842   2.039 -12.609  0.00  0.00    +0.026 A 
ATOM     33  C   UNL     1      11.037   1.394 -11.635  0.00  0.00    +0.043 A 
ATOM     34  N   UNL     1      11.219   0.281 -10.952  0.00  0.00    -0.380 N 
ATOM     35  C   UNL     1      10.073   0.066 -10.062  0.00  0.00    +0.154 C 
ATOM     36  H   UNL     1      11.990  -0.303 -11.025  0.00  0.00    +0.160 HD
ENDBRANCH  25  27
ENDBRANCH  21  22
ENDBRANCH  20  21
ENDBRANCH   2  20
TORSDOF 9
