REMARK  Name = ZINC53117613
REMARK  6 active torsions:
REMARK  status: ('A' for Active; 'I' for Inactive)
REMARK    1  A    between atoms: C_4  and  C_7
REMARK    2  A    between atoms: C_4  and  N_9
REMARK    3  A    between atoms: C_7  and  O_8
REMARK    4  A    between atoms: N_9  and  S_10
REMARK    5  A    between atoms: S_10  and  N_13
REMARK    6  A    between atoms: C_16  and  C_19
REMARK                            x       y       z     vdW  Elec       q    Type
REMARK                         _______ _______ _______ _____ _____    ______ ____
ROOT
ATOM      1  S   UNL     1       2.946  -1.842  -0.638  0.00  0.00    +0.098 S 
ATOM      2  O   UNL     1       1.927  -2.241   0.269  0.00  0.00    -0.141 OA
ATOM      3  O   UNL     1       2.913  -2.179  -2.018  0.00  0.00    -0.141 OA
ENDROOT
BRANCH   1   4
ATOM      4  N   UNL     1       4.371  -2.437  -0.040  0.00  0.00    -0.167 NA
ATOM      5  C   UNL     1       5.599  -2.390  -0.845  0.00  0.00    +0.111 C 
ATOM      6  C   UNL     1       6.194  -3.799  -0.920  0.00  0.00    +0.032 C 
ATOM      7  C   UNL     1       6.393  -4.341   0.498  0.00  0.00    +0.105 C 
ATOM      8  C   UNL     1       5.040  -4.425   1.208  0.00  0.00    +0.032 C 
ATOM      9  C   UNL     1       4.432  -3.018   1.309  0.00  0.00    +0.111 C 
BRANCH   7  10
ATOM     10  C   UNL     1       7.010  -5.714   0.429  0.00  0.00    +0.359 C 
ATOM     11  O   UNL     1       7.873  -6.035   1.228  0.00  0.00    -0.246 OA
ATOM     12  O   UNL     1       6.646  -6.504  -0.426  0.00  0.00    -0.246 OA
ENDBRANCH   7  10
ENDBRANCH   1   4
BRANCH   1  13
ATOM     13  N   UNL     1       3.033  -0.190  -0.555  0.00  0.00    -0.171 NA
ATOM     14  H   UNL     1       3.053   0.336  -1.370  0.00  0.00    +0.150 HD
BRANCH  13  18
ATOM     15  C   UNL     1       5.410   2.207   0.352  0.00  0.00    +0.000 C 
ATOM     16  C   UNL     1       5.560   0.697   0.547  0.00  0.00    +0.002 C 
ATOM     17  C   UNL     1       4.419   0.180   1.425  0.00  0.00    +0.026 C 
ATOM     18  C   UNL     1       3.079   0.477   0.748  0.00  0.00    +0.064 C 
ATOM     19  C   UNL     1       2.929   1.987   0.554  0.00  0.00    +0.026 C 
ATOM     20  C   UNL     1       4.071   2.504  -0.325  0.00  0.00    +0.002 C 
BRANCH  18  21
ATOM     21  C   UNL     1       1.938  -0.040   1.626  0.00  0.00    +0.179 C 
BRANCH  21  22
ATOM     22  O   UNL     1       0.702   0.075   0.918  0.00  0.00    -0.393 OA
ATOM     23  H   UNL     1      -0.067  -0.234   1.416  0.00  0.00    +0.209 HD
ENDBRANCH  21  22
ENDBRANCH  18  21
ENDBRANCH  13  18
ENDBRANCH   1  13
TORSDOF 6
