REMARK  Name = ZINC06222446
REMARK  5 active torsions:
REMARK  status: ('A' for Active; 'I' for Inactive)
REMARK    1  A    between atoms: C_4  and  S_18
REMARK    2  A    between atoms: C_5  and  N_7
REMARK    3  A    between atoms: N_10  and  C_11
REMARK    4  A    between atoms: S_18  and  C_19
REMARK    5  A    between atoms: C_19  and  C_20
REMARK                            x       y       z     vdW  Elec       q    Type
REMARK                         _______ _______ _______ _____ _____    ______ ____
ROOT
ATOM      1  C   UNL     1      -3.522  -1.143   0.319  0.00  0.00    +0.002 A 
ATOM      2  C   UNL     1      -4.741  -0.512   0.487  0.00  0.00    +0.001 A 
ATOM      3  C   UNL     1      -4.811   0.868   0.515  0.00  0.00    +0.016 A 
ATOM      4  C   UNL     1      -3.657   1.625   0.374  0.00  0.00    +0.029 A 
ATOM      5  C   UNL     1      -2.427   0.988   0.204  0.00  0.00    +0.048 A 
ATOM      6  C   UNL     1      -2.367  -0.397   0.173  0.00  0.00    +0.024 A 
ENDROOT
BRANCH   5   7
ATOM      7  N   UNL     1      -1.257   1.746   0.061  0.00  0.00    -0.268 N 
ATOM      8  C   UNL     1      -0.094   1.292   0.569  0.00  0.00    +0.308 C 
ATOM      9  O   UNL     1      -0.042   0.189   1.078  0.00  0.00    -0.252 OA
ATOM     10  N   UNL     1       1.013   2.059   0.508  0.00  0.00    -0.269 N 
ATOM     11  H   UNL     1      -1.284   2.597  -0.404  0.00  0.00    +0.156 HD
ATOM     12  H   UNL     1       0.994   2.901   0.026  0.00  0.00    +0.156 HD
BRANCH  10  13
ATOM     13  C   UNL     1       2.190   1.641   1.139  0.00  0.00    +0.036 A 
ATOM     14  C   UNL     1       2.127   0.793   2.237  0.00  0.00    +0.023 A 
ATOM     15  C   UNL     1       3.290   0.378   2.856  0.00  0.00    +0.003 A 
ATOM     16  C   UNL     1       4.516   0.814   2.389  0.00  0.00    +0.020 A 
ATOM     17  C   UNL     1       4.583   1.663   1.299  0.00  0.00    +0.043 A 
ATOM     18  C   UNL     1       3.422   2.078   0.672  0.00  0.00    +0.043 A 
ATOM     19 CL   UNL     1       6.125   2.209   0.717  0.00  0.00    -0.083 Cl
ENDBRANCH  10  13
ENDBRANCH   5   7
BRANCH   4  20
ATOM     20  S   UNL     1      -3.743   3.384   0.408  0.00  0.00    -0.117 S 
BRANCH  20  21
ATOM     21  C   UNL     1      -5.508   3.732   0.644  0.00  0.00    +0.127 C 
BRANCH  21  22
ATOM     22  C   UNL     1      -5.724   5.223   0.692  0.00  0.00    +0.036 A 
ATOM     23  C   UNL     1      -6.259   5.865  -0.369  0.00  0.00    +0.092 A 
ATOM     24  C   UNL     1      -6.457   7.265  -0.298  0.00  0.00    +0.254 A 
ATOM     25  O   UNL     1      -6.943   7.865  -1.240  0.00  0.00    -0.268 OA
ATOM     26  N   UNL     1      -6.098   7.928   0.819  0.00  0.00    -0.275 N 
ATOM     27  H   UNL     1      -6.231   8.918   0.875  0.00  0.00    +0.173 HD
ATOM     28  C   UNL     1      -5.561   7.264   1.860  0.00  0.00    +0.327 A 
ATOM     29  O   UNL     1      -5.243   7.875   2.861  0.00  0.00    -0.247 OA
ATOM     30  N   UNL     1      -5.374   5.933   1.808  0.00  0.00    -0.311 N 
ATOM     31  H   UNL     1      -4.974   5.458   2.592  0.00  0.00    +0.170 HD
ENDBRANCH  21  22
ENDBRANCH  20  21
ENDBRANCH   4  20
TORSDOF 5
