REMARK  Name = ZINC09032485
REMARK  7 active torsions:
REMARK  status: ('A' for Active; 'I' for Inactive)
REMARK    1  A    between atoms: N_11  and  C_14
REMARK    2  A    between atoms: C_14  and  C_15
REMARK    3  A    between atoms: C_15  and  O_17
REMARK    4  A    between atoms: O_17  and  C_18
REMARK    5  A    between atoms: C_18  and  C_19
REMARK    6  A    between atoms: N_21  and  C_22
REMARK    7  A    between atoms: C_23  and  C_32
REMARK                            x       y       z     vdW  Elec       q    Type
REMARK                         _______ _______ _______ _____ _____    ______ ____
ROOT
ATOM      1  O   UNL     1      -2.921   2.955  -1.634  0.00  0.00    -0.454 OA
ENDROOT
BRANCH   1   2
ATOM      2  C   UNL     1      -1.757   2.330  -1.398  0.00  0.00    +0.329 C 
ATOM      3  O   UNL     1      -1.069   1.963  -2.321  0.00  0.00    -0.249 OA
BRANCH   2   4
ATOM      4  C   UNL     1      -1.308   2.084   0.019  0.00  0.00    +0.265 C 
BRANCH   4  15
ATOM      5  C   UNL     1       4.839   0.068  -0.045  0.00  0.00    +0.001 A 
ATOM      6  C   UNL     1       4.821   1.451  -0.037  0.00  0.00    +0.001 A 
ATOM      7  C   UNL     1       3.619   2.138  -0.021  0.00  0.00    +0.014 A 
ATOM      8  C   UNL     1       2.425   1.431  -0.013  0.00  0.00    +0.053 A 
ATOM      9  C   UNL     1       2.444   0.022  -0.022  0.00  0.00    +0.053 A 
ATOM     10  C   UNL     1       3.657  -0.652  -0.038  0.00  0.00    +0.014 A 
ATOM     11  C   UNL     1       1.155  -0.702  -0.013  0.00  0.00    +0.271 A 
ATOM     12  O   UNL     1       1.135  -1.917  -0.020  0.00  0.00    -0.266 OA
ATOM     13  N   UNL     1       0.002  -0.004   0.002  0.00  0.00    -0.260 N 
ATOM     14  H   UNL     1      -0.840  -0.486   0.007  0.00  0.00    +0.190 HD
ATOM     15  N   UNL     1      -0.017   1.391   0.010  0.00  0.00    -0.238 N 
ATOM     16  C   UNL     1       1.116   2.120   0.003  0.00  0.00    +0.274 A 
ATOM     17  O   UNL     1       1.063   3.334   0.009  0.00  0.00    -0.266 OA
ENDBRANCH   4  15
ENDBRANCH   2   4
ENDBRANCH   1   2
BRANCH   1  18
ATOM     18  C   UNL     1      -3.290   3.158  -3.024  0.00  0.00    +0.328 C 
BRANCH  18  19
ATOM     19  C   UNL     1      -4.616   3.870  -3.093  0.00  0.00    +0.255 C 
ATOM     20  O   UNL     1      -5.193   4.177  -2.071  0.00  0.00    -0.272 OA
ATOM     21  N   UNL     1      -5.161   4.166  -4.290  0.00  0.00    -0.276 N 
ATOM     22  H   UNL     1      -4.699   3.920  -5.107  0.00  0.00    +0.155 HD
BRANCH  21  23
ATOM     23  C   UNL     1      -6.382   4.822  -4.353  0.00  0.00    +0.090 A 
ATOM     24  C   UNL     1      -7.092   5.213  -5.476  0.00  0.00    +0.084 A 
ATOM     25  C   UNL     1      -8.367   5.887  -5.272  0.00  0.00    -0.018 A 
ATOM     26  C   UNL     1      -8.711   6.074  -3.979  0.00  0.00    -0.004 A 
ATOM     27  S   UNL     1      -7.386   5.357  -3.047  0.00  0.00    -0.077 S 
ATOM     28  C   UNL     1      -9.936   6.750  -3.447  0.00  0.00    +0.043 C 
ATOM     29  C   UNL     1     -11.174   6.194  -4.163  0.00  0.00    +0.005 C 
ATOM     30  C   UNL     1     -11.429   7.035  -5.410  0.00  0.00    +0.001 C 
ATOM     31  C   UNL     1     -10.106   7.527  -5.992  0.00  0.00    +0.005 C 
ATOM     32  C   UNL     1      -9.245   6.347  -6.429  0.00  0.00    +0.037 C 
BRANCH  24  33
ATOM     33  C   UNL     1      -6.591   4.959  -6.793  0.00  0.00    +0.102 C 
ATOM     34  N   UNL     1      -6.194   4.758  -7.838  0.00  0.00    -0.191 NA
ENDBRANCH  24  33
ENDBRANCH  21  23
ENDBRANCH  18  19
ENDBRANCH   1  18
TORSDOF 7
