REMARK  Name = ZINC35188600
REMARK  3 active torsions:
REMARK  status: ('A' for Active; 'I' for Inactive)
REMARK    1  A    between atoms: C_1  and  C_2
REMARK    2  A    between atoms: C_10  and  O_14
REMARK    3  A    between atoms: O_14  and  C_15
REMARK                            x       y       z     vdW  Elec       q    Type
REMARK                         _______ _______ _______ _____ _____    ______ ____
ROOT
ATOM      1  C   UNL     1      -0.019   1.526   0.010  0.00  0.00    +0.029 C 
ATOM      2  C   UNL     1       0.002  -0.004   0.002  0.00  0.00    +0.085 C 
ATOM      3  C   UNL     1       0.759  -0.526  -1.233  0.00  0.00    +0.124 C 
ATOM      4  N   UNL     1       1.889  -1.280  -0.669  0.00  0.00    -0.330 N 
ATOM      5  C   UNL     1       1.828  -1.226   0.678  0.00  0.00    +0.095 C 
ATOM      6  C   UNL     1       2.772  -1.852   1.521  0.00  0.00    +0.057 C 
ATOM      7  C   UNL     1       3.845  -2.573   0.971  0.00  0.00    +0.018 C 
ATOM      8  C   UNL     1       4.753  -3.176   1.787  0.00  0.00    +0.046 C 
ATOM      9  C   UNL     1       4.634  -3.088   3.176  0.00  0.00    +0.124 C 
ATOM     10  C   UNL     1       3.591  -2.387   3.748  0.00  0.00    +0.097 C 
ATOM     11  C   UNL     1       2.647  -1.753   2.932  0.00  0.00    +0.193 C 
ATOM     12  O   UNL     1       1.721  -1.124   3.429  0.00  0.00    -0.287 OA
ATOM     13  N   UNL     1       0.775  -0.515   1.143  0.00  0.00    -0.328 N 
ATOM     14  H   UNL     1       2.568  -1.743  -1.183  0.00  0.00    +0.147 HD
ATOM     15  H   UNL     1       0.565  -0.364   2.078  0.00  0.00    +0.148 HD
ENDROOT
BRANCH   9  16
ATOM     16  O   UNL     1       5.551  -3.696   3.970  0.00  0.00    -0.495 OA
ATOM     17  C   UNL     1       5.373  -3.569   5.382  0.00  0.00    +0.277 C 
ENDBRANCH   9  16
TORSDOF 1
