REMARK  Name = ZINC37586861
REMARK  8 active torsions:
REMARK  status: ('A' for Active; 'I' for Inactive)
REMARK    1  A    between atoms: C_1  and  C_2
REMARK    2  A    between atoms: C_2  and  C_3
REMARK    3  A    between atoms: C_2  and  C_4
REMARK    4  A    between atoms: C_2  and  N_5
REMARK    5  A    between atoms: N_5  and  C_6
REMARK    6  A    between atoms: C_6  and  C_7
REMARK    7  A    between atoms: C_7  and  C_8
REMARK    8  A    between atoms: C_11  and  C_13
REMARK                            x       y       z     vdW  Elec       q    Type
REMARK                         _______ _______ _______ _____ _____    ______ ____
ROOT
ATOM      1  N   UNL     1       0.792  -0.646  -1.111  0.00  0.00    -0.296 N 
ATOM      2  C   UNL     1       0.103  -1.086  -2.182  0.00  0.00    +0.221 C 
ATOM      3  O   UNL     1      -1.101  -1.219  -2.117  0.00  0.00    -0.275 OA
ENDROOT
BRANCH   2   4
ATOM      4  C   UNL     1       0.829  -1.414  -3.462  0.00  0.00    +0.093 C 
ATOM      5  C   UNL     1      -0.145  -2.057  -4.451  0.00  0.00    +0.016 C 
ATOM      6  C   UNL     1       0.598  -2.420  -5.739  0.00  0.00    +0.020 C 
ATOM      7  C   UNL     1       1.163  -1.146  -6.375  0.00  0.00    +0.109 C 
ATOM      8  N   UNL     1       1.986  -0.446  -5.379  0.00  0.00    -0.285 N 
ATOM      9  C   UNL     1       1.397  -0.129  -4.071  0.00  0.00    +0.122 C 
ATOM     10  C   UNL     1       3.259  -0.101  -5.661  0.00  0.00    +0.300 C 
ATOM     11  O   UNL     1       3.961   0.389  -4.797  0.00  0.00    -0.253 OA
ATOM     12  N   UNL     1       3.752  -0.300  -6.899  0.00  0.00    -0.313 N 
ATOM     13  H   UNL     1       3.172  -0.619  -7.607  0.00  0.00    +0.146 HD
ATOM     14  H   UNL     1       4.689  -0.123  -7.082  0.00  0.00    +0.146 HD
ENDBRANCH   2   4
BRANCH   1  16
ATOM     15  C   UNL     1       0.242   1.286   0.284  0.00  0.00    +0.031 C 
ATOM     16  C   UNL     1       0.077  -0.223   0.096  0.00  0.00    +0.029 C 
ATOM     17  C   UNL     1       0.651  -0.954   1.311  0.00  0.00    +0.031 C 
ATOM     18  C   UNL     1      -1.409  -0.559  -0.047  0.00  0.00    +0.031 C 
ENDBRANCH   1  16
BRANCH   1  19
ATOM     19  C   UNL     1       2.255  -0.590  -1.153  0.00  0.00    +0.119 C 
BRANCH  19  20
ATOM     20  C   UNL     1       2.829  -1.949  -0.750  0.00  0.00    +0.144 C 
BRANCH  20  21
ATOM     21  C   UNL     1       4.335  -1.892  -0.793  0.00  0.00    +0.358 C 
ATOM     22  O   UNL     1       4.896  -0.859  -1.116  0.00  0.00    -0.246 OA
ATOM     23  O   UNL     1       4.991  -2.878  -0.505  0.00  0.00    -0.246 OA
ENDBRANCH  20  21
ENDBRANCH  19  20
ENDBRANCH   1  19
TORSDOF 5
