REMARK  Name = ZINC59119318
REMARK  7 active torsions:
REMARK  status: ('A' for Active; 'I' for Inactive)
REMARK    1  A    between atoms: C_1  and  C_2
REMARK    2  A    between atoms: C_2  and  C_4
REMARK    3  A    between atoms: C_2  and  N_14
REMARK    4  A    between atoms: N_17  and  C_18
REMARK    5  A    between atoms: C_18  and  C_19
REMARK    6  A    between atoms: C_19  and  C_21
REMARK    7  A    between atoms: C_19  and  O_28
REMARK                            x       y       z     vdW  Elec       q    Type
REMARK                         _______ _______ _______ _____ _____    ______ ____
ROOT
ATOM      1  N   UNL     1       0.592  -0.609  -1.195  0.00  0.00    -0.293 N 
ATOM      2  C   UNL     1      -0.113  -0.654  -2.343  0.00  0.00    +0.300 C 
ATOM      3  O   UNL     1      -1.237  -0.194  -2.386  0.00  0.00    -0.253 OA
ATOM      4  N   UNL     1       0.429  -1.211  -3.445  0.00  0.00    -0.297 N 
ATOM      5  H   UNL     1       1.489  -0.976  -1.161  0.00  0.00    +0.151 HD
ATOM      6  H   UNL     1       1.327  -1.578  -3.411  0.00  0.00    +0.150 HD
ENDROOT
BRANCH   1   8
ATOM      7  C   UNL     1       0.268   1.503  -0.004  0.00  0.00    +0.033 C 
ATOM      8  C   UNL     1       0.002  -0.004   0.002  0.00  0.00    +0.102 C 
BRANCH   8   9
ATOM      9  C   UNL     1       0.620  -0.619   1.231  0.00  0.00    -0.020 A 
ATOM     10  C   UNL     1       1.876  -1.141   1.178  0.00  0.00    +0.006 A 
ATOM     11  C   UNL     1       2.464  -1.713   2.304  0.00  0.00    +0.001 A 
ATOM     12  C   UNL     1       1.799  -1.768   3.490  0.00  0.00    +0.008 A 
ATOM     13  C   UNL     1       0.501  -1.239   3.584  0.00  0.00    -0.018 A 
ATOM     14  C   UNL     1      -0.095  -0.651   2.441  0.00  0.00    -0.013 A 
ATOM     15  C   UNL     1      -1.391  -0.117   2.536  0.00  0.00    +0.009 A 
ATOM     16  C   UNL     1      -2.054  -0.165   3.724  0.00  0.00    +0.001 A 
ATOM     17  C   UNL     1      -1.466  -0.738   4.851  0.00  0.00    +0.001 A 
ATOM     18  C   UNL     1      -0.217  -1.277   4.792  0.00  0.00    +0.008 A 
ENDBRANCH   8   9
ENDBRANCH   1   8
BRANCH   4  19
ATOM     19  C   UNL     1      -0.336  -1.260  -4.693  0.00  0.00    +0.142 C 
BRANCH  19  20
ATOM     20  C   UNL     1       0.503  -1.937  -5.779  0.00  0.00    +0.164 C 
BRANCH  20  21
ATOM     21  C   UNL     1      -0.234  -1.879  -7.092  0.00  0.00    +0.018 A 
ATOM     22  C   UNL     1      -1.020  -2.943  -7.492  0.00  0.00    +0.009 A 
ATOM     23  C   UNL     1      -1.696  -2.890  -8.696  0.00  0.00    +0.001 A 
ATOM     24  C   UNL     1      -1.588  -1.772  -9.502  0.00  0.00    +0.003 A 
ATOM     25  C   UNL     1      -0.803  -0.706  -9.105  0.00  0.00    +0.039 A 
ATOM     26  C   UNL     1      -0.129  -0.756  -7.896  0.00  0.00    +0.129 A 
ATOM     27  F   UNL     1       0.635   0.287  -7.504  0.00  0.00    -0.205 F 
ENDBRANCH  20  21
BRANCH  20  28
ATOM     28  O   UNL     1       0.733  -3.301  -5.422  0.00  0.00    -0.386 OA
ATOM     29  H   UNL     1      -0.075  -3.823  -5.319  0.00  0.00    +0.210 HD
ENDBRANCH  20  28
ENDBRANCH  19  20
ENDBRANCH   4  19
TORSDOF 6
