REMARK  Name = ZINC64561592
REMARK  6 active torsions:
REMARK  status: ('A' for Active; 'I' for Inactive)
REMARK    1  A    between atoms: C_1  and  N_2
REMARK    2  A    between atoms: C_10  and  N_12
REMARK    3  A    between atoms: N_15  and  C_16
REMARK    4  A    between atoms: C_16  and  C_17
REMARK    5  A    between atoms: N_19  and  C_20
REMARK    6  A    between atoms: C_20  and  C_21
REMARK                            x       y       z     vdW  Elec       q    Type
REMARK                         _______ _______ _______ _____ _____    ______ ____
ROOT
ATOM      1  N   UNL     1       4.954  -2.520  -0.432  0.00  0.00    -0.269 N 
ATOM      2  C   UNL     1       6.056  -1.791  -0.700  0.00  0.00    +0.304 C 
ATOM      3  O   UNL     1       5.983  -0.579  -0.757  0.00  0.00    -0.252 OA
ATOM      4  N   UNL     1       7.238  -2.405  -0.904  0.00  0.00    -0.291 N 
ATOM      5  H   UNL     1       5.024  -3.481  -0.321  0.00  0.00    +0.156 HD
ATOM      6  H   UNL     1       7.296  -3.373  -0.858  0.00  0.00    +0.151 HD
ENDROOT
BRANCH   1  16
ATOM      7  C   UNL     1      -0.131   1.178   0.900  0.00  0.00    +0.129 C 
ATOM      8  N   UNL     1       0.004  -0.006   0.048  0.00  0.00    -0.333 N 
ATOM      9  C   UNL     1      -1.153  -0.533  -0.688  0.00  0.00    +0.105 C 
ATOM     10  C   UNL     1      -1.160  -2.058  -0.519  0.00  0.00    +0.024 C 
ATOM     11  C   UNL     1       0.103  -2.632  -1.161  0.00  0.00    +0.038 C 
ATOM     12  C   UNL     1       1.326  -1.915  -0.651  0.00  0.00    -0.025 A 
ATOM     13  C   UNL     1       1.242  -0.651  -0.083  0.00  0.00    +0.033 A 
ATOM     14  C   UNL     1       2.390  -0.011   0.370  0.00  0.00    +0.025 A 
ATOM     15  C   UNL     1       3.619  -0.627   0.255  0.00  0.00    +0.025 A 
ATOM     16  C   UNL     1       3.707  -1.890  -0.315  0.00  0.00    +0.035 A 
ATOM     17  C   UNL     1       2.559  -2.535  -0.760  0.00  0.00    +0.028 A 
ENDBRANCH   1  16
BRANCH   4  18
ATOM     18  C   UNL     1       8.435  -1.613  -1.194  0.00  0.00    +0.201 C 
BRANCH  18  19
ATOM     19  C   UNL     1       9.614  -2.533  -1.380  0.00  0.00    +0.231 C 
ATOM     20  O   UNL     1       9.469  -3.732  -1.278  0.00  0.00    -0.274 OA
ATOM     21  N   UNL     1      10.830  -2.022  -1.657  0.00  0.00    -0.307 N 
ATOM     22  H   UNL     1      10.946  -1.062  -1.738  0.00  0.00    +0.149 HD
BRANCH  21  23
ATOM     23  C   UNL     1      11.976  -2.916  -1.837  0.00  0.00    +0.178 C 
BRANCH  23  24
ATOM     24  C   UNL     1      13.208  -2.101  -2.136  0.00  0.00    +0.122 A 
ATOM     25  C   UNL     1      14.070  -1.616  -1.226  0.00  0.00    +0.046 A 
ATOM     26  C   UNL     1      15.070  -0.917  -1.940  0.00  0.00    +0.041 A 
ATOM     27  C   UNL     1      14.759  -1.017  -3.245  0.00  0.00    +0.195 A 
ATOM     28  O   UNL     1      13.633  -1.740  -3.358  0.00  0.00    -0.466 OA
ENDBRANCH  23  24
ENDBRANCH  21  23
ENDBRANCH  18  19
ENDBRANCH   4  18
TORSDOF 5
