REMARK  Name = ZINC62149466
REMARK  6 active torsions:
REMARK  status: ('A' for Active; 'I' for Inactive)
REMARK    1  A    between atoms: C_3  and  C_10
REMARK    2  A    between atoms: C_5  and  C_7
REMARK    3  A    between atoms: C_10  and  N_11
REMARK    4  A    between atoms: C_12  and  C_14
REMARK    5  A    between atoms: N_16  and  C_17
REMARK    6  A    between atoms: C_21  and  C_23
REMARK                            x       y       z     vdW  Elec       q    Type
REMARK                         _______ _______ _______ _____ _____    ______ ____
ROOT
ATOM      1  N   UNL     1       4.104   2.445   1.357  0.00  0.00    -0.303 N 
ATOM      2  C   UNL     1       5.239   3.130   1.596  0.00  0.00    +0.300 C 
ATOM      3  O   UNL     1       5.909   3.538   0.670  0.00  0.00    -0.265 OA
ATOM      4  H   UNL     1       3.568   2.120   2.098  0.00  0.00    +0.149 HD
ENDROOT
BRANCH   2   5
ATOM      5  C   UNL     1       5.674   3.389   3.002  0.00  0.00    +0.303 C 
ATOM      6  O   UNL     1       5.004   2.981   3.928  0.00  0.00    -0.265 OA
ATOM      7  N   UNL     1       6.809   4.074   3.241  0.00  0.00    -0.278 N 
ATOM      8  H   UNL     1       7.379   4.341   2.503  0.00  0.00    +0.155 HD
BRANCH   7   9
ATOM      9  C   UNL     1       7.166   4.399   4.553  0.00  0.00    +0.035 A 
ATOM     10  C   UNL     1       6.883   3.516   5.589  0.00  0.00    +0.025 A 
ATOM     11  C   UNL     1       7.233   3.833   6.888  0.00  0.00    +0.023 A 
ATOM     12  C   UNL     1       7.867   5.029   7.166  0.00  0.00    +0.058 A 
ATOM     13  C   UNL     1       8.156   5.922   6.131  0.00  0.00    +0.072 A 
ATOM     14  C   UNL     1       7.806   5.599   4.819  0.00  0.00    +0.043 A 
ATOM     15 CL   UNL     1       8.303   5.421   8.800  0.00  0.00    -0.082 Cl
BRANCH  13  16
ATOM     16  C   UNL     1       8.812   7.163   6.415  0.00  0.00    +0.101 C 
ATOM     17  N   UNL     1       9.333   8.147   6.641  0.00  0.00    -0.191 NA
ENDBRANCH  13  16
ENDBRANCH   7   9
ENDBRANCH   2   5
BRANCH   1  18
ATOM     18  C   UNL     1       3.678   2.192  -0.022  0.00  0.00    +0.140 C 
BRANCH  18  21
ATOM     19  C   UNL     1      -0.012   1.374   0.000  0.00  0.00    +0.001 A 
ATOM     20  C   UNL     1       1.177   2.082  -0.007  0.00  0.00    +0.005 A 
ATOM     21  C   UNL     1       2.388   1.413  -0.014  0.00  0.00    -0.030 A 
ATOM     22  C   UNL     1       2.417   0.033  -0.014  0.00  0.00    +0.018 A 
ATOM     23  C   UNL     1       1.221  -0.687  -0.006  0.00  0.00    +0.037 A 
ATOM     24  C   UNL     1       0.003  -0.005   0.001  0.00  0.00    +0.013 A 
BRANCH  23  25
ATOM     25  C   UNL     1       1.245  -2.165  -0.006  0.00  0.00    +0.242 C 
ATOM     26  O   UNL     1       2.307  -2.756  -0.013  0.00  0.00    -0.270 OA
ATOM     27  N   UNL     1       0.089  -2.857   0.001  0.00  0.00    -0.325 N 
ATOM     28  H   UNL     1      -0.759  -2.386   0.006  0.00  0.00    +0.145 HD
ATOM     29  H   UNL     1       0.104  -3.827   0.000  0.00  0.00    +0.145 HD
ENDBRANCH  23  25
ENDBRANCH  18  21
ENDBRANCH   1  18
TORSDOF 6
