REMARK  Name = ZINC14748698
REMARK  10 active torsions:
REMARK  status: ('A' for Active; 'I' for Inactive)
REMARK    1  A    between atoms: C_1  and  C_2
REMARK    2  A    between atoms: C_2  and  C_3
REMARK    3  A    between atoms: C_2  and  C_4
REMARK    4  A    between atoms: C_4  and  C_5
REMARK    5  A    between atoms: C_5  and  C_6
REMARK    6  A    between atoms: C_9  and  C_11
REMARK    7  A    between atoms: C_20  and  C_21
REMARK    8  A    between atoms: C_20  and  N_68
REMARK    9  A    between atoms: N_23  and  C_30
REMARK   10  A    between atoms: C_30  and  C_31
REMARK                            x       y       z     vdW  Elec       q    Type
REMARK                         _______ _______ _______ _____ _____    ______ ____
ROOT
ATOM      1  C   UNL     1      -0.718   1.572   1.248  0.00  0.00    +0.061 A 
ATOM      2  C   UNL     1      -1.698   0.936   1.897  0.00  0.00    +0.025 A 
ATOM      3  N   UNL     1      -2.054   1.725   2.964  0.00  0.00    -0.335 N 
ATOM      4  C   UNL     1      -1.274   2.816   2.930  0.00  0.00    +0.115 A 
ATOM      5  N   UNL     1      -0.470   2.720   1.902  0.00  0.00    -0.237 NA
ATOM      6  C   UNL     1      -3.107   1.365   3.917  0.00  0.00    +0.105 C 
ATOM      7  C   UNL     1      -3.959   0.254   3.289  0.00  0.00    -0.056 C 
ATOM      8  C   UNL     1      -2.346  -0.390   1.590  0.00  0.00    -0.022 C 
ATOM      9  N   UNL     1      -3.070  -0.827   2.810  0.00  0.00    +0.387 N 
ATOM     10  H   UNL     1      -2.385  -1.044   3.544  0.00  0.00    -0.081 HD
ENDROOT
BRANCH   4  11
ATOM     11  C   UNL     1      -1.313   3.956   3.915  0.00  0.00    +0.083 C 
ATOM     12  C   UNL     1       0.095   4.212   4.520  0.00  0.00    +0.041 C 
ATOM     13  C   UNL     1       0.001   5.722   4.855  0.00  0.00    +0.160 C 
ATOM     14  O   UNL     1      -0.775   6.295   3.790  0.00  0.00    -0.379 OA
ATOM     15  C   UNL     1      -1.608   5.291   3.198  0.00  0.00    +0.171 C 
ENDBRANCH   4  11
BRANCH   1  16
ATOM     16  C   UNL     1      -0.013   1.086   0.008  0.00  0.00    +0.057 C 
BRANCH  16  17
ATOM     17  C   UNL     1      -0.753   1.593  -1.232  0.00  0.00    +0.009 C 
BRANCH  17  19
ATOM     18  C   UNL     1      -0.124  -0.427  -2.562  0.00  0.00    +0.007 C 
ATOM     19  C   UNL     1      -0.037   1.099  -2.490  0.00  0.00    -0.017 C 
ATOM     20  C   UNL     1      -0.702   1.707  -3.727  0.00  0.00    +0.007 C 
ENDBRANCH  17  19
ENDBRANCH  16  17
ENDBRANCH   1  16
BRANCH   9  21
ATOM     21  C   UNL     1      -3.862  -2.040   2.519  0.00  0.00    -0.040 C 
BRANCH  21  22
ATOM     22  C   UNL     1      -4.407  -2.585   3.814  0.00  0.00    -0.039 A 
ATOM     23  C   UNL     1      -3.901  -3.603   4.528  0.00  0.00    +0.089 A 
ATOM     24  N   UNL     1      -4.661  -3.812   5.646  0.00  0.00    -0.338 N 
ATOM     25  C   UNL     1      -5.707  -2.917   5.675  0.00  0.00    +0.050 A 
ATOM     26  C   UNL     1      -5.594  -2.109   4.529  0.00  0.00    +0.001 A 
ATOM     27  C   UNL     1      -6.530  -1.102   4.292  0.00  0.00    +0.010 A 
ATOM     28  C   UNL     1      -7.553  -0.904   5.176  0.00  0.00    +0.001 A 
ATOM     29  C   UNL     1      -7.669  -1.699   6.308  0.00  0.00    +0.002 A 
ATOM     30  C   UNL     1      -6.756  -2.699   6.561  0.00  0.00    +0.026 A 
BRANCH  24  31
ATOM     31  C   UNL     1      -4.403  -4.838   6.659  0.00  0.00    +0.217 C 
BRANCH  31  32
ATOM     32  C   UNL     1      -5.216  -6.068   6.346  0.00  0.00    +0.230 C 
ATOM     33  O   UNL     1      -5.940  -6.085   5.373  0.00  0.00    -0.274 OA
ATOM     34  N   UNL     1      -5.140  -7.148   7.148  0.00  0.00    -0.328 N 
ATOM     35  H   UNL     1      -4.561  -7.135   7.926  0.00  0.00    +0.145 HD
ATOM     36  H   UNL     1      -5.663  -7.940   6.947  0.00  0.00    +0.145 HD
ENDBRANCH  31  32
ENDBRANCH  24  31
ENDBRANCH  21  22
ENDBRANCH   9  21
TORSDOF 8
