REMARK  Name = ZINC58786795
REMARK  10 active torsions:
REMARK  status: ('A' for Active; 'I' for Inactive)
REMARK    1  A    between atoms: C_1  and  C_2
REMARK    2  A    between atoms: C_6  and  N_9
REMARK    3  A    between atoms: C_7  and  C_8
REMARK    4  A    between atoms: N_9  and  C_10
REMARK    5  A    between atoms: C_10  and  C_11
REMARK    6  A    between atoms: C_10  and  C_12
REMARK    7  A    between atoms: C_12  and  C_14
REMARK    8  A    between atoms: C_15  and  N_24
REMARK    9  A    between atoms: N_16  and  C_23
REMARK   10  A    between atoms: N_19  and  C_22
REMARK                            x       y       z     vdW  Elec       q    Type
REMARK                         _______ _______ _______ _____ _____    ______ ____
ROOT
ATOM      1  C   UNL     1      -1.892  -4.403   2.390  0.00  0.00    +0.158 C 
ATOM      2  O   UNL     1      -2.955  -3.841   2.219  0.00  0.00    -0.294 OA
ENDROOT
BRANCH   1   3
ATOM      3  C   UNL     1      -1.862  -5.791   2.643  0.00  0.00    +0.118 A 
ATOM      4  C   UNL     1      -3.036  -6.562   2.601  0.00  0.00    +0.116 A 
ATOM      5  N   UNL     1      -2.956  -7.902   2.853  0.00  0.00    -0.284 N 
ATOM      6  C   UNL     1      -1.783  -8.490   3.137  0.00  0.00    +0.333 A 
ATOM      7  O   UNL     1      -1.765  -9.686   3.353  0.00  0.00    -0.246 OA
ATOM      8  N   UNL     1      -0.629  -7.805   3.191  0.00  0.00    -0.263 N 
ATOM      9  C   UNL     1      -0.601  -6.478   2.952  0.00  0.00    +0.269 A 
ATOM     10  O   UNL     1       0.448  -5.861   2.996  0.00  0.00    -0.267 OA
ATOM     11  C   UNL     1       0.616  -8.510   3.507  0.00  0.00    +0.157 C 
ATOM     12  C   UNL     1      -4.175  -8.715   2.812  0.00  0.00    +0.155 C 
BRANCH   4  13
ATOM     13  N   UNL     1      -4.234  -5.983   2.315  0.00  0.00    -0.344 N 
ATOM     14  H   UNL     1      -4.264  -5.155   1.812  0.00  0.00    +0.144 HD
ATOM     15  H   UNL     1      -5.057  -6.399   2.615  0.00  0.00    +0.144 HD
ENDBRANCH   4  13
ENDBRANCH   1   3
BRANCH   1  16
ATOM     16  C   UNL     1      -0.607  -3.619   2.332  0.00  0.00    -0.002 C 
ATOM     17  C   UNL     1       0.049  -3.816   0.963  0.00  0.00    -0.006 C 
BRANCH  16  18
ATOM     18  N   UNL     1      -0.893  -2.193   2.538  0.00  0.00    +0.388 N 
ATOM     19  H   UNL     1      -1.590  -1.891   1.874  0.00  0.00    -0.084 HD
ATOM     20  H   UNL     1      -0.048  -1.658   2.405  0.00  0.00    -0.084 HD
BRANCH  18  26
ATOM     21  C   UNL     1      -1.097   1.852   3.979  0.00  0.00    +0.008 C 
ATOM     22  C   UNL     1      -0.651   0.397   3.814  0.00  0.00    -0.013 C 
ATOM     23  C   UNL     1       0.461   0.088   4.818  0.00  0.00    +0.003 C 
ATOM     24  C   UNL     1       0.907  -1.366   4.653  0.00  0.00    -0.001 C 
ATOM     25  C   UNL     1      -0.282  -2.296   4.907  0.00  0.00    -0.015 C 
ATOM     26  C   UNL     1      -1.394  -1.986   3.903  0.00  0.00    -0.068 C 
ATOM     27  C   UNL     1      -1.840  -0.532   4.068  0.00  0.00    -0.025 C 
ATOM     28  C   UNL     1      -2.952  -0.223   3.064  0.00  0.00    +0.006 C 
ENDBRANCH  18  26
ENDBRANCH  16  18
ENDBRANCH   1  16
TORSDOF 5
