REMARK  Name = ZINC66732945
REMARK  6 active torsions:
REMARK  status: ('A' for Active; 'I' for Inactive)
REMARK    1  A    between atoms: C_1  and  C_2
REMARK    2  A    between atoms: C_2  and  C_3
REMARK    3  A    between atoms: C_3  and  N_4
REMARK    4  A    between atoms: C_8  and  C_11
REMARK    5  A    between atoms: C_20  and  C_24
REMARK    6  A    between atoms: C_22  and  C_23
REMARK                            x       y       z     vdW  Elec       q    Type
REMARK                         _______ _______ _______ _____ _____    ______ ____
ROOT
ATOM      1  N   UNL     1      -1.063  -2.014   0.002  0.00  0.00    -0.278 N 
ATOM      2  C   UNL     1      -1.145  -2.686  -1.202  0.00  0.00    +0.150 A 
ATOM      3  C   UNL     1      -1.982  -3.816  -1.285  0.00  0.00    +0.083 A 
ATOM      4  C   UNL     1      -2.084  -4.511  -2.484  0.00  0.00    +0.031 A 
ATOM      5  C   UNL     1      -1.336  -4.047  -3.574  0.00  0.00    +0.056 A 
ATOM      6  C   UNL     1      -0.528  -2.917  -3.412  0.00  0.00    +0.126 A 
ATOM      7  N   UNL     1      -0.457  -2.285  -2.260  0.00  0.00    -0.236 NA
ATOM      8  C   UNL     1      -2.729  -4.226  -0.083  0.00  0.00    +0.263 A 
ATOM      9  O   UNL     1      -3.464  -5.195  -0.104  0.00  0.00    -0.267 OA
ATOM     10  N   UNL     1      -2.575  -3.496   1.044  0.00  0.00    -0.274 N 
ATOM     11  H   UNL     1      -3.058  -3.749   1.846  0.00  0.00    +0.173 HD
ATOM     12  C   UNL     1      -1.760  -2.430   1.072  0.00  0.00    +0.331 A 
ATOM     13  O   UNL     1      -1.652  -1.810   2.112  0.00  0.00    -0.246 OA
ENDROOT
BRANCH   5  14
ATOM     14  C   UNL     1      -1.400  -4.741  -4.875  0.00  0.00    +0.252 C 
ATOM     15  O   UNL     1      -1.347  -5.955  -4.920  0.00  0.00    -0.270 OA
ATOM     16  N   UNL     1      -1.518  -4.029  -6.013  0.00  0.00    -0.267 N 
ATOM     17  C   UNL     1      -1.533  -2.560  -5.977  0.00  0.00    +0.114 C 
ATOM     18  C   UNL     1      -2.658  -2.081  -6.904  0.00  0.00    +0.024 C 
ATOM     19  C   UNL     1      -2.336  -2.511  -8.335  0.00  0.00    +0.039 C 
ATOM     20  C   UNL     1      -2.018  -3.982  -8.384  0.00  0.00    -0.023 A 
ATOM     21  C   UNL     1      -1.621  -4.677  -7.251  0.00  0.00    +0.040 A 
ATOM     22  C   UNL     1      -1.325  -6.033  -7.332  0.00  0.00    +0.027 A 
ATOM     23  C   UNL     1      -1.424  -6.691  -8.542  0.00  0.00    -0.048 A 
ATOM     24  C   UNL     1      -1.818  -5.999  -9.673  0.00  0.00    +0.007 A 
ATOM     25  C   UNL     1      -2.121  -4.650  -9.593  0.00  0.00    -0.045 A 
ATOM     26  C   UNL     1      -2.550  -3.902 -10.829  0.00  0.00    +0.044 C 
ATOM     27  C   UNL     1      -1.103  -8.161  -8.630  0.00  0.00    +0.044 C 
ENDBRANCH   5  14
BRANCH   1  28
ATOM     28  C   UNL     1      -0.200  -0.836   0.115  0.00  0.00    +0.128 C 
BRANCH  28  30
ATOM     29  C   UNL     1       2.104  -0.040   0.663  0.00  0.00    +0.005 C 
ATOM     30  C   UNL     1       1.203  -1.270   0.544  0.00  0.00    +0.018 C 
ENDBRANCH  28  30
ENDBRANCH   1  28
TORSDOF 3
