REMARK  Name = ZINC26901660
REMARK  8 active torsions:
REMARK  status: ('A' for Active; 'I' for Inactive)
REMARK    1  A    between atoms: C_1  and  C_2
REMARK    2  A    between atoms: C_2  and  C_3
REMARK    3  A    between atoms: C_3  and  C_5
REMARK    4  A    between atoms: C_3  and  C_6
REMARK    5  A    between atoms: C_6  and  C_8
REMARK    6  A    between atoms: C_6  and  N_23
REMARK    7  A    between atoms: N_10  and  C_11
REMARK    8  A    between atoms: C_20  and  C_22
REMARK                            x       y       z     vdW  Elec       q    Type
REMARK                         _______ _______ _______ _____ _____    ______ ____
ROOT
ATOM      1  C   UNL     1       1.477   1.493   2.626  0.00  0.00    +0.238 C 
ATOM      2  O   UNL     1       1.823   2.357   3.404  0.00  0.00    -0.273 OA
ATOM      3  N   UNL     1       2.361   0.989   1.742  0.00  0.00    -0.284 N 
ATOM      4  H   UNL     1       2.072   0.149   1.094  0.00  0.00    +0.155 HD
ENDROOT
BRANCH   3   5
ATOM      5  C   UNL     1       3.647   1.536   1.649  0.00  0.00    +0.034 A 
ATOM      6  C   UNL     1       4.729   0.725   1.328  0.00  0.00    +0.025 A 
ATOM      7  C   UNL     1       5.994   1.263   1.236  0.00  0.00    +0.025 A 
ATOM      8  C   UNL     1       6.200   2.625   1.464  0.00  0.00    +0.040 A 
ATOM      9  C   UNL     1       5.117   3.428   1.783  0.00  0.00    -0.023 A 
ATOM     10  C   UNL     1       3.847   2.892   1.870  0.00  0.00    +0.028 A 
ATOM     11  C   UNL     1       5.608   4.845   1.977  0.00  0.00    +0.056 C 
ATOM     12  C   UNL     1       7.123   4.767   1.730  0.00  0.00    +0.118 C 
ATOM     13  N   UNL     1       7.391   3.360   1.421  0.00  0.00    -0.271 N 
ATOM     14  C   UNL     1       8.605   2.849   1.137  0.00  0.00    +0.217 C 
ATOM     15  O   UNL     1       8.711   1.687   0.805  0.00  0.00    -0.276 OA
ATOM     16  C   UNL     1       9.831   3.720   1.233  0.00  0.00    +0.109 C 
ENDBRANCH   3   5
BRANCH   1  17
ATOM     17  C   UNL     1       0.059   0.984   2.647  0.00  0.00    +0.163 C 
BRANCH  17  18
ATOM     18  N   UNL     1      -0.554   1.301   3.939  0.00  0.00    -0.288 N 
ATOM     19  C   UNL     1      -0.663   2.584   4.337  0.00  0.00    +0.298 C 
ATOM     20  O   UNL     1      -0.252   3.479   3.623  0.00  0.00    -0.253 OA
ATOM     21  N   UNL     1      -1.228   2.876   5.525  0.00  0.00    -0.313 N 
ATOM     22  H   UNL     1      -0.926   0.492   4.584  0.00  0.00    +0.151 HD
ATOM     23  H   UNL     1      -1.316   3.923   5.850  0.00  0.00    +0.146 HD
ATOM     24  H   UNL     1      -1.599   2.067   6.171  0.00  0.00    +0.146 HD
ENDBRANCH  17  18
BRANCH  17  25
ATOM     25  C   UNL     1      -0.739   1.653   1.526  0.00  0.00    +0.015 C 
ATOM     26  C   UNL     1      -0.099   1.322   0.176  0.00  0.00    +0.010 C 
BRANCH  25  28
ATOM     27  C   UNL     1      -3.009   1.894   0.508  0.00  0.00    +0.004 C 
ATOM     28  C   UNL     1      -2.179   1.136   1.547  0.00  0.00    +0.002 C 
ENDBRANCH  25  28
ENDBRANCH  17  25
ENDBRANCH   1  17
TORSDOF 5
