REMARK  Name = ZINC26988926
REMARK  10 active torsions:
REMARK  status: ('A' for Active; 'I' for Inactive)
REMARK    1  A    between atoms: C_1  and  C_2
REMARK    2  A    between atoms: C_2  and  C_4
REMARK    3  A    between atoms: C_2  and  N_14
REMARK    4  A    between atoms: N_9  and  C_10
REMARK    5  A    between atoms: C_10  and  C_11
REMARK    6  A    between atoms: C_11  and  C_12
REMARK    7  A    between atoms: C_11  and  C_13
REMARK    8  A    between atoms: N_14  and  C_15
REMARK    9  A    between atoms: C_18  and  N_21
REMARK   10  A    between atoms: C_22  and  C_24
REMARK                            x       y       z     vdW  Elec       q    Type
REMARK                         _______ _______ _______ _____ _____    ______ ____
ROOT
ATOM      1  N   UNL     1      -1.388  -0.495   0.006  0.00  0.00    -0.333 N 
ATOM      2  H   UNL     1      -1.863  -0.607  -0.832  0.00  0.00    +0.147 HD
ENDROOT
BRANCH   1   3
ATOM      3  C   UNL     1      -2.065  -0.648   1.220  0.00  0.00    +0.028 A 
ATOM      4  C   UNL     1      -1.386  -0.483   2.420  0.00  0.00    +0.025 A 
ATOM      5  C   UNL     1      -2.054  -0.634   3.619  0.00  0.00    +0.025 A 
ATOM      6  C   UNL     1      -3.406  -0.953   3.624  0.00  0.00    +0.034 A 
ATOM      7  C   UNL     1      -4.085  -1.118   2.425  0.00  0.00    +0.025 A 
ATOM      8  C   UNL     1      -3.418  -0.961   1.226  0.00  0.00    +0.025 A 
BRANCH   6   9
ATOM      9  N   UNL     1      -4.084  -1.107   4.840  0.00  0.00    -0.279 N 
ATOM     10  C   UNL     1      -5.087  -2.002   4.944  0.00  0.00    +0.284 C 
ATOM     11  O   UNL     1      -5.340  -2.743   4.012  0.00  0.00    -0.266 OA
ATOM     12  H   UNL     1      -3.832  -0.570   5.607  0.00  0.00    +0.155 HD
BRANCH  10  13
ATOM     13  C   UNL     1      -5.872  -2.083   6.179  0.00  0.00    +0.189 A 
ATOM     14  C   UNL     1      -6.906  -2.942   6.418  0.00  0.00    +0.054 A 
ATOM     15  C   UNL     1      -7.362  -2.674   7.718  0.00  0.00    +0.042 A 
ATOM     16  C   UNL     1      -6.597  -1.674   8.209  0.00  0.00    +0.196 A 
ATOM     17  O   UNL     1      -5.697  -1.325   7.281  0.00  0.00    -0.458 OA
ENDBRANCH  10  13
ENDBRANCH   6   9
ENDBRANCH   1   3
BRANCH   1  19
ATOM     18  C   UNL     1       0.214   1.350   0.120  0.00  0.00    +0.038 C 
ATOM     19  C   UNL     1       0.040  -0.165  -0.000  0.00  0.00    +0.154 C 
BRANCH  19  20
ATOM     20  C   UNL     1       0.660  -0.641  -1.288  0.00  0.00    +0.240 C 
ATOM     21  O   UNL     1      -0.023  -1.201  -2.119  0.00  0.00    -0.273 OA
ATOM     22  N   UNL     1       1.974  -0.445  -1.517  0.00  0.00    -0.239 N 
ATOM     23  C   UNL     1       2.528  -0.871  -2.669  0.00  0.00    +0.306 C 
ATOM     24  O   UNL     1       1.844  -1.432  -3.502  0.00  0.00    -0.252 OA
ATOM     25  N   UNL     1       3.842  -0.675  -2.897  0.00  0.00    -0.299 N 
ATOM     26  H   UNL     1       2.520   0.002  -0.852  0.00  0.00    +0.159 HD
ATOM     27  H   UNL     1       4.388  -0.227  -2.232  0.00  0.00    +0.150 HD
BRANCH  25  28
ATOM     28  C   UNL     1       4.445  -1.138  -4.150  0.00  0.00    +0.108 C 
BRANCH  28  29
ATOM     29  C   UNL     1       5.936  -0.793  -4.156  0.00  0.00    -0.000 C 
ATOM     30  C   UNL     1       6.645  -1.578  -3.051  0.00  0.00    +0.009 C 
ATOM     31  C   UNL     1       6.539  -1.163  -5.513  0.00  0.00    +0.009 C 
ENDBRANCH  28  29
ENDBRANCH  25  28
ENDBRANCH  19  20
ENDBRANCH   1  19
TORSDOF 7
