REMARK  Name = ZINC07974479
REMARK  5 active torsions:
REMARK  status: ('A' for Active; 'I' for Inactive)
REMARK    1  A    between atoms: C_5  and  N_7
REMARK    2  A    between atoms: N_9  and  C_23
REMARK    3  A    between atoms: C_10  and  C_13
REMARK    4  A    between atoms: C_16  and  O_22
REMARK    5  A    between atoms: C_17  and  C_19
REMARK                            x       y       z     vdW  Elec       q    Type
REMARK                         _______ _______ _______ _____ _____    ______ ____
ROOT
ATOM      1  N   UNL     1      -0.553  -7.130  -2.150  0.00  0.00    -0.221 NA
ATOM      2  C   UNL     1      -0.224  -6.301  -1.178  0.00  0.00    +0.174 A 
ATOM      3  N   UNL     1      -0.030  -4.941  -1.224  0.00  0.00    -0.316 N 
ATOM      4  C   UNL     1       0.310  -4.287  -0.072  0.00  0.00    +0.058 A 
ATOM      5  C   UNL     1       0.452  -4.984   1.074  0.00  0.00    +0.075 A 
ATOM      6  S   UNL     1       0.086  -6.650   0.546  0.00  0.00    -0.057 S 
ENDROOT
BRANCH   1  11
ATOM      7  C   UNL     1      -2.322 -10.178  -1.190  0.00  0.00    +0.002 A 
ATOM      8  C   UNL     1      -1.308 -11.112  -1.307  0.00  0.00    +0.003 A 
ATOM      9  C   UNL     1      -0.041 -10.722  -1.705  0.00  0.00    +0.040 A 
ATOM     10  C   UNL     1       0.219  -9.395  -1.987  0.00  0.00    +0.149 A 
ATOM     11  C   UNL     1      -0.803  -8.447  -1.872  0.00  0.00    +0.102 A 
ATOM     12  C   UNL     1      -2.077  -8.849  -1.465  0.00  0.00    +0.031 A 
ATOM     13  F   UNL     1       1.456  -9.015  -2.374  0.00  0.00    -0.203 F 
ENDBRANCH   1  11
BRANCH   4  14
ATOM     14  C   UNL     1       0.526  -2.823  -0.083  0.00  0.00    -0.000 A 
ATOM     15  C   UNL     1      -0.261  -1.994   0.721  0.00  0.00    +0.013 A 
ATOM     16  C   UNL     1      -0.060  -0.630   0.718  0.00  0.00    +0.047 A 
ATOM     17  C   UNL     1       0.917  -0.070  -0.091  0.00  0.00    +0.129 A 
ATOM     18  C   UNL     1       1.713  -0.892  -0.902  0.00  0.00    +0.078 A 
ATOM     19  C   UNL     1       1.513  -2.272  -0.895  0.00  0.00    +0.026 A 
BRANCH  18  20
ATOM     20  C   UNL     1       2.757  -0.299  -1.759  0.00  0.00    +0.245 C 
ATOM     21  O   UNL     1       2.930   0.904  -1.763  0.00  0.00    -0.270 OA
ATOM     22  N   UNL     1       3.521  -1.092  -2.537  0.00  0.00    -0.325 N 
ATOM     23  H   UNL     1       3.383  -2.052  -2.534  0.00  0.00    +0.145 HD
ATOM     24  H   UNL     1       4.207  -0.702  -3.101  0.00  0.00    +0.145 HD
ENDBRANCH  18  20
BRANCH  17  25
ATOM     25  O   UNL     1       1.108   1.274  -0.094  0.00  0.00    -0.506 OA
ATOM     26  H   UNL     1       0.578   1.745  -0.752  0.00  0.00    +0.292 HD
ENDBRANCH  17  25
ENDBRANCH   4  14
BRANCH   3  27
ATOM     27  C   UNL     1      -0.185  -4.206  -2.483  0.00  0.00    +0.090 C 
ATOM     28  C   UNL     1      -0.824  -2.828  -2.215  0.00  0.00    +0.025 C 
ATOM     29  C   UNL     1      -1.760  -2.601  -3.429  0.00  0.00    +0.002 C 
ATOM     30  C   UNL     1      -2.334  -4.016  -3.688  0.00  0.00    +0.002 C 
ATOM     31  C   UNL     1      -1.145  -4.961  -3.419  0.00  0.00    +0.025 C 
ENDBRANCH   3  27
TORSDOF 5
