REMARK  Name = ZINC35395411
REMARK  9 active torsions:
REMARK  status: ('A' for Active; 'I' for Inactive)
REMARK    1  A    between atoms: C_1  and  C_2
REMARK    2  A    between atoms: C_5  and  S_8
REMARK    3  A    between atoms: S_8  and  O_11
REMARK    4  A    between atoms: O_11  and  C_12
REMARK    5  A    between atoms: C_14  and  O_33
REMARK    6  A    between atoms: C_16  and  C_31
REMARK    7  A    between atoms: C_19  and  N_21
REMARK    8  A    between atoms: C_29  and  N_30
REMARK    9  A    between atoms: C_31  and  O_32
REMARK                            x       y       z     vdW  Elec       q    Type
REMARK                         _______ _______ _______ _____ _____    ______ ____
ROOT
ATOM      1  C   UNL     1       2.183  -4.809   1.225  0.00  0.00    +0.230 C 
ATOM      2  C   UNL     1       2.247  -6.158   1.982  0.00  0.00    +0.181 C 
ATOM      3  C   UNL     1       3.661  -6.180   2.593  0.00  0.00    +0.177 C 
ATOM      4  O   UNL     1       4.296  -4.937   2.249  0.00  0.00    -0.346 OA
ATOM      5  C   UNL     1       3.683  -4.475   1.025  0.00  0.00    +0.256 C 
ENDROOT
BRANCH   5   6
ATOM      6  N   UNL     1       3.874  -3.032   0.865  0.00  0.00    -0.285 N 
ATOM      7  C   UNL     1       4.199  -2.147   1.849  0.00  0.00    +0.203 A 
ATOM      8  N   UNL     1       4.289  -0.946   1.356  0.00  0.00    -0.231 NA
ATOM      9  C   UNL     1       4.027  -0.984   0.027  0.00  0.00    +0.147 A 
ATOM     10  C   UNL     1       3.763  -2.323  -0.305  0.00  0.00    +0.167 A 
ATOM     11  N   UNL     1       3.479  -2.632  -1.566  0.00  0.00    -0.216 NA
ATOM     12  C   UNL     1       3.447  -1.700  -2.494  0.00  0.00    +0.225 A 
ATOM     13  N   UNL     1       3.692  -0.429  -2.231  0.00  0.00    -0.219 NA
ATOM     14  C   UNL     1       3.976  -0.024  -0.998  0.00  0.00    +0.147 A 
BRANCH  14  15
ATOM     15  N   UNL     1       4.232   1.310  -0.732  0.00  0.00    -0.341 N 
ATOM     16  H   UNL     1       4.450   1.592   0.171  0.00  0.00    +0.144 HD
ATOM     17  H   UNL     1       4.194   1.963  -1.448  0.00  0.00    +0.144 HD
ENDBRANCH  14  15
ENDBRANCH   5   6
BRANCH   2  18
ATOM     18  O   UNL     1       2.074  -7.249   1.076  0.00  0.00    -0.386 OA
ATOM     19  H   UNL     1       2.105  -8.119   1.497  0.00  0.00    +0.210 HD
ENDBRANCH   2  18
BRANCH   1  20
ATOM     20  O   UNL     1       1.522  -4.962  -0.033  0.00  0.00    -0.224 OA
BRANCH  20  21
ATOM     21  S   UNL     1       0.063  -4.530  -0.023  0.00  0.00    +0.112 S 
ATOM     22  O   UNL     1      -0.476  -4.950   1.223  0.00  0.00    -0.142 OA
ATOM     23  O   UNL     1      -0.490  -4.937  -1.267  0.00  0.00    -0.142 OA
BRANCH  21  28
ATOM     24  C   UNL     1      -0.018   1.503   0.010  0.00  0.00    +0.044 C 
ATOM     25  C   UNL     1       0.002  -0.004   0.002  0.00  0.00    -0.050 A 
ATOM     26  C   UNL     1       0.006  -0.689  -1.199  0.00  0.00    +0.005 A 
ATOM     27  C   UNL     1       0.025  -2.071  -1.206  0.00  0.00    +0.030 A 
ATOM     28  C   UNL     1       0.040  -2.768  -0.013  0.00  0.00    +0.117 A 
ATOM     29  C   UNL     1       0.037  -2.084   1.188  0.00  0.00    +0.030 A 
ATOM     30  C   UNL     1       0.023  -0.702   1.195  0.00  0.00    +0.005 A 
ENDBRANCH  21  28
ENDBRANCH  20  21
ENDBRANCH   1  20
BRANCH   3  31
ATOM     31  C   UNL     1       3.568  -6.316   4.114  0.00  0.00    +0.190 C 
BRANCH  31  32
ATOM     32  O   UNL     1       4.881  -6.453   4.662  0.00  0.00    -0.392 OA
ATOM     33  H   UNL     1       4.899  -6.544   5.624  0.00  0.00    +0.210 HD
ENDBRANCH  31  32
ENDBRANCH   3  31
TORSDOF 8
