REMARK  Name = ZINC40462947
REMARK  9 active torsions:
REMARK  status: ('A' for Active; 'I' for Inactive)
REMARK    1  A    between atoms: C_1  and  S_2
REMARK    2  A    between atoms: S_2  and  C_3
REMARK    3  A    between atoms: C_3  and  C_4
REMARK    4  A    between atoms: C_4  and  C_5
REMARK    5  A    between atoms: C_5  and  C_7
REMARK    6  A    between atoms: C_5  and  N_22
REMARK    7  A    between atoms: N_9  and  C_10
REMARK    8  A    between atoms: C_15  and  O_16
REMARK    9  A    between atoms: O_16  and  C_17
REMARK                            x       y       z     vdW  Elec       q    Type
REMARK                         _______ _______ _______ _____ _____    ______ ____
ROOT
ATOM      1  C   UNL     1       1.905  -3.789  -3.043  0.00  0.00    +0.203 C 
ATOM      2  O   UNL     1       1.161  -4.468  -3.718  0.00  0.00    -0.277 OA
ATOM      3  N   UNL     1       2.903  -4.370  -2.349  0.00  0.00    -0.284 N 
ATOM      4  H   UNL     1       3.537  -3.821  -1.860  0.00  0.00    +0.155 HD
ENDROOT
BRANCH   3   5
ATOM      5  C   UNL     1       3.025  -5.765  -2.332  0.00  0.00    +0.078 A 
ATOM      6  C   UNL     1       2.691  -6.506  -3.457  0.00  0.00    +0.047 A 
ATOM      7  C   UNL     1       2.812  -7.883  -3.439  0.00  0.00    +0.044 A 
ATOM      8  C   UNL     1       3.267  -8.526  -2.301  0.00  0.00    +0.039 A 
ATOM      9  C   UNL     1       3.602  -7.793  -1.176  0.00  0.00    +0.063 A 
ATOM     10  C   UNL     1       3.488  -6.412  -1.189  0.00  0.00    +0.162 A 
ATOM     11 BR   UNL     1       4.223  -8.676   0.376  0.00  0.00    -0.046 Br
ATOM     12 CL   UNL     1       2.393  -8.808  -4.847  0.00  0.00    -0.083 Cl
BRANCH  10  13
ATOM     13  O   UNL     1       3.823  -5.690  -0.086  0.00  0.00    -0.431 OA
BRANCH  13  14
ATOM     14  C   UNL     1       2.787  -5.446   0.868  0.00  0.00    +0.541 C 
ATOM     15  F   UNL     1       1.748  -4.737   0.256  0.00  0.00    -0.166 F 
ATOM     16  F   UNL     1       2.300  -6.665   1.350  0.00  0.00    -0.166 F 
ENDBRANCH  13  14
ENDBRANCH  10  13
ENDBRANCH   3   5
BRANCH   1  17
ATOM     17  C   UNL     1       1.713  -2.295  -2.980  0.00  0.00    +0.014 C 
BRANCH  17  18
ATOM     18  N   UNL     1       0.922  -1.854  -4.137  0.00  0.00    +0.386 N 
ATOM     19  H   UNL     1       1.407  -2.095  -4.988  0.00  0.00    -0.089 HD
ATOM     20  H   UNL     1       0.022  -2.310  -4.122  0.00  0.00    -0.089 HD
ATOM     21  H   UNL     1       0.794  -0.854  -4.095  0.00  0.00    -0.089 HD
ENDBRANCH  17  18
BRANCH  17  22
ATOM     22  C   UNL     1       0.977  -1.929  -1.690  0.00  0.00    +0.003 C 
BRANCH  22  23
ATOM     23  C   UNL     1       0.892  -0.407  -1.565  0.00  0.00    +0.068 C 
BRANCH  23  25
ATOM     24  C   UNL     1       0.004   1.841  -0.038  0.00  0.00    +0.084 C 
ATOM     25  S   UNL     1       0.019   0.027  -0.035  0.00  0.00    -0.164 S 
ENDBRANCH  23  25
ENDBRANCH  22  23
ENDBRANCH  17  22
ENDBRANCH   1  17
TORSDOF 8
