REMARK  Name = ZINC61600573
REMARK  3 active torsions:
REMARK  status: ('A' for Active; 'I' for Inactive)
REMARK    1  A    between atoms: C_9  and  C_12
REMARK    2  A    between atoms: N_17  and  C_20
REMARK    3  A    between atoms: C_20  and  C_21
REMARK                            x       y       z     vdW  Elec       q    Type
REMARK                         _______ _______ _______ _____ _____    ______ ____
ROOT
ATOM      1  C   UNL     1       6.821   0.691  -0.759  0.00  0.00    +0.263 C 
ATOM      2  O   UNL     1       7.620  -0.226  -0.753  0.00  0.00    -0.268 OA
ATOM      3  N   UNL     1       7.255   1.964  -0.671  0.00  0.00    -0.294 N 
ATOM      4  C   UNL     1       6.306   3.076  -0.511  0.00  0.00    +0.123 C 
ATOM      5  C   UNL     1       6.756   3.933   0.677  0.00  0.00    +0.103 C 
ATOM      6  N   UNL     1       8.156   4.334   0.485  0.00  0.00    -0.294 NA
ATOM      7  C   UNL     1       9.047   3.166   0.464  0.00  0.00    +0.103 C 
ATOM      8  C   UNL     1       8.691   2.277  -0.727  0.00  0.00    +0.123 C 
ENDROOT
BRANCH   1  17
ATOM      9  C   UNL     1       0.851   0.225  -1.472  0.00  0.00    +0.022 A 
ATOM     10  C   UNL     1       1.917   1.077  -1.661  0.00  0.00    +0.027 A 
ATOM     11  C   UNL     1       3.198   0.671  -1.300  0.00  0.00    +0.047 A 
ATOM     12  C   UNL     1       3.389  -0.609  -0.745  0.00  0.00    +0.002 A 
ATOM     13  C   UNL     1       2.289  -1.458  -0.563  0.00  0.00    +0.030 A 
ATOM     14  C   UNL     1       1.041  -1.038  -0.925  0.00  0.00    +0.042 A 
ATOM     15 CL   UNL     1      -0.320  -2.091  -0.698  0.00  0.00    -0.084 Cl
ATOM     16  C   UNL     1       4.774  -0.743  -0.480  0.00  0.00    +0.041 A 
ATOM     17  C   UNL     1       5.381   0.411  -0.862  0.00  0.00    +0.103 A 
ATOM     18  N   UNL     1       4.430   1.279  -1.363  0.00  0.00    -0.351 N 
ATOM     19  H   UNL     1       4.603   2.171  -1.703  0.00  0.00    +0.166 HD
ENDBRANCH   1  17
BRANCH   6  20
ATOM     20  C   UNL     1       8.574   5.296   1.513  0.00  0.00    +0.156 C 
BRANCH  20  21
ATOM     21  C   UNL     1       7.997   6.675   1.186  0.00  0.00    +0.355 C 
ATOM     22  F   UNL     1       8.365   7.038  -0.114  0.00  0.00    -0.208 F 
ATOM     23  F   UNL     1       6.602   6.631   1.281  0.00  0.00    -0.208 F 
ENDBRANCH  20  21
ENDBRANCH   6  20
TORSDOF 3
