REMARK  Name = ZINC44933266
REMARK  9 active torsions:
REMARK  status: ('A' for Active; 'I' for Inactive)
REMARK    1  A    between atoms: C_1  and  C_2
REMARK    2  A    between atoms: C_2  and  C_4
REMARK    3  A    between atoms: C_2  and  N_9
REMARK    4  A    between atoms: C_10  and  C_12
REMARK    5  A    between atoms: C_12  and  C_14
REMARK    6  A    between atoms: C_12  and  C_17
REMARK    7  A    between atoms: C_14  and  C_15
REMARK    8  A    between atoms: C_14  and  C_16
REMARK    9  A    between atoms: C_17  and  N_19
REMARK                            x       y       z     vdW  Elec       q    Type
REMARK                         _______ _______ _______ _____ _____    ______ ____
ROOT
ATOM      1  N   UNL     1       0.711  -0.489   1.189  0.00  0.00    -0.305 N 
ATOM      2  C   UNL     1       2.054  -0.600   1.174  0.00  0.00    +0.223 C 
ATOM      3  O   UNL     1       2.676  -0.297   0.177  0.00  0.00    -0.275 OA
ATOM      4  H   UNL     1       0.213  -0.731   1.986  0.00  0.00    +0.149 HD
ENDROOT
BRANCH   1   6
ATOM      5  C   UNL     1      -0.019   1.526   0.010  0.00  0.00    +0.036 C 
ATOM      6  C   UNL     1       0.002  -0.004   0.002  0.00  0.00    +0.142 C 
BRANCH   6   7
ATOM      7  C   UNL     1      -1.412  -0.526   0.013  0.00  0.00    +0.196 A 
ATOM      8  N   UNL     1      -2.067  -1.052  -1.011  0.00  0.00    -0.109 NA
ATOM      9  N   UNL     1      -3.245  -1.375  -0.596  0.00  0.00    -0.021 NA
ATOM     10  N   UNL     1      -3.348  -1.069   0.650  0.00  0.00    -0.021 NA
ATOM     11  N   UNL     1      -2.236  -0.552   1.050  0.00  0.00    -0.109 NA
ENDBRANCH   6   7
ENDBRANCH   1   6
BRANCH   2  12
ATOM     12  C   UNL     1       2.783  -1.099   2.395  0.00  0.00    +0.129 C 
BRANCH  12  13
ATOM     13  C   UNL     1       4.287  -1.129   2.114  0.00  0.00    +0.001 C 
ATOM     14  C   UNL     1       5.026  -1.635   3.354  0.00  0.00    +0.008 C 
ATOM     15  C   UNL     1       4.567  -2.062   0.935  0.00  0.00    +0.008 C 
ENDBRANCH  12  13
BRANCH  12  16
ATOM     16  C   UNL     1       2.506  -0.179   3.556  0.00  0.00    +0.058 C 
ATOM     17  S   UNL     1       1.806  -0.747   4.876  0.00  0.00    -0.040 S 
BRANCH  16  18
ATOM     18  N   UNL     1       2.849   1.122   3.481  0.00  0.00    -0.355 N 
ATOM     19  H   UNL     1       3.274   1.467   2.680  0.00  0.00    +0.143 HD
ATOM     20  H   UNL     1       2.671   1.714   4.229  0.00  0.00    +0.143 HD
ENDBRANCH  16  18
ENDBRANCH  12  16
ENDBRANCH   2  12
TORSDOF 6
