REMARK  Name = ZINC49359082
REMARK  9 active torsions:
REMARK  status: ('A' for Active; 'I' for Inactive)
REMARK    1  A    between atoms: C_1  and  C_2
REMARK    2  A    between atoms: C_2  and  C_3
REMARK    3  A    between atoms: C_3  and  C_4
REMARK    4  A    between atoms: C_4  and  C_6
REMARK    5  A    between atoms: C_4  and  N_7
REMARK    6  A    between atoms: N_10  and  C_11
REMARK    7  A    between atoms: C_14  and  C_19
REMARK    8  A    between atoms: C_16  and  O_17
REMARK    9  A    between atoms: O_17  and  C_18
REMARK                            x       y       z     vdW  Elec       q    Type
REMARK                         _______ _______ _______ _____ _____    ______ ____
ROOT
ATOM      1  N   UNL     1      -0.600  -2.556   1.380  0.00  0.00    -0.297 N 
ATOM      2  C   UNL     1      -0.916  -3.776   0.900  0.00  0.00    +0.304 C 
ATOM      3  O   UNL     1      -0.064  -4.457   0.364  0.00  0.00    -0.252 OA
ATOM      4  N   UNL     1      -2.176  -4.239   1.014  0.00  0.00    -0.266 N 
ATOM      5  H   UNL     1      -1.280  -2.013   1.807  0.00  0.00    +0.151 HD
ATOM      6  H   UNL     1      -2.841  -3.724   1.498  0.00  0.00    +0.156 HD
ENDROOT
BRANCH   4   7
ATOM      7  C   UNL     1      -2.527  -5.466   0.433  0.00  0.00    +0.077 A 
ATOM      8  C   UNL     1      -1.607  -6.503   0.389  0.00  0.00    +0.027 A 
ATOM      9  C   UNL     1      -1.955  -7.711  -0.185  0.00  0.00    +0.005 A 
ATOM     10  C   UNL     1      -3.220  -7.890  -0.715  0.00  0.00    -0.047 A 
ATOM     11  C   UNL     1      -4.142  -6.861  -0.674  0.00  0.00    +0.051 A 
ATOM     12  C   UNL     1      -3.803  -5.648  -0.096  0.00  0.00    +0.141 A 
ATOM     13  C   UNL     1      -3.593  -9.210  -1.339  0.00  0.00    +0.044 C 
BRANCH  12  14
ATOM     14  O   UNL     1      -4.710  -4.637  -0.051  0.00  0.00    -0.493 OA
ATOM     15  C   UNL     1      -5.998  -4.896  -0.613  0.00  0.00    +0.277 C 
ENDBRANCH  12  14
ENDBRANCH   4   7
BRANCH   1  16
ATOM     16  C   UNL     1       0.770  -2.053   1.256  0.00  0.00    +0.071 C 
ATOM     17  C   UNL     1       1.611  -2.569   2.425  0.00  0.00    +0.028 C 
BRANCH  16  18
ATOM     18  C   UNL     1       0.754  -0.523   1.275  0.00  0.00    +0.022 C 
BRANCH  18  20
ATOM     19  C   UNL     1       0.003   1.526   0.057  0.00  0.00    +0.004 C 
ATOM     20  C   UNL     1       0.019  -0.004   0.038  0.00  0.00    -0.002 C 
ENDBRANCH  18  20
ENDBRANCH  16  18
ENDBRANCH   1  16
TORSDOF 5
