REMARK  Name = ZINC15226110
REMARK  8 active torsions:
REMARK  status: ('A' for Active; 'I' for Inactive)
REMARK    1  A    between atoms: C_1  and  C_2
REMARK    2  A    between atoms: C_2  and  O_3
REMARK    3  A    between atoms: O_3  and  C_4
REMARK    4  A    between atoms: C_6  and  C_11
REMARK    5  A    between atoms: C_9  and  O_10
REMARK    6  A    between atoms: N_12  and  N_13
REMARK    7  A    between atoms: C_14  and  C_16
REMARK    8  A    between atoms: N_18  and  C_19
REMARK                            x       y       z     vdW  Elec       q    Type
REMARK                         _______ _______ _______ _____ _____    ______ ____
ROOT
ATOM      1  C   UNL     1       0.915   2.660   8.213  0.00  0.00    +0.138 C 
ATOM      2  N   UNL     1       1.287   2.674   6.968  0.00  0.00    -0.187 NA
ENDROOT
BRANCH   1   5
ATOM      3  C   UNL     1       2.370   3.370  11.600  0.00  0.00    +0.162 A 
ATOM      4  C   UNL     1       1.471   3.019  10.611  0.00  0.00    +0.059 A 
ATOM      5  C   UNL     1       1.869   3.034   9.272  0.00  0.00    -0.002 A 
ATOM      6  C   UNL     1       3.177   3.398   8.939  0.00  0.00    +0.013 A 
ATOM      7  C   UNL     1       4.067   3.752   9.931  0.00  0.00    +0.050 A 
ATOM      8  C   UNL     1       3.671   3.738  11.261  0.00  0.00    +0.158 A 
BRANCH   8   9
ATOM      9  O   UNL     1       4.554   4.083  12.235  0.00  0.00    -0.503 OA
ATOM     10  H   UNL     1       5.065   3.340  12.584  0.00  0.00    +0.292 HD
ENDBRANCH   8   9
BRANCH   3  11
ATOM     11  O   UNL     1       1.986   3.357  12.905  0.00  0.00    -0.489 OA
BRANCH  11  13
ATOM     12  C   UNL     1       0.393   3.016  14.690  0.00  0.00    +0.048 C 
ATOM     13  C   UNL     1       0.638   2.970  13.180  0.00  0.00    +0.226 C 
ENDBRANCH  11  13
ENDBRANCH   3  11
ENDBRANCH   1   5
BRANCH   2  14
ATOM     14  N   UNL     1       0.380   2.318   5.962  0.00  0.00    -0.199 N 
ATOM     15  C   UNL     1       0.766   2.333   4.671  0.00  0.00    +0.318 C 
ATOM     16  O   UNL     1       1.901   2.654   4.380  0.00  0.00    -0.263 OA
ATOM     17  H   UNL     1      -0.526   2.062   6.194  0.00  0.00    +0.178 HD
BRANCH  15  18
ATOM     18  C   UNL     1      -0.200   1.954   3.599  0.00  0.00    +0.301 C 
ATOM     19  O   UNL     1      -1.334   1.633   3.890  0.00  0.00    -0.265 OA
ATOM     20  N   UNL     1       0.186   1.969   2.308  0.00  0.00    -0.305 N 
ATOM     21  H   UNL     1       1.092   2.226   2.075  0.00  0.00    +0.149 HD
BRANCH  20  22
ATOM     22  C   UNL     1      -0.763   1.597   1.255  0.00  0.00    +0.073 C 
ATOM     23  C   UNL     1      -0.013   1.086   0.008  0.00  0.00    +0.022 C 
ATOM     24  C   UNL     1      -0.784   1.609  -1.216  0.00  0.00    +0.002 C 
ATOM     25  C   UNL     1      -1.978   2.421  -0.670  0.00  0.00    +0.002 C 
ATOM     26  C   UNL     1      -1.531   2.845   0.750  0.00  0.00    +0.022 C 
ENDBRANCH  20  22
ENDBRANCH  15  18
ENDBRANCH   2  14
TORSDOF 7
