REMARK  Name = ZINC19974115
REMARK  5 active torsions:
REMARK  status: ('A' for Active; 'I' for Inactive)
REMARK    1  A    between atoms: C_1  and  C_2
REMARK    2  A    between atoms: C_5  and  N_11
REMARK    3  A    between atoms: C_7  and  N_8
REMARK    4  A    between atoms: C_12  and  C_14
REMARK    5  A    between atoms: C_22  and  N_31
REMARK                            x       y       z     vdW  Elec       q    Type
REMARK                         _______ _______ _______ _____ _____    ______ ____
ROOT
ATOM      1  C   UNL     1       0.275  -6.310   0.435  0.00  0.00    +0.121 C 
ATOM      2  C   UNL     1       1.665  -6.458   1.057  0.00  0.00    +0.113 C 
ATOM      3  C   UNL     1       2.712  -6.435  -0.026  0.00  0.00    +0.219 C 
ATOM      4  O   UNL     1       3.771  -5.880   0.175  0.00  0.00    -0.275 OA
ATOM      5  N   UNL     1       2.485  -7.025  -1.213  0.00  0.00    -0.270 N 
ATOM      6  C   UNL     1       1.243  -7.571  -1.508  0.00  0.00    +0.136 A 
ATOM      7  C   UNL     1       0.140  -7.255  -0.727  0.00  0.00    +0.045 A 
ATOM      8  C   UNL     1      -1.088  -7.827  -1.040  0.00  0.00    +0.127 A 
ATOM      9  N   UNL     1      -1.167  -8.644  -2.089  0.00  0.00    -0.199 NA
ATOM     10  C   UNL     1      -0.098  -8.904  -2.827  0.00  0.00    +0.221 A 
ATOM     11  N   UNL     1       1.086  -8.379  -2.552  0.00  0.00    -0.199 NA
ATOM     12  N   UNL     1      -0.223  -9.748  -3.916  0.00  0.00    -0.300 N 
ATOM     13  C   UNL     1       0.864 -10.139  -4.826  0.00  0.00    +0.108 C 
ATOM     14  C   UNL     1       0.253 -11.067  -5.898  0.00  0.00    +0.020 C 
ATOM     15  C   UNL     1      -1.252 -10.693  -5.863  0.00  0.00    +0.020 C 
ATOM     16  C   UNL     1      -1.466 -10.411  -4.352  0.00  0.00    +0.108 C 
ATOM     17  H   UNL     1       3.197  -7.070  -1.870  0.00  0.00    +0.156 HD
ENDROOT
BRANCH   1  19
ATOM     18  N   UNL     1       0.165  -3.870   0.830  0.00  0.00    -0.285 N 
ATOM     19  C   UNL     1       0.088  -4.894  -0.044  0.00  0.00    +0.225 C 
ATOM     20  O   UNL     1      -0.133  -4.675  -1.216  0.00  0.00    -0.275 OA
ATOM     21  H   UNL     1       0.266  -4.049   1.778  0.00  0.00    +0.155 HD
BRANCH  18  26
ATOM     22  C   UNL     1      -0.099   1.480  -1.038  0.00  0.00    +0.046 C 
ATOM     23  C   UNL     1      -0.029   0.059  -0.542  0.00  0.00    -0.020 A 
ATOM     24  C   UNL     1       0.561  -0.917  -1.325  0.00  0.00    +0.007 A 
ATOM     25  C   UNL     1       0.627  -2.220  -0.873  0.00  0.00    +0.024 A 
ATOM     26  C   UNL     1       0.100  -2.551   0.369  0.00  0.00    +0.036 A 
ATOM     27  C   UNL     1      -0.492  -1.569   1.152  0.00  0.00    +0.056 A 
ATOM     28  C   UNL     1      -0.550  -0.266   0.697  0.00  0.00    +0.131 A 
BRANCH  28  29
ATOM     29  N   UNL     1      -1.176   0.782   1.534  0.00  0.00    +0.057 N 
ATOM     30  O   UNL     1      -0.711   1.898   1.552  0.00  0.00    -0.126 OA
ATOM     31  O   UNL     1      -2.152   0.522   2.198  0.00  0.00    -0.126 OA
ENDBRANCH  28  29
ENDBRANCH  18  26
ENDBRANCH   1  19
BRANCH   8  32
ATOM     32  N   UNL     1      -2.209  -7.552  -0.273  0.00  0.00    -0.343 N 
ATOM     33  H   UNL     1      -2.142  -6.956   0.489  0.00  0.00    +0.144 HD
ATOM     34  H   UNL     1      -3.062  -7.956  -0.499  0.00  0.00    +0.144 HD
ENDBRANCH   8  32
TORSDOF 4
