REMARK  Name = ZINC11334069
REMARK  4 active torsions:
REMARK  status: ('A' for Active; 'I' for Inactive)
REMARK    1  A    between atoms: C_1  and  C_2
REMARK    2  A    between atoms: C_4  and  C_22
REMARK    3  A    between atoms: N_8  and  N_9
REMARK    4  A    between atoms: C_10  and  C_12
REMARK                            x       y       z     vdW  Elec       q    Type
REMARK                         _______ _______ _______ _____ _____    ______ ____
ROOT
ATOM      1  N   UNL     1       2.767   7.730   0.019  0.00  0.00    -0.230 N 
ATOM      2  C   UNL     1       3.140   6.435   0.008  0.00  0.00    +0.268 C 
ATOM      3  O   UNL     1       4.322   6.143  -0.005  0.00  0.00    -0.268 OA
ATOM      4  H   UNL     1       1.825   7.963   0.029  0.00  0.00    +0.173 HD
ENDROOT
BRANCH   1  12
ATOM      5  C   UNL     1       0.194  11.964   0.068  0.00  0.00    +0.066 C 
ATOM      6  C   UNL     1       1.663  11.631   0.051  0.00  0.00    +0.044 A 
ATOM      7  C   UNL     1       2.612  12.641   0.048  0.00  0.00    +0.046 A 
ATOM      8  C   UNL     1       3.953  12.292   0.034  0.00  0.00    +0.044 A 
ATOM      9  N   UNL     1       4.286  11.011   0.023  0.00  0.00    -0.219 NA
ATOM     10  C   UNL     1       3.354  10.069   0.027  0.00  0.00    +0.232 A 
ATOM     11  N   UNL     1       2.064  10.370   0.035  0.00  0.00    -0.219 NA
ATOM     12  N   UNL     1       3.738   8.740   0.015  0.00  0.00    -0.232 N 
ATOM     13  C   UNL     1       5.019  13.357   0.030  0.00  0.00    +0.066 C 
ATOM     14  H   UNL     1       4.680   8.507   0.005  0.00  0.00    +0.173 HD
ENDBRANCH   1  12
BRANCH   2  15
ATOM     15  C   UNL     1       2.122   5.377   0.011  0.00  0.00    +0.095 A 
ATOM     16  C   UNL     1       2.301   4.028   0.002  0.00  0.00    +0.068 A 
ATOM     17  C   UNL     1       1.184   3.173   0.008  0.00  0.00    +0.008 A 
ATOM     18  C   UNL     1       1.164   1.754   0.000  0.00  0.00    +0.010 A 
ATOM     19  C   UNL     1      -0.013   1.076   0.008  0.00  0.00    +0.001 A 
ATOM     20  C   UNL     1      -1.235   1.737   0.017  0.00  0.00    +0.001 A 
ATOM     21  C   UNL     1      -1.261   3.117   0.030  0.00  0.00    +0.016 A 
ATOM     22  C   UNL     1      -0.075   3.819   0.023  0.00  0.00    +0.021 A 
ATOM     23  S   UNL     1       0.346   5.544   0.029  0.00  0.00    -0.082 S 
ATOM     24 CL   UNL     1       3.905   3.364  -0.017  0.00  0.00    -0.082 Cl
ENDBRANCH   2  15
TORSDOF 2
