REMARK  Name = ZINC62580104
REMARK  6 active torsions:
REMARK  status: ('A' for Active; 'I' for Inactive)
REMARK    1  A    between atoms: C_1  and  N_2
REMARK    2  A    between atoms: C_6  and  C_9
REMARK    3  A    between atoms: C_15  and  C_17
REMARK    4  A    between atoms: C_18  and  C_26
REMARK    5  A    between atoms: C_26  and  S_27
REMARK    6  A    between atoms: S_27  and  C_28
REMARK                            x       y       z     vdW  Elec       q    Type
REMARK                         _______ _______ _______ _____ _____    ______ ____
ROOT
ATOM      1  C   UNL     1       1.428  -5.067  -0.933  0.00  0.00    +0.195 A 
ATOM      2  C   UNL     1       1.934  -6.327  -0.897  0.00  0.00    +0.021 A 
ATOM      3  C   UNL     1       1.749  -6.876  -2.240  0.00  0.00    +0.025 A 
ATOM      4  C   UNL     1       2.051  -8.101  -2.841  0.00  0.00    +0.012 A 
ATOM      5  C   UNL     1       1.738  -8.305  -4.155  0.00  0.00    +0.001 A 
ATOM      6  C   UNL     1       1.124  -7.305  -4.896  0.00  0.00    +0.004 A 
ATOM      7  C   UNL     1       0.818  -6.090  -4.322  0.00  0.00    +0.047 A 
ATOM      8  C   UNL     1       1.126  -5.859  -2.986  0.00  0.00    +0.136 A 
ATOM      9  O   UNL     1       0.949  -4.804  -2.167  0.00  0.00    -0.450 OA
ENDROOT
BRANCH   1  17
ATOM     10  C   UNL     1       1.988   1.181  -0.637  0.00  0.00    -0.096 C 
ATOM     11  N   UNL     1       1.292  -0.096  -0.426  0.00  0.00    +0.380 N 
ATOM     12  C   UNL     1       1.645  -1.028  -1.504  0.00  0.00    -0.060 C 
ATOM     13  C   UNL     1       0.833  -2.318  -1.348  0.00  0.00    +0.090 C 
ATOM     14  N   UNL     1       1.052  -2.846   0.007  0.00  0.00    -0.292 N 
ATOM     15  C   UNL     1       0.878  -1.930   1.145  0.00  0.00    +0.090 C 
ATOM     16  C   UNL     1       1.688  -0.658   0.872  0.00  0.00    -0.052 C 
ATOM     17  C   UNL     1       1.400  -4.134   0.202  0.00  0.00    +0.283 C 
ATOM     18  O   UNL     1       1.692  -4.523   1.317  0.00  0.00    -0.267 OA
ATOM     19  H   UNL     1       0.295   0.061  -0.433  0.00  0.00    -0.082 HD
BRANCH  15  20
ATOM     20  C   UNL     1       1.373  -2.589   2.406  0.00  0.00    -0.029 A 
ATOM     21  C   UNL     1       2.721  -2.845   2.570  0.00  0.00    +0.005 A 
ATOM     22  C   UNL     1       3.175  -3.449   3.727  0.00  0.00    +0.000 A 
ATOM     23  C   UNL     1       2.280  -3.798   4.721  0.00  0.00    +0.000 A 
ATOM     24  C   UNL     1       0.931  -3.541   4.558  0.00  0.00    +0.000 A 
ATOM     25  C   UNL     1       0.478  -2.933   3.403  0.00  0.00    +0.005 A 
ENDBRANCH  15  20
ENDBRANCH   1  17
BRANCH   2  26
ATOM     26  C   UNL     1       2.560  -7.018   0.286  0.00  0.00    +0.117 C 
BRANCH  26  27
ATOM     27  S   UNL     1       1.278  -7.899   1.220  0.00  0.00    -0.083 S 
BRANCH  27  28
ATOM     28  C   UNL     1       2.158  -8.644   2.553  0.00  0.00    +0.169 A 
ATOM     29  N   UNL     1       3.460  -8.460   2.653  0.00  0.00    -0.232 NA
ATOM     30  C   UNL     1       4.161  -9.005   3.644  0.00  0.00    +0.119 A 
ATOM     31  C   UNL     1       3.537  -9.772   4.585  0.00  0.00    +0.090 A 
ATOM     32  C   UNL     1       2.149  -9.974   4.485  0.00  0.00    +0.252 A 
ATOM     33  N   UNL     1       1.481  -9.396   3.464  0.00  0.00    -0.302 N 
ATOM     34  O   UNL     1       1.559 -10.655   5.308  0.00  0.00    -0.268 OA
ATOM     35  H   UNL     1       0.522  -9.518   3.378  0.00  0.00    +0.171 HD
ENDBRANCH  27  28
ENDBRANCH  26  27
ENDBRANCH   2  26
TORSDOF 5
