REMARK  Name = ZINC66908560
REMARK  5 active torsions:
REMARK  status: ('A' for Active; 'I' for Inactive)
REMARK    1  A    between atoms: C_10  and  C_11
REMARK    2  A    between atoms: C_10  and  O_28
REMARK    3  A    between atoms: C_11  and  N_12
REMARK    4  A    between atoms: N_15  and  C_16
REMARK    5  A    between atoms: C_16  and  C_17
REMARK                            x       y       z     vdW  Elec       q    Type
REMARK                         _______ _______ _______ _____ _____    ______ ____
ROOT
ATOM      1  N   UNL     1       4.733   1.477  -0.622  0.00  0.00    -0.296 N 
ATOM      2  C   UNL     1       5.418   2.343  -1.394  0.00  0.00    +0.300 C 
ATOM      3  O   UNL     1       5.985   1.948  -2.395  0.00  0.00    -0.253 OA
ATOM      4  N   UNL     1       5.475   3.647  -1.058  0.00  0.00    -0.295 N 
ATOM      5  H   UNL     1       4.281   1.792   0.177  0.00  0.00    +0.150 HD
ATOM      6  H   UNL     1       5.023   3.962  -0.260  0.00  0.00    +0.151 HD
ENDROOT
BRANCH   1   7
ATOM      7  C   UNL     1       4.671   0.060  -0.987  0.00  0.00    +0.145 C 
BRANCH   7  17
ATOM      8  C   UNL     1       3.635  -4.797  -1.159  0.00  0.00    +0.000 A 
ATOM      9  C   UNL     1       3.604  -3.797  -2.113  0.00  0.00    +0.000 A 
ATOM     10  C   UNL     1       3.643  -2.475  -1.720  0.00  0.00    +0.007 A 
ATOM     11  C   UNL     1       3.714  -2.140  -0.374  0.00  0.00    -0.011 A 
ATOM     12  C   UNL     1       3.749  -3.136   0.575  0.00  0.00    -0.041 A 
ATOM     13  C   UNL     1       3.706  -4.467   0.178  0.00  0.00    +0.004 A 
ATOM     14  C   UNL     1       3.843  -2.847   2.051  0.00  0.00    +0.035 C 
ATOM     15  C   UNL     1       3.451  -1.399   2.340  0.00  0.00    +0.008 C 
ATOM     16  C   UNL     1       4.257  -0.485   1.410  0.00  0.00    +0.041 C 
ATOM     17  C   UNL     1       3.746  -0.677  -0.016  0.00  0.00    +0.107 C 
BRANCH  17  18
ATOM     18  O   UNL     1       2.427  -0.138  -0.121  0.00  0.00    -0.382 OA
ATOM     19  H   UNL     1       2.042  -0.209  -1.006  0.00  0.00    +0.211 HD
ENDBRANCH  17  18
ENDBRANCH   7  17
ENDBRANCH   1   7
BRANCH   4  20
ATOM     20  C   UNL     1       6.220   4.588  -1.898  0.00  0.00    +0.142 C 
BRANCH  20  21
ATOM     21  C   UNL     1       6.128   5.971  -1.306  0.00  0.00    -0.012 A 
ATOM     22  C   UNL     1       5.093   6.822  -1.669  0.00  0.00    +0.010 A 
ATOM     23  C   UNL     1       5.046   8.083  -1.101  0.00  0.00    +0.048 A 
ATOM     24  C   UNL     1       6.030   8.453  -0.193  0.00  0.00    +0.154 A 
ATOM     25  N   UNL     1       7.001   7.613   0.128  0.00  0.00    -0.236 NA
ATOM     26  C   UNL     1       7.070   6.403  -0.393  0.00  0.00    +0.118 A 
ATOM     27  N   UNL     1       5.995   9.724   0.388  0.00  0.00    -0.222 N 
ATOM     28  C   UNL     1       6.888  10.221   1.282  0.00  0.00    +0.116 A 
ATOM     29  C   UNL     1       6.498  11.478   1.595  0.00  0.00    +0.041 A 
ATOM     30  C   UNL     1       5.333  11.761   0.873  0.00  0.00    +0.135 A 
ATOM     31  N   UNL     1       5.034  10.715   0.146  0.00  0.00    -0.173 NA
ENDBRANCH  20  21
ENDBRANCH   4  20
TORSDOF 5
