REMARK  Name = ZINC56796389
REMARK  11 active torsions:
REMARK  status: ('A' for Active; 'I' for Inactive)
REMARK    1  A    between atoms: C_1  and  C_2
REMARK    2  A    between atoms: C_2  and  C_3
REMARK    3  A    between atoms: C_3  and  C_5
REMARK    4  A    between atoms: C_3  and  N_6
REMARK    5  A    between atoms: C_7  and  C_9
REMARK    6  A    between atoms: C_9  and  C_10
REMARK    7  A    between atoms: C_10  and  N_11
REMARK    8  A    between atoms: N_14  and  C_15
REMARK    9  A    between atoms: C_15  and  C_16
REMARK   10  A    between atoms: C_16  and  C_18
REMARK   11  A    between atoms: C_16  and  N_23
REMARK                            x       y       z     vdW  Elec       q    Type
REMARK                         _______ _______ _______ _____ _____    ______ ____
ROOT
ATOM      1  N   UNL     1       6.219   1.341   3.597  0.00  0.00    -0.299 N 
ATOM      2  C   UNL     1       6.958   1.375   4.723  0.00  0.00    +0.300 C 
ATOM      3  O   UNL     1       6.420   1.265   5.808  0.00  0.00    -0.253 OA
ATOM      4  N   UNL     1       8.295   1.530   4.647  0.00  0.00    -0.301 N 
ATOM      5  H   UNL     1       6.648   1.429   2.732  0.00  0.00    +0.150 HD
ATOM      6  H   UNL     1       8.725   1.618   3.781  0.00  0.00    +0.150 HD
ENDROOT
BRANCH   1   7
ATOM      7  C   UNL     1       4.766   1.172   3.680  0.00  0.00    +0.115 C 
BRANCH   7   8
ATOM      8  C   UNL     1       4.172   1.167   2.270  0.00  0.00    +0.114 C 
BRANCH   8  10
ATOM      9  N   UNL     1       1.937   0.960   1.229  0.00  0.00    -0.313 N 
ATOM     10  C   UNL     1       2.677   0.993   2.355  0.00  0.00    +0.215 C 
ATOM     11  O   UNL     1       2.140   0.884   3.437  0.00  0.00    -0.276 OA
ATOM     12  H   UNL     1       2.367   1.047   0.364  0.00  0.00    +0.149 HD
BRANCH   9  13
ATOM     13  C   UNL     1       0.484   0.790   1.312  0.00  0.00    +0.070 C 
ATOM     14  C   UNL     1       0.149  -0.700   1.402  0.00  0.00    +0.028 C 
BRANCH  13  16
ATOM     15  C   UNL     1       0.060   2.898   0.040  0.00  0.00    +0.005 C 
ATOM     16  C   UNL     1      -0.170   1.386   0.064  0.00  0.00    +0.018 C 
ENDBRANCH  13  16
ENDBRANCH   9  13
ENDBRANCH   8  10
ENDBRANCH   7   8
ENDBRANCH   1   7
BRANCH   4  17
ATOM     17  C   UNL     1       9.099   1.567   5.871  0.00  0.00    +0.095 C 
BRANCH  17  18
ATOM     18  C   UNL     1      10.554   1.880   5.516  0.00  0.00    -0.013 C 
BRANCH  18  19
ATOM     19  N   UNL     1      11.384   1.786   6.724  0.00  0.00    +0.386 N 
ATOM     20  C   UNL     1      12.773   2.181   6.406  0.00  0.00    -0.078 C 
ATOM     21  C   UNL     1      13.657   1.250   7.273  0.00  0.00    -0.020 C 
ATOM     22  C   UNL     1      12.860  -0.079   7.219  0.00  0.00    -0.020 C 
ATOM     23  C   UNL     1      11.392   0.395   7.214  0.00  0.00    -0.078 C 
ATOM     24  H   UNL     1      11.015   2.396   7.439  0.00  0.00    -0.081 HD
ENDBRANCH  18  19
BRANCH  18  25
ATOM     25  C   UNL     1      10.645   3.274   4.951  0.00  0.00    -0.022 A 
ATOM     26  C   UNL     1      10.719   3.668   3.656  0.00  0.00    +0.009 A 
ATOM     27  C   UNL     1      10.795   5.018   3.369  0.00  0.00    +0.008 A 
ATOM     28  C   UNL     1      10.793   5.908   4.391  0.00  0.00    +0.045 A 
ATOM     29  S   UNL     1      10.674   4.837   5.814  0.00  0.00    -0.103 S 
ENDBRANCH  18  25
ENDBRANCH  17  18
ENDBRANCH   4  17
TORSDOF 9
