REMARK  Name = ZINC05600587
REMARK  3 active torsions:
REMARK  status: ('A' for Active; 'I' for Inactive)
REMARK    1  A    between atoms: C_4  and  C_7
REMARK    2  A    between atoms: C_8  and  C_21
REMARK    3  A    between atoms: C_9  and  C_15
REMARK                            x       y       z     vdW  Elec       q    Type
REMARK                         _______ _______ _______ _____ _____    ______ ____
ROOT
ATOM      1  C   UNL     1      -3.794   7.163   0.176  0.00  0.00    +0.049 C 
ATOM      2  C   UNL     1      -3.722   5.809   0.141  0.00  0.00    +0.026 C 
ATOM      3  C   UNL     1      -5.021   5.036   0.033  0.00  0.00    +0.157 C 
ATOM      4  N   UNL     1      -6.265   5.820  -0.030  0.00  0.00    -0.287 N 
ATOM      5  C   UNL     1      -6.186   7.164   0.010  0.00  0.00    +0.305 C 
ATOM      6  O   UNL     1      -7.212   7.814  -0.042  0.00  0.00    -0.252 OA
ATOM      7  N   UNL     1      -5.016   7.809   0.105  0.00  0.00    -0.269 N 
ATOM      8  H   UNL     1      -7.125   5.377  -0.100  0.00  0.00    +0.151 HD
ATOM      9  H   UNL     1      -5.026   8.779   0.130  0.00  0.00    +0.156 HD
ENDROOT
BRANCH   2  10
ATOM     10  C   UNL     1      -2.430   5.115   0.210  0.00  0.00    +0.072 A 
ATOM     11  C   UNL     1      -2.030   4.294  -0.863  0.00  0.00    +0.029 A 
ATOM     12  C   UNL     1      -0.834   3.646  -0.809  0.00  0.00    +0.012 A 
ATOM     13  C   UNL     1      -0.026   3.823   0.334  0.00  0.00    +0.000 A 
ATOM     14  C   UNL     1       1.216   3.183   0.451  0.00  0.00    +0.010 A 
ATOM     15  C   UNL     1       1.972   3.375   1.569  0.00  0.00    +0.001 A 
ATOM     16  C   UNL     1       1.526   4.199   2.600  0.00  0.00    +0.002 A 
ATOM     17  C   UNL     1       0.323   4.832   2.522  0.00  0.00    +0.028 A 
ATOM     18  C   UNL     1      -0.482   4.662   1.381  0.00  0.00    +0.072 A 
ATOM     19  N   UNL     1      -1.665   5.276   1.278  0.00  0.00    -0.247 NA
ENDBRANCH   2  10
BRANCH   1  23
ATOM     20  C   UNL     1      -0.228   9.447   0.492  0.00  0.00    +0.000 A 
ATOM     21  C   UNL     1      -0.318   8.437  -0.449  0.00  0.00    +0.001 A 
ATOM     22  C   UNL     1      -1.473   7.691  -0.557  0.00  0.00    +0.010 A 
ATOM     23  C   UNL     1      -2.553   7.957   0.286  0.00  0.00    -0.003 A 
ATOM     24  C   UNL     1      -2.458   8.982   1.231  0.00  0.00    +0.010 A 
ATOM     25  C   UNL     1      -1.295   9.716   1.331  0.00  0.00    +0.001 A 
ENDBRANCH   1  23
BRANCH   3  26
ATOM     26  C   UNL     1      -5.112   4.116   1.223  0.00  0.00    +0.066 A 
ATOM     27  C   UNL     1      -6.220   4.174   2.048  0.00  0.00    +0.025 A 
ATOM     28  C   UNL     1      -6.298   3.319   3.136  0.00  0.00    +0.003 A 
ATOM     29  C   UNL     1      -5.248   2.441   3.362  0.00  0.00    +0.020 A 
ATOM     30  C   UNL     1      -4.170   2.445   2.497  0.00  0.00    +0.111 A 
ATOM     31  N   UNL     1      -4.133   3.268   1.468  0.00  0.00    -0.258 NA
ENDBRANCH   3  26
TORSDOF 3
