REMARK  Name = ZINC07682442
REMARK  8 active torsions:
REMARK  status: ('A' for Active; 'I' for Inactive)
REMARK    1  A    between atoms: C_1  and  C_2
REMARK    2  A    between atoms: C_7  and  N_12
REMARK    3  A    between atoms: C_9  and  C_11
REMARK    4  A    between atoms: C_13  and  C_15
REMARK    5  A    between atoms: C_15  and  S_16
REMARK    6  A    between atoms: S_16  and  C_17
REMARK    7  A    between atoms: N_21  and  C_22
REMARK    8  A    between atoms: C_25  and  O_28
REMARK                            x       y       z     vdW  Elec       q    Type
REMARK                         _______ _______ _______ _____ _____    ______ ____
ROOT
ATOM      1  S   UNL     1      -2.311  -5.965   2.458  0.00  0.00    -0.075 S 
ENDROOT
BRANCH   1   2
ATOM      2  C   UNL     1      -4.010  -6.429   2.400  0.00  0.00    +0.214 A 
ATOM      3  N   UNL     1      -5.003  -5.705   1.932  0.00  0.00    -0.101 NA
ATOM      4  N   UNL     1      -6.113  -6.340   2.039  0.00  0.00    -0.022 NA
ATOM      5  N   UNL     1      -5.919  -7.497   2.573  0.00  0.00    -0.038 NA
ATOM      6  N   UNL     1      -4.540  -7.603   2.825  0.00  0.00    -0.187 N 
BRANCH   6   7
ATOM      7  C   UNL     1      -3.858  -8.689   3.396  0.00  0.00    +0.070 A 
ATOM      8  C   UNL     1      -2.574  -9.003   2.973  0.00  0.00    +0.031 A 
ATOM      9  C   UNL     1      -1.904 -10.071   3.535  0.00  0.00    +0.047 A 
ATOM     10  C   UNL     1      -2.514 -10.831   4.522  0.00  0.00    +0.117 A 
ATOM     11  C   UNL     1      -3.798 -10.518   4.945  0.00  0.00    +0.047 A 
ATOM     12  C   UNL     1      -4.466  -9.447   4.388  0.00  0.00    +0.031 A 
BRANCH  10  13
ATOM     13  O   UNL     1      -1.854 -11.883   5.075  0.00  0.00    -0.507 OA
ATOM     14  H   UNL     1      -1.328 -11.652   5.854  0.00  0.00    +0.292 HD
ENDBRANCH  10  13
ENDBRANCH   6   7
ENDBRANCH   1   2
BRANCH   1  15
ATOM     15  C   UNL     1      -2.287  -4.298   1.743  0.00  0.00    +0.173 C 
BRANCH  15  17
ATOM     16  N   UNL     1      -0.612  -2.548   1.244  0.00  0.00    -0.312 N 
ATOM     17  C   UNL     1      -0.873  -3.776   1.733  0.00  0.00    +0.224 C 
ATOM     18  O   UNL     1       0.030  -4.462   2.164  0.00  0.00    -0.275 OA
ATOM     19  H   UNL     1      -1.333  -2.000   0.898  0.00  0.00    +0.149 HD
BRANCH  16  25
ATOM     20  C   UNL     1      -0.019   1.526   0.010  0.00  0.00    +0.008 C 
ATOM     21  C   UNL     1       0.002  -0.004   0.002  0.00  0.00    -0.009 C 
ATOM     22  C   UNL     1       0.718  -0.497  -1.257  0.00  0.00    +0.003 C 
ATOM     23  C   UNL     1       0.739  -2.027  -1.265  0.00  0.00    +0.002 C 
ATOM     24  C   UNL     1       1.479  -2.534  -0.026  0.00  0.00    +0.022 C 
ATOM     25  C   UNL     1       0.763  -2.041   1.233  0.00  0.00    +0.076 C 
ATOM     26  C   UNL     1       0.742  -0.511   1.242  0.00  0.00    +0.009 C 
ATOM     27  C   UNL     1       0.026  -0.018   2.500  0.00  0.00    +0.009 C 
ENDBRANCH  16  25
ENDBRANCH  15  17
ENDBRANCH   1  15
TORSDOF 6
