REMARK  Name = ZINC39357289
REMARK  7 active torsions:
REMARK  status: ('A' for Active; 'I' for Inactive)
REMARK    1  A    between atoms: C_1  and  C_2
REMARK    2  A    between atoms: C_8  and  C_31
REMARK    3  A    between atoms: N_16  and  C_17
REMARK    4  A    between atoms: C_17  and  C_18
REMARK    5  A    between atoms: C_18  and  C_19
REMARK    6  A    between atoms: C_26  and  O_29
REMARK    7  A    between atoms: O_29  and  C_30
REMARK                            x       y       z     vdW  Elec       q    Type
REMARK                         _______ _______ _______ _____ _____    ______ ____
ROOT
ATOM      1  C   UNL     1      -0.019   1.526   0.010  0.00  0.00    +0.024 C 
ATOM      2  C   UNL     1       0.002  -0.004   0.002  0.00  0.00    +0.062 C 
ATOM      3  C   UNL     1      -1.434  -0.540   0.026  0.00  0.00    +0.114 C 
ATOM      4  C   UNL     1      -1.376  -2.039   0.155  0.00  0.00    +0.221 C 
ATOM      5  O   UNL     1      -2.307  -2.706  -0.243  0.00  0.00    -0.275 OA
ATOM      6  N   UNL     1      -0.317  -2.653   0.701  0.00  0.00    -0.245 N 
ATOM      7  C   UNL     1      -0.314  -4.124   0.803  0.00  0.00    +0.206 C 
ATOM      8  N   UNL     1       0.216  -4.523   2.104  0.00  0.00    -0.339 N 
ATOM      9  C   UNL     1       0.863  -3.725   2.888  0.00  0.00    +0.158 C 
ATOM     10  N   UNL     1       1.087  -2.404   2.586  0.00  0.00    -0.288 N 
ATOM     11  C   UNL     1       0.858  -1.943   1.205  0.00  0.00    +0.239 C 
ATOM     12  N   UNL     1       0.700  -0.495   1.194  0.00  0.00    -0.280 NA
ATOM     13  N   UNL     1       1.349  -4.220   4.075  0.00  0.00    -0.318 N 
ATOM     14  H   UNL     1       1.389  -1.785   3.269  0.00  0.00    +0.152 HD
ATOM     15  H   UNL     1       1.204  -5.150   4.309  0.00  0.00    +0.149 HD
ATOM     16  H   UNL     1       1.589  -0.033   1.309  0.00  0.00    +0.125 HD
ATOM     17  H   UNL     1       0.074  -5.438   2.396  0.00  0.00    +0.164 HD
ENDROOT
BRANCH   7  18
ATOM     18  C   UNL     1       0.551  -4.701  -0.288  0.00  0.00    -0.007 A 
ATOM     19  C   UNL     1       0.683  -4.032  -1.491  0.00  0.00    +0.007 A 
ATOM     20  C   UNL     1       1.476  -4.561  -2.492  0.00  0.00    +0.000 A 
ATOM     21  C   UNL     1       2.137  -5.759  -2.290  0.00  0.00    +0.000 A 
ATOM     22  C   UNL     1       2.005  -6.427  -1.087  0.00  0.00    +0.000 A 
ATOM     23  C   UNL     1       1.216  -5.895  -0.084  0.00  0.00    +0.007 A 
ENDBRANCH   7  18
BRANCH  13  24
ATOM     24  C   UNL     1       2.088  -3.342   4.987  0.00  0.00    +0.109 C 
BRANCH  24  25
ATOM     25  C   UNL     1       2.514  -4.135   6.224  0.00  0.00    +0.056 C 
BRANCH  25  26
ATOM     26  C   UNL     1       3.273  -3.232   7.162  0.00  0.00    -0.021 A 
ATOM     27  C   UNL     1       4.606  -3.088   7.226  0.00  0.00    +0.087 A 
ATOM     28  N   UNL     1       4.931  -2.181   8.198  0.00  0.00    -0.360 N 
ATOM     29  H   UNL     1       5.834  -1.912   8.430  0.00  0.00    +0.165 HD
ATOM     30  C   UNL     1       3.784  -1.707   8.799  0.00  0.00    +0.047 A 
ATOM     31  C   UNL     1       2.696  -2.341   8.171  0.00  0.00    +0.006 A 
ATOM     32  C   UNL     1       1.391  -2.049   8.573  0.00  0.00    +0.056 A 
ATOM     33  C   UNL     1       1.178  -1.134   9.586  0.00  0.00    +0.121 A 
ATOM     34  C   UNL     1       2.257  -0.506  10.203  0.00  0.00    +0.047 A 
ATOM     35  C   UNL     1       3.549  -0.792   9.819  0.00  0.00    +0.030 A 
BRANCH  33  36
ATOM     36  O   UNL     1      -0.090  -0.845   9.982  0.00  0.00    -0.495 OA
ATOM     37  C   UNL     1      -0.240   0.110  11.034  0.00  0.00    +0.277 C 
ENDBRANCH  33  36
ENDBRANCH  25  26
ENDBRANCH  24  25
ENDBRANCH  13  24
TORSDOF 5
