REMARK  Name = ZINC12781575
REMARK  7 active torsions:
REMARK  status: ('A' for Active; 'I' for Inactive)
REMARK    1  A    between atoms: C_3  and  C_9
REMARK    2  A    between atoms: C_6  and  C_7
REMARK    3  A    between atoms: C_12  and  O_15
REMARK    4  A    between atoms: O_15  and  C_16
REMARK    5  A    between atoms: C_16  and  C_17
REMARK    6  A    between atoms: N_19  and  N_20
REMARK    7  A    between atoms: C_21  and  C_23
REMARK                            x       y       z     vdW  Elec       q    Type
REMARK                         _______ _______ _______ _____ _____    ______ ____
ROOT
ATOM      1  C   UNL     1       8.412   3.529  -0.067  0.00  0.00    +0.326 C 
ENDROOT
BRANCH   1   2
ATOM      2  C   UNL     1       9.594   4.463  -0.073  0.00  0.00    +0.267 C 
ATOM      3  O   UNL     1       9.418   5.663  -0.060  0.00  0.00    -0.271 OA
ATOM      4  N   UNL     1      10.846   3.966  -0.093  0.00  0.00    -0.231 N 
ATOM      5  H   UNL     1      10.987   3.006  -0.104  0.00  0.00    +0.173 HD
BRANCH   4   6
ATOM      6  N   UNL     1      11.945   4.835  -0.099  0.00  0.00    -0.230 N 
ATOM      7  C   UNL     1      13.198   4.338  -0.118  0.00  0.00    +0.262 C 
ATOM      8  O   UNL     1      13.374   3.134  -0.132  0.00  0.00    -0.269 OA
ATOM      9  H   UNL     1      11.805   5.795  -0.088  0.00  0.00    +0.173 HD
BRANCH   7  10
ATOM     10  C   UNL     1      14.354   5.252  -0.124  0.00  0.00    +0.054 A 
ATOM     11  C   UNL     1      14.155   6.654  -0.103  0.00  0.00    +0.020 A 
ATOM     12  C   UNL     1      15.240   7.474  -0.109  0.00  0.00    +0.071 A 
ATOM     13  C   UNL     1      16.532   6.915  -0.136  0.00  0.00    +0.249 A 
ATOM     14  O   UNL     1      17.508   7.646  -0.141  0.00  0.00    -0.268 OA
ATOM     15  N   UNL     1      16.698   5.580  -0.156  0.00  0.00    -0.328 N 
ATOM     16  H   UNL     1      17.594   5.210  -0.174  0.00  0.00    +0.168 HD
ATOM     17  C   UNL     1      15.639   4.748  -0.145  0.00  0.00    +0.099 A 
ENDBRANCH   7  10
ENDBRANCH   4   6
ENDBRANCH   1   2
BRANCH   1  18
ATOM     18  O   UNL     1       7.203   4.290  -0.046  0.00  0.00    -0.483 OA
BRANCH  18  22
ATOM     19  C   UNL     1       3.657   2.175  -0.022  0.00  0.00    -0.018 A 
ATOM     20  C   UNL     1       3.639   3.570  -0.009  0.00  0.00    +0.012 A 
ATOM     21  C   UNL     1       4.825   4.273  -0.017  0.00  0.00    +0.046 A 
ATOM     22  C   UNL     1       6.036   3.594  -0.038  0.00  0.00    +0.121 A 
ATOM     23  C   UNL     1       6.057   2.206  -0.051  0.00  0.00    +0.046 A 
ATOM     24  C   UNL     1       4.875   1.496  -0.037  0.00  0.00    +0.012 A 
BRANCH  19  27
ATOM     25  C   UNL     1      -0.017   1.394   0.010  0.00  0.00    +0.019 A 
ATOM     26  C   UNL     1       1.166   2.097   0.002  0.00  0.00    +0.010 A 
ATOM     27  C   UNL     1       2.384   1.416  -0.013  0.00  0.00    -0.018 A 
ATOM     28  C   UNL     1       2.404   0.021  -0.021  0.00  0.00    +0.010 A 
ATOM     29  C   UNL     1       1.223  -0.685  -0.014  0.00  0.00    +0.019 A 
ATOM     30  C   UNL     1       0.002  -0.004   0.002  0.00  0.00    +0.052 A 
BRANCH  30  31
ATOM     31  C   UNL     1      -1.228  -0.738   0.010  0.00  0.00    +0.099 C 
ATOM     32  N   UNL     1      -2.204  -1.319   0.017  0.00  0.00    -0.191 NA
ENDBRANCH  30  31
ENDBRANCH  19  27
ENDBRANCH  18  22
ENDBRANCH   1  18
TORSDOF 7
