REMARK  Name = ZINC37196799
REMARK  4 active torsions:
REMARK  status: ('A' for Active; 'I' for Inactive)
REMARK    1  A    between atoms: C_3  and  N_9
REMARK    2  A    between atoms: N_9  and  C_10
REMARK    3  A    between atoms: C_10  and  C_11
REMARK    4  A    between atoms: C_14  and  N_16
REMARK                            x       y       z     vdW  Elec       q    Type
REMARK                         _______ _______ _______ _____ _____    ______ ____
ROOT
ATOM      1  N   UNL     1       3.583   2.126  -0.021  0.00  0.00    -0.336 N 
ATOM      2  H   UNL     1       4.429   1.652  -0.032  0.00  0.00    +0.147 HD
ENDROOT
BRANCH   1   5
ATOM      3  C   UNL     1      -0.017   1.379   0.010  0.00  0.00    +0.022 A 
ATOM      4  C   UNL     1       1.169   2.088   0.002  0.00  0.00    +0.026 A 
ATOM      5  C   UNL     1       2.381   1.411  -0.013  0.00  0.00    +0.046 A 
ATOM      6  C   UNL     1       2.398   0.021  -0.021  0.00  0.00    +0.063 A 
ATOM      7  C   UNL     1       1.208  -0.682  -0.013  0.00  0.00    +0.041 A 
ATOM      8  C   UNL     1       0.002  -0.004   0.002  0.00  0.00    +0.042 A 
ATOM      9 CL   UNL     1      -1.490  -0.891   0.012  0.00  0.00    -0.083 Cl
ATOM     10 CL   UNL     1       3.911  -0.830  -0.040  0.00  0.00    -0.082 Cl
ENDBRANCH   1   5
BRANCH   1  11
ATOM     11  C   UNL     1       3.564   3.591  -0.014  0.00  0.00    +0.176 C 
BRANCH  11  12
ATOM     12  C   UNL     1       4.978   4.111  -0.025  0.00  0.00    +0.125 A 
ATOM     13  C   UNL     1       5.704   4.394  -1.122  0.00  0.00    +0.049 A 
ATOM     14  C   UNL     1       6.964   4.851  -0.672  0.00  0.00    +0.076 A 
ATOM     15  C   UNL     1       6.933   4.821   0.672  0.00  0.00    +0.280 A 
ATOM     16  O   UNL     1       5.725   4.378   1.059  0.00  0.00    -0.437 OA
BRANCH  15  17
ATOM     17  N   UNL     1       8.039   5.216   1.573  0.00  0.00    +0.093 N 
ATOM     18  O   UNL     1       9.085   5.608   1.109  0.00  0.00    -0.123 OA
ATOM     19  O   UNL     1       7.897   5.147   2.771  0.00  0.00    -0.123 OA
ENDBRANCH  15  17
ENDBRANCH  11  12
ENDBRANCH   1  11
TORSDOF 4
