REMARK  Name = ZINC25832054
REMARK  7 active torsions:
REMARK  status: ('A' for Active; 'I' for Inactive)
REMARK    1  A    between atoms: C_1  and  C_2
REMARK    2  A    between atoms: C_6  and  N_9
REMARK    3  A    between atoms: C_7  and  C_8
REMARK    4  A    between atoms: C_13  and  C_15
REMARK    5  A    between atoms: C_15  and  O_16
REMARK    6  A    between atoms: O_16  and  C_17
REMARK    7  A    between atoms: C_17  and  C_19
REMARK                            x       y       z     vdW  Elec       q    Type
REMARK                         _______ _______ _______ _____ _____    ______ ____
ROOT
ATOM      1  N   UNL     1       1.162   3.485   0.010  0.00  0.00    -0.269 N 
ATOM      2  C   UNL     1      -0.009   4.147  -0.077  0.00  0.00    +0.310 C 
ATOM      3  O   UNL     1      -1.057   3.531  -0.071  0.00  0.00    -0.252 OA
ATOM      4  N   UNL     1      -0.019   5.491  -0.172  0.00  0.00    -0.237 N 
ATOM      5  C   UNL     1      -1.190   6.153  -0.259  0.00  0.00    +0.258 C 
ATOM      6  O   UNL     1      -2.235   5.538  -0.252  0.00  0.00    -0.272 OA
ATOM      7  H   UNL     1       2.104   4.045   0.097  0.00  0.00    +0.156 HD
ATOM      8  H   UNL     1       0.929   6.049  -0.177  0.00  0.00    +0.159 HD
ENDROOT
BRANCH   1  14
ATOM      9  C   UNL     1       3.388  -0.738   1.181  0.00  0.00    +0.044 C 
ATOM     10  C   UNL     1       2.245   0.013   0.549  0.00  0.00    -0.046 A 
ATOM     11  C   UNL     1       1.211  -0.680  -0.052  0.00  0.00    +0.004 A 
ATOM     12  C   UNL     1       0.161   0.006  -0.633  0.00  0.00    +0.002 A 
ATOM     13  C   UNL     1       0.141   1.387  -0.614  0.00  0.00    +0.023 A 
ATOM     14  C   UNL     1       1.178   2.086  -0.011  0.00  0.00    +0.038 A 
ATOM     15  C   UNL     1       2.232   1.394   0.572  0.00  0.00    -0.026 A 
ATOM     16  C   UNL     1       3.359   2.149   1.228  0.00  0.00    +0.046 C 
ENDBRANCH   1  14
BRANCH   5  17
ATOM     17  C   UNL     1      -1.200   7.656  -0.364  0.00  0.00    +0.328 C 
BRANCH  17  18
ATOM     18  O   UNL     1      -2.550   8.119  -0.443  0.00  0.00    -0.452 OA
BRANCH  18  19
ATOM     19  C   UNL     1      -2.736   9.451  -0.543  0.00  0.00    +0.339 C 
ATOM     20  O   UNL     1      -1.777  10.200  -0.562  0.00  0.00    -0.245 OA
BRANCH  19  21
ATOM     21  C   UNL     1      -4.049   9.980  -0.625  0.00  0.00    +0.074 C 
ATOM     22  C   UNL     1      -4.237  11.319  -0.720  0.00  0.00    +0.025 C 
ATOM     23  C   UNL     1      -5.616  11.825  -0.748  0.00  0.00    +0.017 A 
ATOM     24  C   UNL     1      -5.902  13.137  -1.127  0.00  0.00    +0.011 A 
ATOM     25  C   UNL     1      -7.213  13.560  -1.176  0.00  0.00    +0.001 A 
ATOM     26  C   UNL     1      -8.242  12.690  -0.851  0.00  0.00    +0.004 A 
ATOM     27  C   UNL     1      -7.970  11.392  -0.464  0.00  0.00    +0.046 A 
ATOM     28  C   UNL     1      -6.660  10.952  -0.399  0.00  0.00    +0.128 A 
ATOM     29  O   UNL     1      -6.361   9.692   0.003  0.00  0.00    -0.487 OA
ATOM     30  C   UNL     1      -5.237   9.054  -0.602  0.00  0.00    +0.271 C 
ENDBRANCH  19  21
ENDBRANCH  18  19
ENDBRANCH  17  18
ENDBRANCH   5  17
TORSDOF 5
