REMARK  Name = ZINC05052194
REMARK  14 active torsions:
REMARK  status: ('A' for Active; 'I' for Inactive)
REMARK    1  A    between atoms: C_1  and  C_2
REMARK    2  A    between atoms: C_2  and  C_12
REMARK    3  A    between atoms: N_3  and  N_4
REMARK    4  A    between atoms: N_7  and  C_8
REMARK    5  A    between atoms: C_8  and  C_9
REMARK    6  A    between atoms: C_8  and  C_10
REMARK    7  A    between atoms: C_8  and  C_11
REMARK    8  A    between atoms: C_12  and  C_13
REMARK    9  A    between atoms: C_13  and  N_52
REMARK   10  A    between atoms: C_14  and  C_15
REMARK   11  A    between atoms: C_14  and  N_52
REMARK   12  A    between atoms: C_15  and  S_16
REMARK   13  A    between atoms: S_16  and  C_17
REMARK   14  A    between atoms: C_17  and  C_19
REMARK                            x       y       z     vdW  Elec       q    Type
REMARK                         _______ _______ _______ _____ _____    ______ ____
ROOT
ATOM      1  C   UNL     1       0.041   5.057  -1.056  0.00  0.00    -0.077 C 
ENDROOT
BRANCH   1   2
ATOM      2  N   UNL     1       1.308   5.811  -1.050  0.00  0.00    +0.380 N 
ATOM      3  H   UNL     1       2.093   5.156  -1.138  0.00  0.00    -0.086 HD
ATOM      4  H   UNL     1       1.391   6.328  -0.166  0.00  0.00    -0.086 HD
BRANCH   2   5
ATOM      5  C   UNL     1       1.342   6.764  -2.176  0.00  0.00    -0.071 C 
BRANCH   5   6
ATOM      6  C   UNL     1       2.665   7.531  -2.144  0.00  0.00    +0.058 C 
BRANCH   6   7
ATOM      7  S   UNL     1       2.716   8.703  -3.522  0.00  0.00    -0.085 S 
BRANCH   7   8
ATOM      8  C   UNL     1       4.300   9.426  -3.250  0.00  0.00    +0.220 C 
ATOM      9  O   UNL     1       4.983   9.059  -2.313  0.00  0.00    -0.280 OA
BRANCH   8  10
ATOM     10  C   UNL     1       4.798  10.479  -4.160  0.00  0.00    +0.028 A 
ATOM     11  C   UNL     1       4.019  10.899  -5.240  0.00  0.00    +0.012 A 
ATOM     12  C   UNL     1       4.487  11.886  -6.082  0.00  0.00    +0.001 A 
ATOM     13  C   UNL     1       5.731  12.451  -5.866  0.00  0.00    +0.000 A 
ATOM     14  C   UNL     1       6.511  12.036  -4.801  0.00  0.00    +0.001 A 
ATOM     15  C   UNL     1       6.052  11.054  -3.948  0.00  0.00    +0.012 A 
ENDBRANCH   8  10
ENDBRANCH   7   8
ENDBRANCH   6   7
ENDBRANCH   5   6
ENDBRANCH   2   5
ENDBRANCH   1   2
BRANCH   1  16
ATOM     16  C   UNL     1       0.034   4.079   0.121  0.00  0.00    +0.033 C 
BRANCH  16  18
ATOM     17  C   UNL     1      -2.408   3.757   0.984  0.00  0.00    +0.062 C 
ATOM     18  C   UNL     1      -1.258   3.303   0.123  0.00  0.00    +0.032 C 
ATOM     19  N   UNL     1      -1.379   2.259  -0.608  0.00  0.00    -0.188 NA
BRANCH  19  20
ATOM     20  N   UNL     1      -0.356   1.905  -1.498  0.00  0.00    -0.191 N 
ATOM     21  C   UNL     1      -0.482   0.804  -2.265  0.00  0.00    +0.319 C 
ATOM     22  O   UNL     1       0.403   0.499  -3.041  0.00  0.00    -0.251 OA
ATOM     23  N   UNL     1      -1.589   0.040  -2.171  0.00  0.00    -0.293 N 
ATOM     24  H   UNL     1       0.440   2.454  -1.565  0.00  0.00    +0.179 HD
ATOM     25  H   UNL     1      -2.295   0.283  -1.552  0.00  0.00    +0.151 HD
BRANCH  23  26
ATOM     26  C   UNL     1      -1.726  -1.157  -3.005  0.00  0.00    +0.028 C 
ATOM     27  C   UNL     1      -0.582  -2.125  -2.699  0.00  0.00    +0.031 C 
ATOM     28  C   UNL     1      -3.063  -1.837  -2.706  0.00  0.00    +0.031 C 
ATOM     29  C   UNL     1      -1.675  -0.758  -4.481  0.00  0.00    +0.031 C 
ENDBRANCH  23  26
ENDBRANCH  19  20
ENDBRANCH  16  18
ENDBRANCH   1  16
TORSDOF 10
