REMARK  Name = ZINC49544422
REMARK  8 active torsions:
REMARK  status: ('A' for Active; 'I' for Inactive)
REMARK    1  A    between atoms: C_1  and  O_2
REMARK    2  A    between atoms: O_2  and  C_3
REMARK    3  A    between atoms: C_5  and  C_12
REMARK    4  A    between atoms: C_7  and  O_10
REMARK    5  A    between atoms: C_8  and  O_9
REMARK    6  A    between atoms: O_10  and  C_11
REMARK    7  A    between atoms: N_22  and  C_23
REMARK    8  A    between atoms: C_23  and  C_24
REMARK                            x       y       z     vdW  Elec       q    Type
REMARK                         _______ _______ _______ _____ _____    ______ ____
ROOT
ATOM      1  C   UNL     1       2.402   0.386  -4.230  0.00  0.00    +0.063 C 
ATOM      2  C   UNL     1       3.896   0.070  -4.344  0.00  0.00    +0.109 C 
ATOM      3  C   UNL     1       4.130  -1.242  -5.036  0.00  0.00    +0.219 C 
ATOM      4  O   UNL     1       5.044  -1.946  -4.663  0.00  0.00    -0.275 OA
ATOM      5  N   UNL     1       3.357  -1.665  -6.059  0.00  0.00    -0.270 N 
ATOM      6  C   UNL     1       2.229  -0.911  -6.385  0.00  0.00    +0.127 A 
ATOM      7  C   UNL     1       1.746   0.063  -5.548  0.00  0.00    +0.020 A 
ATOM      8  C   UNL     1       0.626   0.623  -6.144  0.00  0.00    +0.140 A 
ATOM      9  N   UNL     1       0.431   0.021  -7.294  0.00  0.00    -0.177 NA
ATOM     10  N   UNL     1       1.434  -0.951  -7.464  0.00  0.00    -0.246 N 
ATOM     11  H   UNL     1       3.579  -2.469  -6.554  0.00  0.00    +0.156 HD
ENDROOT
BRANCH   1  14
ATOM     12  C   UNL     1       0.606  -0.608  -1.056  0.00  0.00    +0.165 A 
ATOM     13  C   UNL     1       1.173   0.160  -2.063  0.00  0.00    +0.054 A 
ATOM     14  C   UNL     1       1.787  -0.452  -3.139  0.00  0.00    -0.032 A 
ATOM     15  C   UNL     1       1.839  -1.831  -3.217  0.00  0.00    +0.054 A 
ATOM     16  C   UNL     1       1.275  -2.606  -2.215  0.00  0.00    +0.165 A 
ATOM     17  C   UNL     1       0.661  -1.994  -1.128  0.00  0.00    +0.201 A 
BRANCH  12  19
ATOM     18  C   UNL     1      -0.017   1.425   0.010  0.00  0.00    +0.277 C 
ATOM     19  O   UNL     1       0.002  -0.004   0.002  0.00  0.00    -0.491 OA
ENDBRANCH  12  19
BRANCH  17  20
ATOM     20  O   UNL     1       0.111  -2.751  -0.140  0.00  0.00    -0.501 OA
ATOM     21  H   UNL     1      -0.817  -2.978  -0.289  0.00  0.00    +0.292 HD
ENDBRANCH  17  20
BRANCH  16  22
ATOM     22  O   UNL     1       1.326  -3.963  -2.293  0.00  0.00    -0.491 OA
ATOM     23  C   UNL     1       1.977  -4.523  -3.435  0.00  0.00    +0.277 C 
ENDBRANCH  16  22
ENDBRANCH   1  14
BRANCH  10  24
ATOM     24  C   UNL     1       1.585  -1.845  -8.614  0.00  0.00    +0.180 C 
BRANCH  24  25
ATOM     25  C   UNL     1       0.813  -3.115  -8.367  0.00  0.00    -0.026 A 
ATOM     26  C   UNL     1       1.424  -4.186  -7.741  0.00  0.00    +0.005 A 
ATOM     27  C   UNL     1       0.716  -5.351  -7.515  0.00  0.00    +0.000 A 
ATOM     28  C   UNL     1      -0.604  -5.446  -7.913  0.00  0.00    +0.000 A 
ATOM     29  C   UNL     1      -1.216  -4.375  -8.538  0.00  0.00    +0.000 A 
ATOM     30  C   UNL     1      -0.509  -3.208  -8.761  0.00  0.00    +0.005 A 
ENDBRANCH  24  25
ENDBRANCH  10  24
TORSDOF 6
