REMARK  Name = ZINC65623136
REMARK  5 active torsions:
REMARK  status: ('A' for Active; 'I' for Inactive)
REMARK    1  A    between atoms: C_1  and  N_2
REMARK    2  A    between atoms: C_4  and  C_7
REMARK    3  A    between atoms: C_9  and  C_12
REMARK    4  A    between atoms: C_12  and  N_13
REMARK    5  A    between atoms: C_21  and  C_23
REMARK                            x       y       z     vdW  Elec       q    Type
REMARK                         _______ _______ _______ _____ _____    ______ ____
ROOT
ATOM      1  N   UNL     1       0.875  -7.510  -0.883  0.00  0.00    -0.312 N 
ATOM      2  C   UNL     1       1.341  -7.864  -2.150  0.00  0.00    +0.034 A 
ATOM      3  C   UNL     1       0.617  -8.166  -3.306  0.00  0.00    +0.023 A 
ATOM      4  C   UNL     1       1.276  -8.496  -4.471  0.00  0.00    +0.002 A 
ATOM      5  C   UNL     1       2.658  -8.533  -4.504  0.00  0.00    +0.000 A 
ATOM      6  C   UNL     1       3.381  -8.236  -3.363  0.00  0.00    +0.005 A 
ATOM      7  C   UNL     1       2.725  -7.903  -2.193  0.00  0.00    -0.024 A 
ATOM      8  C   UNL     1       3.260  -7.541  -0.826  0.00  0.00    +0.069 C 
ATOM      9  C   UNL     1       2.004  -7.278   0.022  0.00  0.00    +0.164 C 
ENDROOT
BRANCH   9  10
ATOM     10  C   UNL     1       1.993  -5.855   0.519  0.00  0.00    +0.231 C 
ATOM     11  O   UNL     1       1.476  -4.984  -0.148  0.00  0.00    -0.274 OA
ATOM     12  N   UNL     1       2.558  -5.551   1.704  0.00  0.00    -0.328 N 
ATOM     13  H   UNL     1       2.971  -6.248   2.237  0.00  0.00    +0.145 HD
ATOM     14  H   UNL     1       2.551  -4.636   2.024  0.00  0.00    +0.145 HD
ENDBRANCH   9  10
BRANCH   1  15
ATOM     15  C   UNL     1      -0.537  -7.381  -0.513  0.00  0.00    +0.161 C 
BRANCH  15  18
ATOM     16  C   UNL     1      -1.902 -10.793  -0.325  0.00  0.00    +0.112 A 
ATOM     17  N   UNL     1      -1.460  -9.630  -0.782  0.00  0.00    -0.242 NA
ATOM     18  C   UNL     1      -1.034  -8.694   0.036  0.00  0.00    +0.066 A 
ATOM     19  C   UNL     1      -1.042  -8.911   1.376  0.00  0.00    +0.072 A 
ATOM     20  S   UNL     1      -1.714 -10.567   1.438  0.00  0.00    -0.075 S 
BRANCH  16  24
ATOM     21  C   UNL     1      -3.787 -15.287  -1.420  0.00  0.00    +0.172 C 
ATOM     22  N   UNL     1      -3.244 -13.932  -1.549  0.00  0.00    -0.274 N 
ATOM     23  C   UNL     1      -2.864 -13.134  -0.532  0.00  0.00    +0.118 A 
ATOM     24  C   UNL     1      -2.417 -11.961  -1.073  0.00  0.00    +0.045 A 
ATOM     25  C   UNL     1      -2.537 -12.068  -2.474  0.00  0.00    +0.145 A 
ATOM     26  N   UNL     1      -3.024 -13.248  -2.750  0.00  0.00    -0.179 NA
ENDBRANCH  16  24
ENDBRANCH  15  18
ENDBRANCH   1  15
TORSDOF 4
