REMARK  Name = ZINC39635107
REMARK  7 active torsions:
REMARK  status: ('A' for Active; 'I' for Inactive)
REMARK    1  A    between atoms: C_1  and  O_2
REMARK    2  A    between atoms: O_2  and  C_3
REMARK    3  A    between atoms: C_6  and  C_9
REMARK    4  A    between atoms: C_9  and  C_10
REMARK    5  A    between atoms: C_10  and  N_11
REMARK    6  A    between atoms: C_12  and  C_14
REMARK    7  A    between atoms: C_25  and  C_27
REMARK                            x       y       z     vdW  Elec       q    Type
REMARK                         _______ _______ _______ _____ _____    ______ ____
ROOT
ATOM      1  C   UNL     1       6.861  -4.116  -6.791  0.00  0.00    +0.100 C 
ATOM      2  C   UNL     1       6.219  -5.521  -6.789  0.00  0.00    +0.121 C 
ATOM      3  N   UNL     1       7.346  -6.449  -7.049  0.00  0.00    -0.296 N 
ATOM      4  C   UNL     1       8.475  -5.883  -6.272  0.00  0.00    +0.115 C 
ATOM      5  C   UNL     1       8.342  -4.358  -6.451  0.00  0.00    -0.004 C 
ATOM      6  C   UNL     1       9.231  -3.881  -7.595  0.00  0.00    -0.010 C 
ATOM      7  C   UNL     1      10.700  -4.080  -7.210  0.00  0.00    -0.082 C 
ATOM      8  N   UNL     1      10.994  -3.323  -5.986  0.00  0.00    +0.379 N 
ATOM      9  C   UNL     1      10.200  -3.850  -4.869  0.00  0.00    -0.082 C 
ATOM     10  C   UNL     1       8.711  -3.642  -5.155  0.00  0.00    -0.010 C 
ATOM     11  C   UNL     1       7.344  -7.555  -7.818  0.00  0.00    +0.248 C 
ATOM     12  O   UNL     1       8.328  -8.269  -7.859  0.00  0.00    -0.270 OA
ATOM     13  H   UNL     1      11.975  -3.406  -5.768  0.00  0.00    -0.086 HD
ATOM     14  H   UNL     1      10.765  -2.351  -6.130  0.00  0.00    -0.086 HD
ENDROOT
BRANCH  11  15
ATOM     15  C   UNL     1       6.154  -7.899  -8.607  0.00  0.00    +0.052 A 
ATOM     16  C   UNL     1       4.905  -7.632  -8.144  0.00  0.00    +0.059 A 
ATOM     17  S   UNL     1       3.861  -8.178  -9.338  0.00  0.00    -0.096 S 
ATOM     18  C   UNL     1       5.029  -8.792 -10.520  0.00  0.00    +0.020 A 
ATOM     19  C   UNL     1       6.277  -8.535  -9.921  0.00  0.00    +0.001 A 
ATOM     20  C   UNL     1       7.427  -8.915 -10.639  0.00  0.00    +0.010 A 
ATOM     21  C   UNL     1       7.313  -9.506 -11.872  0.00  0.00    +0.001 A 
ATOM     22  C   UNL     1       6.071  -9.743 -12.443  0.00  0.00    +0.001 A 
ATOM     23  C   UNL     1       4.925  -9.390 -11.757  0.00  0.00    +0.015 A 
ENDBRANCH  11  15
BRANCH   1  25
ATOM     24  N   UNL     1       6.167  -1.908  -5.918  0.00  0.00    -0.315 N 
ATOM     25  C   UNL     1       6.218  -3.244  -5.744  0.00  0.00    +0.218 C 
ATOM     26  O   UNL     1       5.747  -3.744  -4.744  0.00  0.00    -0.275 OA
ATOM     27  H   UNL     1       6.544  -1.509  -6.717  0.00  0.00    +0.149 HD
BRANCH  24  28
ATOM     28  C   UNL     1       5.542  -1.060  -4.900  0.00  0.00    +0.109 C 
BRANCH  28  29
ATOM     29  C   UNL     1       5.616   0.403  -5.339  0.00  0.00    +0.054 C 
BRANCH  29  33
ATOM     30  C   UNL     1       3.793   2.877  -2.370  0.00  0.00    +0.120 A 
ATOM     31  C   UNL     1       5.148   2.588  -2.297  0.00  0.00    +0.046 A 
ATOM     32  C   UNL     1       5.735   1.788  -3.258  0.00  0.00    +0.007 A 
ATOM     33  C   UNL     1       4.973   1.275  -4.292  0.00  0.00    -0.046 A 
ATOM     34  C   UNL     1       3.623   1.562  -4.367  0.00  0.00    +0.007 A 
ATOM     35  C   UNL     1       3.030   2.357  -3.405  0.00  0.00    +0.046 A 
BRANCH  30  37
ATOM     36  C   UNL     1       4.059   4.164  -0.389  0.00  0.00    +0.277 C 
ATOM     37  O   UNL     1       3.213   3.664  -1.425  0.00  0.00    -0.495 OA
ENDBRANCH  30  37
ENDBRANCH  29  33
ENDBRANCH  28  29
ENDBRANCH  24  28
ENDBRANCH   1  25
TORSDOF 6
