REMARK  Name = ZINC44732246
REMARK  3 active torsions:
REMARK  status: ('A' for Active; 'I' for Inactive)
REMARK    1  A    between atoms: C_4  and  N_19
REMARK    2  A    between atoms: C_5  and  C_7
REMARK    3  A    between atoms: C_9  and  C_12
REMARK                            x       y       z     vdW  Elec       q    Type
REMARK                         _______ _______ _______ _____ _____    ______ ____
ROOT
ATOM      1  C   UNL     1       0.883  -2.128  -0.356  0.00  0.00    +0.204 A 
ATOM      2  N   UNL     1      -0.286  -2.783  -0.425  0.00  0.00    -0.187 NA
ATOM      3  C   UNL     1      -0.071  -4.067  -0.588  0.00  0.00    +0.259 A 
ATOM      4  O   UNL     1       1.258  -4.270  -0.627  0.00  0.00    -0.332 OA
ATOM      5  N   UNL     1       1.861  -2.993  -0.480  0.00  0.00    -0.056 NA
ENDROOT
BRANCH   3   6
ATOM      6  C   UNL     1      -1.109  -5.112  -0.707  0.00  0.00    +0.040 A 
ATOM      7  C   UNL     1      -2.461  -4.765  -0.654  0.00  0.00    +0.016 A 
ATOM      8  C   UNL     1      -3.426  -5.743  -0.766  0.00  0.00    +0.039 A 
ATOM      9  C   UNL     1      -3.057  -7.069  -0.929  0.00  0.00    +0.123 A 
ATOM     10  C   UNL     1      -1.716  -7.419  -0.981  0.00  0.00    +0.039 A 
ATOM     11  C   UNL     1      -0.743  -6.448  -0.877  0.00  0.00    +0.016 A 
ATOM     12  F   UNL     1      -4.006  -8.024  -1.038  0.00  0.00    -0.205 F 
ENDBRANCH   3   6
BRANCH   1  17
ATOM     13  C   UNL     1       2.071   1.409  -0.813  0.00  0.00    +0.001 A 
ATOM     14  C   UNL     1       1.345   2.072   0.163  0.00  0.00    +0.002 A 
ATOM     15  C   UNL     1       0.469   1.377   0.973  0.00  0.00    +0.023 A 
ATOM     16  C   UNL     1       0.311   0.007   0.811  0.00  0.00    +0.035 A 
ATOM     17  C   UNL     1       1.044  -0.665  -0.175  0.00  0.00    +0.043 A 
ATOM     18  C   UNL     1       1.925   0.048  -0.985  0.00  0.00    +0.013 A 
BRANCH  16  19
ATOM     19  N   UNL     1      -0.572  -0.697   1.627  0.00  0.00    -0.357 N 
ATOM     20  H   UNL     1      -1.145  -0.219   2.247  0.00  0.00    +0.142 HD
ATOM     21  H   UNL     1      -0.614  -1.665   1.576  0.00  0.00    +0.142 HD
ENDBRANCH  16  19
ENDBRANCH   1  17
TORSDOF 3
