REMARK  Name = ZINC54156080
REMARK  7 active torsions:
REMARK  status: ('A' for Active; 'I' for Inactive)
REMARK    1  A    between atoms: C_1  and  C_2
REMARK    2  A    between atoms: C_2  and  C_4
REMARK    3  A    between atoms: C_2  and  C_15
REMARK    4  A    between atoms: C_4  and  N_5
REMARK    5  A    between atoms: N_5  and  S_6
REMARK    6  A    between atoms: S_6  and  C_9
REMARK    7  A    between atoms: N_16  and  O_17
REMARK                            x       y       z     vdW  Elec       q    Type
REMARK                         _______ _______ _______ _____ _____    ______ ____
ROOT
ATOM      1  N   UNL     1       2.148  -0.104   1.172  0.00  0.00    -0.189 NA
ATOM      2  H   UNL     1       2.520   0.211   0.333  0.00  0.00    +0.148 HD
ENDROOT
BRANCH   1   3
ATOM      3  S   UNL     1       3.100  -0.181   2.524  0.00  0.00    +0.066 S 
ATOM      4  O   UNL     1       4.397   0.248   2.132  0.00  0.00    -0.153 OA
ATOM      5  O   UNL     1       2.373   0.448   3.570  0.00  0.00    -0.153 OA
BRANCH   3   6
ATOM      6  C   UNL     1       3.244  -1.882   2.963  0.00  0.00    +0.156 A 
ATOM      7  C   UNL     1       3.917  -2.442   3.998  0.00  0.00    +0.051 A 
ATOM      8  C   UNL     1       3.889  -3.817   4.149  0.00  0.00    +0.025 A 
ATOM      9  C   UNL     1       3.191  -4.562   3.259  0.00  0.00    +0.048 A 
ATOM     10  S   UNL     1       2.535  -3.313   2.165  0.00  0.00    -0.076 S 
ATOM     11 BR   UNL     1       4.879  -1.361   5.216  0.00  0.00    -0.048 Br
ENDBRANCH   3   6
ENDBRANCH   1   3
BRANCH   1  12
ATOM     12  C   UNL     1       0.742  -0.511   1.242  0.00  0.00    +0.116 C 
BRANCH  12  14
ATOM     13  C   UNL     1      -0.019   1.526   0.010  0.00  0.00    +0.017 C 
ATOM     14  C   UNL     1       0.002  -0.004   0.002  0.00  0.00    +0.068 C 
BRANCH  14  15
ATOM     15  C   UNL     1      -1.412  -0.526   0.013  0.00  0.00    +0.136 C 
ATOM     16  N   UNL     1      -2.364   0.200   0.498  0.00  0.00    -0.076 NA
ATOM     17  N   UNL     1      -1.688  -1.775  -0.495  0.00  0.00    -0.344 N 
ATOM     18  H   UNL     1      -0.973  -2.320  -0.860  0.00  0.00    +0.144 HD
ATOM     19  H   UNL     1      -2.599  -2.111  -0.489  0.00  0.00    +0.144 HD
BRANCH  16  20
ATOM     20  O   UNL     1      -3.692  -0.291   0.509  0.00  0.00    -0.408 OA
ATOM     21  H   UNL     1      -4.335   0.322   0.891  0.00  0.00    +0.328 HD
ENDBRANCH  16  20
ENDBRANCH  14  15
ENDBRANCH  12  14
ENDBRANCH   1  12
TORSDOF 6
