REMARK  Name = ZINC40058107
REMARK  8 active torsions:
REMARK  status: ('A' for Active; 'I' for Inactive)
REMARK    1  A    between atoms: C_4  and  S_7
REMARK    2  A    between atoms: S_7  and  C_10
REMARK    3  A    between atoms: C_10  and  C_11
REMARK    4  A    between atoms: C_14  and  C_16
REMARK    5  A    between atoms: N_18  and  N_19
REMARK    6  A    between atoms: N_22  and  C_23
REMARK    7  A    between atoms: C_23  and  C_24
REMARK    8  A    between atoms: C_24  and  C_25
REMARK                            x       y       z     vdW  Elec       q    Type
REMARK                         _______ _______ _______ _____ _____    ______ ____
ROOT
ATOM      1  C   UNL     1       7.702  -4.782   2.025  0.00  0.00    +0.295 C 
ATOM      2  O   UNL     1       8.907  -4.929   2.103  0.00  0.00    -0.265 OA
ATOM      3  N   UNL     1       6.891  -5.859   2.007  0.00  0.00    -0.227 N 
ATOM      4  H   UNL     1       5.931  -5.742   1.945  0.00  0.00    +0.173 HD
ENDROOT
BRANCH   3   5
ATOM      5  N   UNL     1       7.437  -7.148   2.079  0.00  0.00    -0.218 N 
ATOM      6  C   UNL     1       6.627  -8.224   2.061  0.00  0.00    +0.316 C 
ATOM      7  O   UNL     1       7.100  -9.343   2.124  0.00  0.00    -0.251 OA
ATOM      8  N   UNL     1       5.291  -8.062   1.974  0.00  0.00    -0.298 N 
ATOM      9  H   UNL     1       8.398  -7.265   2.141  0.00  0.00    +0.174 HD
ATOM     10  H   UNL     1       4.914  -7.170   1.925  0.00  0.00    +0.150 HD
BRANCH   8  11
ATOM     11  C   UNL     1       4.410  -9.232   1.955  0.00  0.00    +0.110 C 
BRANCH  11  12
ATOM     12  C   UNL     1       2.955  -8.773   1.852  0.00  0.00    +0.054 C 
BRANCH  12  13
ATOM     13  C   UNL     1       2.049  -9.977   1.832  0.00  0.00    -0.046 A 
ATOM     14  C   UNL     1       1.711 -10.568   0.629  0.00  0.00    +0.006 A 
ATOM     15  C   UNL     1       0.881 -11.672   0.609  0.00  0.00    +0.038 A 
ATOM     16  C   UNL     1       0.386 -12.187   1.796  0.00  0.00    +0.123 A 
ATOM     17  C   UNL     1       0.725 -11.594   3.001  0.00  0.00    +0.038 A 
ATOM     18  C   UNL     1       1.560 -10.493   3.018  0.00  0.00    +0.006 A 
ATOM     19  F   UNL     1      -0.426 -13.266   1.778  0.00  0.00    -0.205 F 
ENDBRANCH  12  13
ENDBRANCH  11  12
ENDBRANCH   8  11
ENDBRANCH   3   5
BRANCH   1  23
ATOM     20  C   UNL     1       5.671  -1.802   1.810  0.00  0.00    +0.127 A 
ATOM     21  C   UNL     1       6.892  -1.226   1.868  0.00  0.00    +0.047 A 
ATOM     22  C   UNL     1       7.834  -2.263   1.958  0.00  0.00    +0.055 A 
ATOM     23  C   UNL     1       7.131  -3.434   1.950  0.00  0.00    +0.191 A 
ATOM     24  O   UNL     1       5.819  -3.132   1.865  0.00  0.00    -0.453 OA
BRANCH  20  25
ATOM     25  C   UNL     1       4.359  -1.068   1.707  0.00  0.00    +0.245 C 
BRANCH  25  26
ATOM     26  S   UNL     1       3.934  -0.832  -0.041  0.00  0.00    +0.004 S 
ATOM     27  O   UNL     1       3.641  -2.083  -0.647  0.00  0.00    -0.169 OA
ATOM     28  O   UNL     1       4.846   0.072  -0.648  0.00  0.00    -0.169 OA
BRANCH  26  32
ATOM     29  C   UNL     1      -0.017   1.378   0.010  0.00  0.00    +0.000 A 
ATOM     30  C   UNL     1       1.171   2.086   0.002  0.00  0.00    +0.002 A 
ATOM     31  C   UNL     1       2.377   1.411  -0.013  0.00  0.00    +0.027 A 
ATOM     32  C   UNL     1       2.396   0.029  -0.020  0.00  0.00    +0.089 A 
ATOM     33  C   UNL     1       1.208  -0.679  -0.012  0.00  0.00    +0.027 A 
ATOM     34  C   UNL     1       0.002  -0.004   0.002  0.00  0.00    +0.002 A 
ENDBRANCH  26  32
ENDBRANCH  25  26
ENDBRANCH  20  25
ENDBRANCH   1  23
TORSDOF 8
