REMARK  Name = ZINC16009613
REMARK  7 active torsions:
REMARK  status: ('A' for Active; 'I' for Inactive)
REMARK    1  A    between atoms: C_1  and  C_2
REMARK    2  A    between atoms: C_3  and  N_11
REMARK    3  A    between atoms: C_7  and  N_8
REMARK    4  A    between atoms: C_16  and  C_33
REMARK    5  A    between atoms: C_33  and  C_34
REMARK    6  A    between atoms: C_34  and  S_35
REMARK    7  A    between atoms: S_35  and  C_36
REMARK                            x       y       z     vdW  Elec       q    Type
REMARK                         _______ _______ _______ _____ _____    ______ ____
ROOT
ATOM      1  N   UNL     1      -0.721  -0.041  -2.331  0.00  0.00    -0.209 N 
ATOM      2  C   UNL     1       0.172   0.543  -3.184  0.00  0.00    +0.232 C 
ATOM      3  O   UNL     1       1.367   0.346  -3.241  0.00  0.00    -0.274 OA
ATOM      4  C   UNL     1      -0.635   1.480  -4.041  0.00  0.00    +0.107 C 
ATOM      5  C   UNL     1      -0.360   1.541  -5.549  0.00  0.00    +0.068 C 
ATOM      6  N   UNL     1      -1.724   1.785  -6.124  0.00  0.00    -0.295 NA
ATOM      7  C   UNL     1      -2.720   1.209  -5.168  0.00  0.00    +0.136 C 
ATOM      8  C   UNL     1      -1.925   0.566  -4.108  0.00  0.00    +0.123 C 
ATOM      9  C   UNL     1      -2.022   0.102  -2.744  0.00  0.00    +0.233 C 
ATOM     10  O   UNL     1      -3.030  -0.111  -2.105  0.00  0.00    -0.274 OA
ATOM     11  C   UNL     1      -3.618   2.306  -4.657  0.00  0.00    +0.003 A 
ATOM     12  C   UNL     1      -3.389   3.442  -3.913  0.00  0.00    +0.008 A 
ATOM     13  C   UNL     1      -4.441   4.280  -3.588  0.00  0.00    +0.000 A 
ATOM     14  C   UNL     1      -5.721   3.974  -4.014  0.00  0.00    +0.002 A 
ATOM     15  C   UNL     1      -5.954   2.838  -4.762  0.00  0.00    +0.023 A 
ATOM     16  C   UNL     1      -4.900   1.989  -5.092  0.00  0.00    +0.039 A 
ATOM     17  N   UNL     1      -4.881   0.801  -5.825  0.00  0.00    -0.283 N 
ATOM     18  C   UNL     1      -3.645   0.280  -5.918  0.00  0.00    +0.243 C 
ATOM     19  O   UNL     1      -3.332  -0.740  -6.494  0.00  0.00    -0.273 OA
ATOM     20  H   UNL     1      -1.886   2.772  -6.263  0.00  0.00    +0.123 HD
ATOM     21  H   UNL     1      -5.669   0.398  -6.222  0.00  0.00    +0.155 HD
ENDROOT
BRANCH   1  24
ATOM     22  C   UNL     1      -0.537   1.447   0.089  0.00  0.00    +0.048 C 
ATOM     23  C   UNL     1      -0.246  -0.031   0.039  0.00  0.00    +0.002 A 
ATOM     24  C   UNL     1      -0.347  -0.719  -1.162  0.00  0.00    +0.049 A 
ATOM     25  C   UNL     1      -0.078  -2.080  -1.203  0.00  0.00    +0.024 A 
ATOM     26  C   UNL     1       0.289  -2.746  -0.050  0.00  0.00    +0.004 A 
ATOM     27  C   UNL     1       0.388  -2.058   1.145  0.00  0.00    +0.033 A 
ATOM     28  C   UNL     1       0.127  -0.700   1.188  0.00  0.00    +0.131 A 
BRANCH  28  29
ATOM     29  N   UNL     1       0.241   0.035   2.468  0.00  0.00    +0.057 N 
ATOM     30  O   UNL     1       0.676   1.163   2.481  0.00  0.00    -0.126 OA
ATOM     31  O   UNL     1      -0.100  -0.493   3.501  0.00  0.00    -0.126 OA
ENDBRANCH  28  29
ENDBRANCH   1  24
BRANCH   5  32
ATOM     32  C   UNL     1       0.588   2.695  -5.880  0.00  0.00    +0.030 C 
BRANCH  32  33
ATOM     33  C   UNL     1       0.941   2.653  -7.369  0.00  0.00    +0.070 C 
BRANCH  33  34
ATOM     34  S   UNL     1       2.065   4.022  -7.762  0.00  0.00    -0.164 S 
ATOM     35  C   UNL     1       2.382   3.832  -9.538  0.00  0.00    +0.084 C 
ENDBRANCH  33  34
ENDBRANCH  32  33
ENDBRANCH   5  32
TORSDOF 5
