REMARK  Name = ZINC38656273
REMARK  7 active torsions:
REMARK  status: ('A' for Active; 'I' for Inactive)
REMARK    1  A    between atoms: C_3  and  C_6
REMARK    2  A    between atoms: C_11  and  O_20
REMARK    3  A    between atoms: C_15  and  N_19
REMARK    4  A    between atoms: C_16  and  C_17
REMARK    5  A    between atoms: O_20  and  C_21
REMARK    6  A    between atoms: C_21  and  C_23
REMARK    7  A    between atoms: C_24  and  C_25
REMARK                            x       y       z     vdW  Elec       q    Type
REMARK                         _______ _______ _______ _____ _____    ______ ____
ROOT
ATOM      1  C   UNL     1       3.710   1.867  -0.061  0.00  0.00    +0.105 C 
ATOM      2  C   UNL     1       4.420   1.374  -1.294  0.00  0.00    +0.008 A 
ATOM      3  C   UNL     1       4.091   1.909  -2.527  0.00  0.00    +0.012 A 
ATOM      4  C   UNL     1       4.731   1.470  -3.669  0.00  0.00    +0.047 A 
ATOM      5  C   UNL     1       5.709   0.488  -3.583  0.00  0.00    +0.135 A 
ATOM      6  C   UNL     1       6.040  -0.049  -2.349  0.00  0.00    +0.093 A 
ATOM      7  C   UNL     1       5.395   0.393  -1.202  0.00  0.00    +0.138 A 
ATOM      8  O   UNL     1       5.730  -0.143  -0.003  0.00  0.00    -0.441 OA
ATOM      9  C   UNL     1       5.426   0.509   1.132  0.00  0.00    +0.199 C 
ATOM     10  C   UNL     1       4.478   1.471   1.169  0.00  0.00    +0.098 C 
ENDROOT
BRANCH   1  13
ATOM     11  C   UNL     1      -0.023   1.119   0.059  0.00  0.00    +0.008 A 
ATOM     12  C   UNL     1       1.127   1.884   0.001  0.00  0.00    +0.012 A 
ATOM     13  C   UNL     1       2.331   1.262  -0.004  0.00  0.00    +0.002 A 
ATOM     14  S   UNL     1       1.859  -0.458   0.074  0.00  0.00    -0.101 S 
ATOM     15  C   UNL     1       0.088  -0.232   0.108  0.00  0.00    +0.045 A 
ENDBRANCH   1  13
BRANCH   9  16
ATOM     16  N   UNL     1       6.097   0.187   2.285  0.00  0.00    -0.328 N 
ATOM     17  H   UNL     1       6.779  -0.503   2.273  0.00  0.00    +0.145 HD
ATOM     18  H   UNL     1       5.889   0.649   3.112  0.00  0.00    +0.145 HD
ENDBRANCH   9  16
BRANCH  10  19
ATOM     19  C   UNL     1       4.201   2.128   2.411  0.00  0.00    +0.101 C 
ATOM     20  N   UNL     1       3.980   2.649   3.396  0.00  0.00    -0.191 NA
ENDBRANCH  10  19
BRANCH   5  21
ATOM     21  O   UNL     1       6.339   0.055  -4.706  0.00  0.00    -0.423 OA
BRANCH  21  22
ATOM     22  C   UNL     1       7.182   0.905  -5.327  0.00  0.00    +0.337 C 
ATOM     23  O   UNL     1       7.439   1.983  -4.825  0.00  0.00    -0.245 OA
BRANCH  22  24
ATOM     24  C   UNL     1       7.786   0.532  -6.605  0.00  0.00    +0.092 C 
ATOM     25  C   UNL     1       8.629   1.383  -7.227  0.00  0.00    +0.015 C 
BRANCH  25  26
ATOM     26  C   UNL     1       9.238   1.008  -8.513  0.00  0.00    -0.025 A 
ATOM     27  C   UNL     1       8.940  -0.228  -9.097  0.00  0.00    +0.009 A 
ATOM     28  C   UNL     1       9.513  -0.573 -10.302  0.00  0.00    +0.020 A 
ATOM     29  C   UNL     1      10.383   0.300 -10.934  0.00  0.00    +0.041 A 
ATOM     30  C   UNL     1      10.683   1.526 -10.361  0.00  0.00    +0.020 A 
ATOM     31  C   UNL     1      10.112   1.887  -9.160  0.00  0.00    +0.009 A 
ATOM     32 CL   UNL     1      11.101  -0.143 -12.451  0.00  0.00    -0.084 Cl
ENDBRANCH  25  26
ENDBRANCH  22  24
ENDBRANCH  21  22
ENDBRANCH   5  21
TORSDOF 7
