REMARK  Name = ZINC12898825
REMARK  7 active torsions:
REMARK  status: ('A' for Active; 'I' for Inactive)
REMARK    1  A    between atoms: N_4  and  C_6
REMARK    2  A    between atoms: C_9  and  C_12
REMARK    3  A    between atoms: C_12  and  O_13
REMARK    4  A    between atoms: O_13  and  C_14
REMARK    5  A    between atoms: C_14  and  C_16
REMARK    6  A    between atoms: C_19  and  C_22
REMARK    7  A    between atoms: C_22  and  O_23
REMARK                            x       y       z     vdW  Elec       q    Type
REMARK                         _______ _______ _______ _____ _____    ______ ____
ROOT
ATOM      1  C   UNL     1       2.245   5.696   0.010  0.00  0.00    +0.268 C 
ENDROOT
BRANCH   1   5
ATOM      2  C   UNL     1       6.181   7.363  -0.018  0.00  0.00    +0.065 A 
ATOM      3  C   UNL     1       5.529   7.098  -1.215  0.00  0.00    +0.028 A 
ATOM      4  C   UNL     1       4.257   6.559  -1.203  0.00  0.00    +0.009 A 
ATOM      5  C   UNL     1       3.633   6.284   0.000  0.00  0.00    -0.010 A 
ATOM      6  C   UNL     1       4.278   6.552   1.194  0.00  0.00    +0.009 A 
ATOM      7  C   UNL     1       5.552   7.085   1.188  0.00  0.00    +0.028 A 
BRANCH   2  11
ATOM      8  C   UNL     1       9.393   8.719   0.626  0.00  0.00    +0.041 A 
ATOM      9  C   UNL     1       9.371   8.722  -0.773  0.00  0.00    +0.135 A 
ATOM     10  N   UNL     1       8.220   8.238  -1.165  0.00  0.00    -0.175 NA
ATOM     11  N   UNL     1       7.472   7.910  -0.028  0.00  0.00    -0.240 N 
ATOM     12  C   UNL     1       8.213   8.220   1.060  0.00  0.00    +0.114 A 
ENDBRANCH   2  11
ENDBRANCH   1   5
BRANCH   1  13
ATOM     13  O   UNL     1       2.334   4.247   0.002  0.00  0.00    -0.456 OA
BRANCH  13  14
ATOM     14  C   UNL     1       1.173   3.564   0.009  0.00  0.00    +0.339 C 
ATOM     15  O   UNL     1       0.116   4.162   0.022  0.00  0.00    -0.245 OA
BRANCH  14  16
ATOM     16  C   UNL     1       1.185   2.087   0.002  0.00  0.00    +0.059 A 
ATOM     17  C   UNL     1      -0.017   1.375   0.010  0.00  0.00    +0.015 A 
ATOM     18  C   UNL     1       0.002  -0.004   0.002  0.00  0.00    +0.006 A 
ATOM     19  C   UNL     1       1.208  -0.683  -0.013  0.00  0.00    -0.022 A 
ATOM     20  C   UNL     1       2.402   0.016  -0.020  0.00  0.00    +0.006 A 
ATOM     21  C   UNL     1       2.398   1.395  -0.012  0.00  0.00    +0.015 A 
BRANCH  19  22
ATOM     22  C   UNL     1       1.220  -2.190  -0.021  0.00  0.00    +0.191 C 
BRANCH  22  23
ATOM     23  O   UNL     1       1.211  -2.659  -1.371  0.00  0.00    -0.390 OA
ATOM     24  H   UNL     1       1.219  -3.622  -1.453  0.00  0.00    +0.210 HD
ENDBRANCH  22  23
ENDBRANCH  19  22
ENDBRANCH  14  16
ENDBRANCH  13  14
ENDBRANCH   1  13
TORSDOF 7
