REMARK  Name = ZINC01568069
REMARK  6 active torsions:
REMARK  status: ('A' for Active; 'I' for Inactive)
REMARK    1  A    between atoms: C_4  and  C_19
REMARK    2  A    between atoms: C_6  and  C_15
REMARK    3  A    between atoms: C_9  and  C_11
REMARK    4  A    between atoms: C_19  and  C_21
REMARK    5  A    between atoms: C_19  and  O_28
REMARK    6  A    between atoms: C_21  and  C_22
REMARK                            x       y       z     vdW  Elec       q    Type
REMARK                         _______ _______ _______ _____ _____    ______ ____
ROOT
ATOM      1  C   UNL     1       0.762   7.602  -3.290  0.00  0.00    +0.001 A 
ATOM      2  C   UNL     1      -0.245   6.945  -2.653  0.00  0.00    +0.010 A 
ATOM      3  C   UNL     1      -1.291   7.678  -2.069  0.00  0.00    +0.007 A 
ATOM      4  C   UNL     1      -2.352   7.037  -1.401  0.00  0.00    -0.008 A 
ATOM      5  C   UNL     1      -3.337   7.814  -0.863  0.00  0.00    +0.039 A 
ATOM      6  C   UNL     1      -3.269   9.201  -0.976  0.00  0.00    +0.145 A 
ATOM      7  N   UNL     1      -2.280   9.794  -1.598  0.00  0.00    -0.242 NA
ATOM      8  C   UNL     1      -1.286   9.092  -2.151  0.00  0.00    +0.084 A 
ATOM      9  C   UNL     1      -0.229   9.734  -2.819  0.00  0.00    +0.081 A 
ATOM     10  C   UNL     1       0.769   8.993  -3.373  0.00  0.00    +0.014 A 
ENDROOT
BRANCH   9  11
ATOM     11  C   UNL     1      -0.200  11.238  -2.920  0.00  0.00    +0.419 C 
ATOM     12  F   UNL     1       0.942  11.636  -3.624  0.00  0.00    -0.166 F 
ATOM     13  F   UNL     1      -1.342  11.681  -3.596  0.00  0.00    -0.166 F 
ATOM     14  F   UNL     1      -0.173  11.792  -1.636  0.00  0.00    -0.166 F 
ENDBRANCH   9  11
BRANCH   6  15
ATOM     15  C   UNL     1      -4.364  10.040  -0.370  0.00  0.00    +0.434 C 
ATOM     16  F   UNL     1      -4.160  11.384  -0.702  0.00  0.00    -0.164 F 
ATOM     17  F   UNL     1      -5.603   9.621  -0.868  0.00  0.00    -0.164 F 
ATOM     18  F   UNL     1      -4.348   9.896   1.021  0.00  0.00    -0.164 F 
ENDBRANCH   6  15
BRANCH   4  19
ATOM     19  C   UNL     1      -2.400   5.535  -1.287  0.00  0.00    +0.144 C 
BRANCH  19  20
ATOM     20  O   UNL     1      -3.756   5.114  -1.119  0.00  0.00    -0.387 OA
ATOM     21  H   UNL     1      -4.184   5.473  -0.331  0.00  0.00    +0.210 HD
ENDBRANCH  19  20
BRANCH  19  22
ATOM     22  C   UNL     1      -1.574   5.087  -0.080  0.00  0.00    +0.020 C 
BRANCH  22  23
ATOM     23  C   UNL     1      -1.520   3.559  -0.037  0.00  0.00    -0.069 C 
ATOM     24  C   UNL     1      -0.801   3.110   1.237  0.00  0.00    -0.016 C 
ATOM     25  C   UNL     1      -0.731   1.580   1.267  0.00  0.00    -0.003 C 
ATOM     26  C   UNL     1      -0.013   1.086   0.008  0.00  0.00    -0.019 C 
ATOM     27  C   UNL     1      -0.754   1.594  -1.231  0.00  0.00    -0.082 C 
ATOM     28  N   UNL     1      -0.788   3.068  -1.221  0.00  0.00    +0.381 N 
ATOM     29  H   UNL     1       0.173   3.429  -1.197  0.00  0.00    -0.086 HD
ATOM     30  H   UNL     1      -1.257   3.402  -2.071  0.00  0.00    -0.086 HD
ENDBRANCH  22  23
ENDBRANCH  19  22
ENDBRANCH   4  19
TORSDOF 6
