REMARK  Name = ZINC46119872
REMARK  7 active torsions:
REMARK  status: ('A' for Active; 'I' for Inactive)
REMARK    1  A    between atoms: C_1  and  C_2
REMARK    2  A    between atoms: C_5  and  N_9
REMARK    3  A    between atoms: N_9  and  N_10
REMARK    4  A    between atoms: C_11  and  C_13
REMARK    5  A    between atoms: C_13  and  C_14
REMARK    6  A    between atoms: C_17  and  C_19
REMARK    7  A    between atoms: C_22  and  C_24
REMARK                            x       y       z     vdW  Elec       q    Type
REMARK                         _______ _______ _______ _____ _____    ______ ____
ROOT
ATOM      1  N   UNL     1       0.074  -4.876   1.187  0.00  0.00    -0.236 N 
ATOM      2  C   UNL     1       0.092  -6.224   1.179  0.00  0.00    +0.235 C 
ATOM      3  O   UNL     1       0.095  -6.824   0.124  0.00  0.00    -0.274 OA
ATOM      4  H   UNL     1       0.072  -4.396   2.030  0.00  0.00    +0.173 HD
ENDROOT
BRANCH   1   5
ATOM      5  N   UNL     1       0.059  -4.168  -0.022  0.00  0.00    -0.264 N 
ATOM      6  H   UNL     1       0.060  -4.648  -0.865  0.00  0.00    +0.170 HD
BRANCH   5  11
ATOM      7  C   UNL     1      -0.018   1.503   0.010  0.00  0.00    +0.045 C 
ATOM      8  C   UNL     1       0.002  -0.004   0.002  0.00  0.00    -0.032 A 
ATOM      9  C   UNL     1       0.006  -0.688  -1.200  0.00  0.00    +0.006 A 
ATOM     10  C   UNL     1       0.025  -2.068  -1.212  0.00  0.00    +0.025 A 
ATOM     11  C   UNL     1       0.040  -2.772  -0.013  0.00  0.00    +0.046 A 
ATOM     12  C   UNL     1       0.037  -2.083   1.193  0.00  0.00    +0.044 A 
ATOM     13  C   UNL     1       0.023  -0.701   1.197  0.00  0.00    +0.046 A 
ATOM     14 CL   UNL     1       0.025   0.161   2.704  0.00  0.00    -0.083 Cl
ENDBRANCH   5  11
ENDBRANCH   1   5
BRANCH   2  15
ATOM     15  C   UNL     1       0.109  -6.985   2.479  0.00  0.00    +0.153 C 
BRANCH  15  16
ATOM     16  C   UNL     1       0.127  -8.465   2.194  0.00  0.00    +0.058 A 
ATOM     17  C   UNL     1       1.101  -9.248   2.728  0.00  0.00    +0.071 A 
ATOM     18  S   UNL     1       0.634 -10.847   2.076  0.00  0.00    -0.072 S 
ATOM     19  C   UNL     1      -0.804 -10.300   1.166  0.00  0.00    +0.144 A 
ATOM     20  N   UNL     1      -0.801  -8.999   1.436  0.00  0.00    -0.240 NA
BRANCH  19  21
ATOM     21  C   UNL     1      -1.742 -11.081   0.344  0.00  0.00    +0.160 A 
ATOM     22  C   UNL     1      -1.684 -12.424   0.122  0.00  0.00    +0.052 A 
ATOM     23  C   UNL     1      -2.770 -12.743  -0.715  0.00  0.00    +0.045 A 
ATOM     24  C   UNL     1      -3.431 -11.594  -0.962  0.00  0.00    +0.103 A 
ATOM     25  O   UNL     1      -2.811 -10.593  -0.316  0.00  0.00    -0.458 OA
ATOM     26  C   UNL     1      -4.665 -11.457  -1.816  0.00  0.00    +0.086 C 
ENDBRANCH  19  21
ENDBRANCH  15  16
ENDBRANCH   2  15
TORSDOF 5
