REMARK  Name = ZINC65771837
REMARK  3 active torsions:
REMARK  status: ('A' for Active; 'I' for Inactive)
REMARK    1  A    between atoms: C_7  and  C_13
REMARK    2  A    between atoms: N_15  and  N_16
REMARK    3  A    between atoms: N_19  and  C_20
REMARK                            x       y       z     vdW  Elec       q    Type
REMARK                         _______ _______ _______ _____ _____    ______ ____
ROOT
ATOM      1  N   UNL     1      -0.931  -5.114  -0.019  0.00  0.00    -0.218 N 
ATOM      2  C   UNL     1      -0.824  -6.458  -0.019  0.00  0.00    +0.320 C 
ATOM      3  O   UNL     1      -1.825  -7.147  -0.004  0.00  0.00    -0.251 OA
ATOM      4  N   UNL     1       0.393  -7.036  -0.036  0.00  0.00    -0.268 N 
ATOM      5  H   UNL     1      -1.807  -4.698  -0.006  0.00  0.00    +0.174 HD
ATOM      6  H   UNL     1       1.190  -6.488  -0.116  0.00  0.00    +0.156 HD
ENDROOT
BRANCH   4   7
ATOM      7  C   UNL     1       0.508  -8.429   0.061  0.00  0.00    +0.036 A 
ATOM      8  C   UNL     1      -0.450  -9.248  -0.533  0.00  0.00    +0.027 A 
ATOM      9  C   UNL     1      -0.351 -10.620  -0.445  0.00  0.00    +0.049 A 
ATOM     10  C   UNL     1       0.710 -11.199   0.239  0.00  0.00    +0.139 A 
ATOM     11  C   UNL     1       1.679 -10.377   0.840  0.00  0.00    +0.019 A 
ATOM     12  C   UNL     1       1.575  -8.986   0.742  0.00  0.00    +0.035 A 
ATOM     13  C   UNL     1       2.793 -11.001   1.560  0.00  0.00    +0.018 A 
ATOM     14  C   UNL     1       2.842 -12.356   1.616  0.00  0.00    +0.092 A 
ATOM     15  C   UNL     1       1.834 -13.121   0.990  0.00  0.00    +0.337 A 
ATOM     16  O   UNL     1       1.889 -14.336   1.048  0.00  0.00    -0.245 OA
ATOM     17  O   UNL     1       0.817 -12.543   0.333  0.00  0.00    -0.422 OA
ENDBRANCH   4   7
BRANCH   1  20
ATOM     18  C   UNL     1       0.115  -2.976  -0.036  0.00  0.00    +0.281 C 
ATOM     19  O   UNL     1      -0.983  -2.454  -0.020  0.00  0.00    -0.267 OA
ATOM     20  N   UNL     1       0.222  -4.319  -0.036  0.00  0.00    -0.228 N 
ATOM     21  H   UNL     1       1.098  -4.736  -0.049  0.00  0.00    +0.173 HD
BRANCH  18  28
ATOM     22  C   UNL     1      -0.016   1.375  -0.038  0.00  0.00    +0.001 A 
ATOM     23  C   UNL     1       1.167   2.102  -0.054  0.00  0.00    +0.001 A 
ATOM     24  C   UNL     1       2.388   1.461  -0.072  0.00  0.00    +0.014 A 
ATOM     25  C   UNL     1       2.428   0.070  -0.071  0.00  0.00    +0.050 A 
ATOM     26  C   UNL     1       1.223  -0.670  -0.054  0.00  0.00    +0.020 A 
ATOM     27  C   UNL     1       0.003  -0.004  -0.037  0.00  0.00    +0.011 A 
ATOM     28  C   UNL     1       1.330  -2.138  -0.054  0.00  0.00    +0.155 A 
ATOM     29  N   UNL     1       2.518  -2.693  -0.070  0.00  0.00    -0.166 NA
ATOM     30  N   UNL     1       3.618  -2.039  -0.087  0.00  0.00    -0.242 N 
ATOM     31  H   UNL     1       4.449  -2.539  -0.098  0.00  0.00    +0.192 HD
ATOM     32  C   UNL     1       3.684  -0.692  -0.089  0.00  0.00    +0.272 A 
ATOM     33  O   UNL     1       4.759  -0.121  -0.105  0.00  0.00    -0.266 OA
ENDBRANCH  18  28
ENDBRANCH   1  20
TORSDOF 3
