REMARK  Name = ZINC09373057
REMARK  12 active torsions:
REMARK  status: ('A' for Active; 'I' for Inactive)
REMARK    1  A    between atoms: C_1  and  C_2
REMARK    2  A    between atoms: C_4  and  C_15
REMARK    3  A    between atoms: C_7  and  N_8
REMARK    4  A    between atoms: N_8  and  C_9
REMARK    5  A    between atoms: C_9  and  N_11
REMARK    6  A    between atoms: C_12  and  C_14
REMARK    7  A    between atoms: C_15  and  C_21
REMARK    8  A    between atoms: C_24  and  N_28
REMARK    9  A    between atoms: C_25  and  C_27
REMARK   10  A    between atoms: N_28  and  C_29
REMARK   11  A    between atoms: C_29  and  N_31
REMARK   12  A    between atoms: C_32  and  C_34
REMARK                            x       y       z     vdW  Elec       q    Type
REMARK                         _______ _______ _______ _____ _____    ______ ____
ROOT
ATOM      1  C   UNL     1      -1.572   3.239   0.343  0.00  0.00    +0.021 C 
ATOM      2  C   UNL     1      -1.034   2.481  -0.872  0.00  0.00    +0.016 C 
ATOM      3  C   UNL     1      -0.908   0.994  -0.530  0.00  0.00    +0.001 C 
ATOM      4  C   UNL     1       0.053   0.821   0.647  0.00  0.00    +0.000 C 
ATOM      5  C   UNL     1      -0.485   1.579   1.861  0.00  0.00    +0.001 C 
ATOM      6  C   UNL     1      -0.610   3.066   1.520  0.00  0.00    +0.016 C 
ENDROOT
BRANCH   1  10
ATOM      7  C   UNL     1      -2.992   7.867   1.608  0.00  0.00    +0.045 C 
ATOM      8  C   UNL     1      -2.376   6.917   0.614  0.00  0.00    -0.029 A 
ATOM      9  C   UNL     1      -2.265   5.574   0.917  0.00  0.00    +0.009 A 
ATOM     10  C   UNL     1      -1.695   4.703   0.007  0.00  0.00    -0.037 A 
ATOM     11  C   UNL     1      -1.243   5.171  -1.214  0.00  0.00    +0.006 A 
ATOM     12  C   UNL     1      -1.355   6.512  -1.525  0.00  0.00    +0.024 A 
ATOM     13  C   UNL     1      -1.922   7.391  -0.611  0.00  0.00    +0.036 A 
BRANCH  13  14
ATOM     14  N   UNL     1      -2.037   8.749  -0.923  0.00  0.00    -0.296 N 
ATOM     15  H   UNL     1      -2.837   9.238  -0.674  0.00  0.00    +0.154 HD
BRANCH  14  16
ATOM     16  C   UNL     1      -1.037   9.379  -1.570  0.00  0.00    +0.141 C 
ATOM     17  S   UNL     1       0.412   8.540  -1.929  0.00  0.00    -0.018 S 
BRANCH  16  18
ATOM     18  N   UNL     1      -1.177  10.669  -1.935  0.00  0.00    -0.268 N 
ATOM     19  C   UNL     1      -0.176  11.299  -2.582  0.00  0.00    +0.215 C 
ATOM     20  O   UNL     1       0.850  10.705  -2.836  0.00  0.00    -0.276 OA
ATOM     21  C   UNL     1      -0.333  12.741  -2.989  0.00  0.00    +0.109 C 
ATOM     22  H   UNL     1      -1.997  11.144  -1.731  0.00  0.00    +0.156 HD
ENDBRANCH  16  18
ENDBRANCH  14  16
ENDBRANCH  13  14
ENDBRANCH   1  10
BRANCH   1  23
ATOM     23  C   UNL     1      -2.926   2.694   0.716  0.00  0.00    -0.037 A 
ATOM     24  C   UNL     1      -3.186   2.326   2.024  0.00  0.00    +0.006 A 
ATOM     25  C   UNL     1      -4.426   1.826   2.370  0.00  0.00    +0.024 A 
ATOM     26  C   UNL     1      -5.413   1.692   1.402  0.00  0.00    +0.036 A 
ATOM     27  C   UNL     1      -5.149   2.062   0.089  0.00  0.00    -0.029 A 
ATOM     28  C   UNL     1      -3.909   2.567  -0.248  0.00  0.00    +0.009 A 
ATOM     29  C   UNL     1      -6.218   1.919  -0.964  0.00  0.00    +0.045 C 
BRANCH  26  30
ATOM     30  N   UNL     1      -6.670   1.186   1.748  0.00  0.00    -0.296 N 
ATOM     31  H   UNL     1      -7.471   1.568   1.356  0.00  0.00    +0.154 HD
BRANCH  30  32
ATOM     32  C   UNL     1      -6.768   0.169   2.627  0.00  0.00    +0.141 C 
ATOM     33  S   UNL     1      -5.366  -0.425   3.408  0.00  0.00    -0.018 S 
BRANCH  32  34
ATOM     34  N   UNL     1      -7.971  -0.380   2.890  0.00  0.00    -0.268 N 
ATOM     35  C   UNL     1      -8.069  -1.397   3.769  0.00  0.00    +0.215 C 
ATOM     36  O   UNL     1      -7.075  -1.818   4.322  0.00  0.00    -0.276 OA
ATOM     37  C   UNL     1      -9.413  -2.011   4.064  0.00  0.00    +0.109 C 
ATOM     38  H   UNL     1      -8.765  -0.043   2.448  0.00  0.00    +0.156 HD
ENDBRANCH  32  34
ENDBRANCH  30  32
ENDBRANCH  26  30
ENDBRANCH   1  23
TORSDOF 8
