REMARK  Name = ZINC49978562
REMARK  7 active torsions:
REMARK  status: ('A' for Active; 'I' for Inactive)
REMARK    1  A    between atoms: C_1  and  C_2
REMARK    2  A    between atoms: C_4  and  C_21
REMARK    3  A    between atoms: C_6  and  N_8
REMARK    4  A    between atoms: N_8  and  C_9
REMARK    5  A    between atoms: N_8  and  S_10
REMARK    6  A    between atoms: S_10  and  C_13
REMARK    7  A    between atoms: C_18  and  N_19
REMARK                            x       y       z     vdW  Elec       q    Type
REMARK                         _______ _______ _______ _____ _____    ______ ____
ROOT
ATOM      1  S   UNL     1      -0.411  -2.049   3.711  0.00  0.00    +0.076 S 
ATOM      2  O   UNL     1      -1.412  -1.076   3.443  0.00  0.00    -0.150 OA
ATOM      3  O   UNL     1      -0.647  -3.173   4.547  0.00  0.00    -0.150 OA
ENDROOT
BRANCH   1   4
ATOM      4  C   UNL     1       0.960  -1.185   4.403  0.00  0.00    +0.131 A 
ATOM      5  C   UNL     1       0.894   0.183   4.584  0.00  0.00    +0.050 A 
ATOM      6  C   UNL     1       1.970   0.862   5.128  0.00  0.00    +0.043 A 
ATOM      7  C   UNL     1       3.114   0.173   5.492  0.00  0.00    +0.022 A 
ATOM      8  C   UNL     1       3.185  -1.194   5.312  0.00  0.00    +0.026 A 
ATOM      9  C   UNL     1       2.104  -1.879   4.772  0.00  0.00    +0.052 A 
ATOM     10 CL   UNL     1       1.885   2.581   5.354  0.00  0.00    -0.083 Cl
BRANCH   9  11
ATOM     11  N   UNL     1       2.170  -3.264   4.596  0.00  0.00    -0.356 N 
ATOM     12  H   UNL     1       1.385  -3.754   4.308  0.00  0.00    +0.142 HD
ATOM     13  H   UNL     1       3.002  -3.735   4.761  0.00  0.00    +0.142 HD
ENDBRANCH   9  11
ENDBRANCH   1   4
BRANCH   1  14
ATOM     14  N   UNL     1       0.075  -2.643   2.244  0.00  0.00    -0.206 N 
ATOM     15  C   UNL     1       0.555  -4.023   2.135  0.00  0.00    +0.157 C 
BRANCH  14  21
ATOM     16  C   UNL     1       1.448   1.468  -0.074  0.00  0.00    +0.044 C 
ATOM     17  C   UNL     1       0.682   0.170  -0.042  0.00  0.00    -0.048 A 
ATOM     18  C   UNL     1      -0.069  -0.217  -1.137  0.00  0.00    +0.006 A 
ATOM     19  C   UNL     1      -0.772  -1.407  -1.111  0.00  0.00    -0.048 A 
ATOM     20  C   UNL     1      -0.727  -2.214   0.008  0.00  0.00    +0.028 A 
ATOM     21  C   UNL     1       0.027  -1.829   1.110  0.00  0.00    +0.051 A 
ATOM     22  C   UNL     1       0.737  -0.636   1.079  0.00  0.00    +0.028 A 
ATOM     23  C   UNL     1      -1.590  -1.823  -2.307  0.00  0.00    +0.044 C 
ENDBRANCH  14  21
ENDBRANCH   1  14
TORSDOF 4
