REMARK  Name = ZINC29335446
REMARK  6 active torsions:
REMARK  status: ('A' for Active; 'I' for Inactive)
REMARK    1  A    between atoms: C_3  and  C_6
REMARK    2  A    between atoms: C_6  and  N_7
REMARK    3  A    between atoms: N_7  and  C_8
REMARK    4  A    between atoms: C_18  and  C_20
REMARK    5  A    between atoms: C_20  and  S_21
REMARK    6  A    between atoms: S_21  and  C_22
REMARK                            x       y       z     vdW  Elec       q    Type
REMARK                         _______ _______ _______ _____ _____    ______ ____
ROOT
ATOM      1  N   UNL     1       3.621  -0.663  -0.044  0.00  0.00    -0.266 N 
ATOM      2  C   UNL     1       4.778   0.020  -0.156  0.00  0.00    +0.230 C 
ATOM      3  O   UNL     1       4.769   1.233  -0.149  0.00  0.00    -0.274 OA
ENDROOT
BRANCH   1   4
ATOM      4  C   UNL     1       2.401   0.025  -0.020  0.00  0.00    +0.040 A 
ATOM      5  C   UNL     1       1.643   0.054   1.143  0.00  0.00    +0.027 A 
ATOM      6  C   UNL     1       0.440   0.732   1.168  0.00  0.00    +0.051 A 
ATOM      7  C   UNL     1      -0.015   1.385   0.032  0.00  0.00    +0.162 A 
ATOM      8  C   UNL     1       0.743   1.360  -1.133  0.00  0.00    +0.164 A 
ATOM      9  C   UNL     1       1.950   0.678  -1.158  0.00  0.00    +0.073 A 
ATOM     10  O   UNL     1       0.317   2.002  -2.255  0.00  0.00    -0.485 OA
ATOM     11  C   UNL     1      -1.069   2.359  -2.306  0.00  0.00    +0.270 C 
ATOM     12  C   UNL     1      -1.450   2.999  -0.965  0.00  0.00    +0.270 C 
ATOM     13  O   UNL     1      -1.208   2.042   0.073  0.00  0.00    -0.485 OA
ENDBRANCH   1   4
BRANCH   1  14
ATOM     14  C   UNL     1       3.640  -2.125   0.051  0.00  0.00    +0.156 C 
BRANCH  14  17
ATOM     15  C   UNL     1       4.266  -3.587  -3.410  0.00  0.00    +0.008 A 
ATOM     16  C   UNL     1       4.574  -3.047  -2.175  0.00  0.00    +0.013 A 
ATOM     17  C   UNL     1       3.565  -2.720  -1.331  0.00  0.00    +0.007 A 
ATOM     18  S   UNL     1       2.125  -3.183  -2.280  0.00  0.00    -0.100 S 
ATOM     19  C   UNL     1       2.965  -3.773  -3.740  0.00  0.00    +0.045 A 
ENDBRANCH  14  17
ENDBRANCH   1  14
BRANCH   2  20
ATOM     20  C   UNL     1       6.082  -0.724  -0.289  0.00  0.00    +0.173 C 
BRANCH  20  21
ATOM     21  S   UNL     1       7.443   0.463  -0.418  0.00  0.00    -0.084 S 
BRANCH  21  22
ATOM     22  C   UNL     1       8.804  -0.647  -0.559  0.00  0.00    +0.123 C 
ATOM     23  N   UNL     1       8.600  -1.935  -0.545  0.00  0.00    -0.382 N 
ATOM     24  N   UNL     1      10.083  -0.154  -0.683  0.00  0.00    -0.340 N 
ATOM     25  H   UNL     1       9.450  -2.627  -0.633  0.00  0.00    +0.158 HD
ATOM     26  H   UNL     1      10.932  -0.847  -0.771  0.00  0.00    +0.144 HD
ATOM     27  H   UNL     1      10.255   0.932  -0.695  0.00  0.00    +0.144 HD
ATOM     28  H   UNL     1       7.577  -2.328  -0.446  0.00  0.00    +0.158 HD
ENDBRANCH  21  22
ENDBRANCH  20  21
ENDBRANCH   2  20
TORSDOF 6
