REMARK  Name = ZINC05557371
REMARK  8 active torsions:
REMARK  status: ('A' for Active; 'I' for Inactive)
REMARK    1  A    between atoms: C_1  and  C_2
REMARK    2  A    between atoms: C_7  and  C_8
REMARK    3  A    between atoms: C_10  and  C_13
REMARK    4  A    between atoms: C_18  and  C_19
REMARK    5  A    between atoms: N_21  and  C_22
REMARK    6  A    between atoms: C_22  and  C_23
REMARK    7  A    between atoms: C_22  and  C_24
REMARK    8  A    between atoms: C_22  and  C_25
REMARK                            x       y       z     vdW  Elec       q    Type
REMARK                         _______ _______ _______ _____ _____    ______ ____
ROOT
ATOM      1  C   UNL     1       1.152   3.134  -0.262  0.00  0.00    +0.052 A 
ATOM      2  C   UNL     1       1.165   1.760  -0.030  0.00  0.00    +0.014 A 
ATOM      3  C   UNL     1      -0.013   1.095   0.244  0.00  0.00    +0.001 A 
ATOM      4  C   UNL     1      -1.214   1.783   0.284  0.00  0.00    +0.001 A 
ATOM      5  C   UNL     1      -1.247   3.146   0.063  0.00  0.00    +0.014 A 
ATOM      6  C   UNL     1      -0.068   3.835  -0.215  0.00  0.00    +0.049 A 
ENDROOT
BRANCH   1   9
ATOM      7  C   UNL     1       4.434   4.342  -0.977  0.00  0.00    +0.203 A 
ATOM      8  N   UNL     1       3.599   3.309  -0.741  0.00  0.00    -0.187 NA
ATOM      9  C   UNL     1       2.410   3.851  -0.555  0.00  0.00    +0.259 A 
ATOM     10  O   UNL     1       2.562   5.178  -0.689  0.00  0.00    -0.332 OA
ATOM     11  N   UNL     1       3.723   5.439  -0.923  0.00  0.00    -0.056 NA
BRANCH   7  18
ATOM     12  C   UNL     1       5.959   6.755  -1.447  0.00  0.00    +0.044 C 
ATOM     13  C   UNL     1       6.633   5.408  -1.475  0.00  0.00    -0.040 A 
ATOM     14  C   UNL     1       7.987   5.317  -1.727  0.00  0.00    +0.004 A 
ATOM     15  C   UNL     1       8.607   4.081  -1.754  0.00  0.00    +0.000 A 
ATOM     16  C   UNL     1       7.875   2.929  -1.528  0.00  0.00    +0.001 A 
ATOM     17  C   UNL     1       6.521   3.009  -1.270  0.00  0.00    +0.012 A 
ATOM     18  C   UNL     1       5.891   4.251  -1.248  0.00  0.00    +0.025 A 
ENDBRANCH   7  18
ENDBRANCH   1   9
BRANCH   6  19
ATOM     19  C   UNL     1      -0.099   5.292  -0.459  0.00  0.00    +0.245 C 
ATOM     20  O   UNL     1       0.421   5.752  -1.458  0.00  0.00    -0.270 OA
ATOM     21  N   UNL     1      -0.702   6.111   0.425  0.00  0.00    -0.307 N 
ATOM     22  H   UNL     1      -1.116   5.744   1.221  0.00  0.00    +0.150 HD
BRANCH  21  23
ATOM     23  C   UNL     1      -0.732   7.555   0.183  0.00  0.00    +0.026 C 
ATOM     24  C   UNL     1      -1.456   7.837  -1.135  0.00  0.00    +0.031 C 
ATOM     25  C   UNL     1      -1.471   8.249   1.329  0.00  0.00    +0.031 C 
ATOM     26  C   UNL     1       0.700   8.089   0.102  0.00  0.00    +0.031 C 
ENDBRANCH  21  23
ENDBRANCH   6  19
TORSDOF 4
