REMARK  Name = ZINC59386875
REMARK  5 active torsions:
REMARK  status: ('A' for Active; 'I' for Inactive)
REMARK    1  A    between atoms: C_9  and  C_12
REMARK    2  A    between atoms: C_10  and  O_11
REMARK    3  A    between atoms: C_12  and  C_14
REMARK    4  A    between atoms: C_12  and  N_23
REMARK    5  A    between atoms: C_18  and  N_20
REMARK                            x       y       z     vdW  Elec       q    Type
REMARK                         _______ _______ _______ _____ _____    ______ ____
ROOT
ATOM      1  C   UNL     1       4.997  -2.721  -0.058  0.00  0.00    +0.136 C 
ENDROOT
BRANCH   1  10
ATOM      2  C   UNL     1      -0.456   0.750  -0.077  0.00  0.00    +0.001 A 
ATOM      3  C   UNL     1       0.630   1.603   0.114  0.00  0.00    +0.001 A 
ATOM      4  C   UNL     1       1.901   1.118   0.157  0.00  0.00    +0.012 A 
ATOM      5  C   UNL     1       2.126  -0.260   0.008  0.00  0.00    +0.024 A 
ATOM      6  C   UNL     1       1.022  -1.127  -0.186  0.00  0.00    -0.014 A 
ATOM      7  C   UNL     1      -0.277  -0.591  -0.225  0.00  0.00    +0.008 A 
ATOM      8  C   UNL     1       1.246  -2.506  -0.335  0.00  0.00    +0.009 A 
ATOM      9  C   UNL     1       2.517  -2.993  -0.291  0.00  0.00    +0.010 A 
ATOM     10  C   UNL     1       3.605  -2.145  -0.101  0.00  0.00    +0.019 A 
ATOM     11  C   UNL     1       3.428  -0.798   0.047  0.00  0.00    +0.130 A 
BRANCH  11  12
ATOM     12  O   UNL     1       4.499   0.016   0.232  0.00  0.00    -0.506 OA
ATOM     13  H   UNL     1       4.739   0.146   1.159  0.00  0.00    +0.292 HD
ENDBRANCH  11  12
ENDBRANCH   1  10
BRANCH   1  14
ATOM     14  N   UNL     1       4.933  -4.123   0.362  0.00  0.00    -0.313 N 
ATOM     15  C   UNL     1       4.917  -4.442   1.710  0.00  0.00    +0.159 A 
ATOM     16  N   UNL     1       5.043  -3.636   2.743  0.00  0.00    -0.233 NA
ATOM     17  C   UNL     1       5.005  -4.101   3.979  0.00  0.00    +0.120 A 
ATOM     18  C   UNL     1       4.832  -5.436   4.130  0.00  0.00    +0.068 A 
ATOM     19  S   UNL     1       4.724  -5.954   2.425  0.00  0.00    -0.061 S 
ATOM     20  H   UNL     1       4.902  -4.828  -0.304  0.00  0.00    +0.149 HD
ENDBRANCH   1  14
BRANCH   1  21
ATOM     21  C   UNL     1       5.619  -2.635  -1.429  0.00  0.00    -0.021 A 
ATOM     22  C   UNL     1       5.189  -3.478  -2.437  0.00  0.00    +0.006 A 
ATOM     23  C   UNL     1       5.759  -3.398  -3.693  0.00  0.00    +0.003 A 
ATOM     24  C   UNL     1       6.759  -2.477  -3.942  0.00  0.00    +0.033 A 
ATOM     25  C   UNL     1       7.188  -1.634  -2.935  0.00  0.00    +0.127 A 
ATOM     26  C   UNL     1       6.614  -1.710  -1.679  0.00  0.00    +0.038 A 
BRANCH  25  27
ATOM     27  N   UNL     1       8.258  -0.647  -3.201  0.00  0.00    +0.056 N 
ATOM     28  O   UNL     1       8.758  -0.578  -4.300  0.00  0.00    -0.126 OA
ATOM     29  O   UNL     1       8.634   0.091  -2.319  0.00  0.00    -0.126 OA
ENDBRANCH  25  27
ENDBRANCH   1  21
TORSDOF 5
