REMARK  Name = ZINC39954891
REMARK  4 active torsions:
REMARK  status: ('A' for Active; 'I' for Inactive)
REMARK    1  A    between atoms: C_14  and  C_20
REMARK    2  A    between atoms: C_24  and  O_26
REMARK    3  A    between atoms: O_26  and  C_27
REMARK    4  A    between atoms: C_27  and  C_28
REMARK                            x       y       z     vdW  Elec       q    Type
REMARK                         _______ _______ _______ _____ _____    ______ ____
ROOT
ATOM      1  C   UNL     1      -0.017   1.378   0.010  0.00  0.00    +0.002 A 
ATOM      2  C   UNL     1       1.148   2.127   0.003  0.00  0.00    +0.002 A 
ATOM      3  C   UNL     1       2.401   1.538  -0.011  0.00  0.00    +0.028 A 
ATOM      4  C   UNL     1       2.450   0.148  -0.018  0.00  0.00    +0.072 A 
ATOM      5  C   UNL     1       1.258  -0.623  -0.013  0.00  0.00    +0.091 A 
ATOM      6  C   UNL     1       0.002  -0.004   0.002  0.00  0.00    +0.030 A 
ATOM      7  N   UNL     1       1.615  -1.921  -0.029  0.00  0.00    -0.210 NA
ATOM      8  C   UNL     1       2.919  -2.017  -0.045  0.00  0.00    +0.236 A 
ATOM      9  N   UNL     1       3.475  -0.743  -0.025  0.00  0.00    -0.288 N 
ATOM     10  C   UNL     1       4.922  -0.578  -0.004  0.00  0.00    +0.190 C 
ATOM     11  C   UNL     1       5.496  -1.749   0.802  0.00  0.00    +0.128 C 
ATOM     12  C   UNL     1       7.017  -1.657   0.758  0.00  0.00    +0.044 C 
ATOM     13  C   UNL     1       7.431  -0.409   1.548  0.00  0.00    +0.105 C 
ATOM     14  C   UNL     1       6.548   0.759   1.224  0.00  0.00    +0.215 C 
ATOM     15  O   UNL     1       6.914   1.859   1.581  0.00  0.00    -0.276 OA
ATOM     16  N   UNL     1       5.383   0.663   0.587  0.00  0.00    -0.294 N 
ATOM     17  C   UNL     1       4.955  -3.047   0.295  0.00  0.00    +0.257 C 
ATOM     18  O   UNL     1       5.753  -4.129   0.233  0.00  0.00    -0.270 OA
ATOM     19  N   UNL     1       3.703  -3.135  -0.091  0.00  0.00    -0.177 NA
ATOM     20  H   UNL     1       4.833   1.458   0.507  0.00  0.00    +0.151 HD
ENDROOT
BRANCH  12  21
ATOM     21  C   UNL     1       7.622  -2.885   1.386  0.00  0.00    -0.040 A 
ATOM     22  C   UNL     1       7.345  -3.195   2.705  0.00  0.00    +0.004 A 
ATOM     23  C   UNL     1       7.898  -4.322   3.284  0.00  0.00    +0.004 A 
ATOM     24  C   UNL     1       8.731  -5.141   2.546  0.00  0.00    +0.045 A 
ATOM     25  C   UNL     1       9.011  -4.833   1.223  0.00  0.00    +0.121 A 
ATOM     26  C   UNL     1       8.449  -3.705   0.642  0.00  0.00    +0.049 A 
BRANCH  25  27
ATOM     27  O   UNL     1       9.829  -5.637   0.495  0.00  0.00    -0.483 OA
BRANCH  27  28
ATOM     28  C   UNL     1      10.367  -6.784   1.156  0.00  0.00    +0.324 C 
BRANCH  28  29
ATOM     29  C   UNL     1      11.244  -7.550   0.199  0.00  0.00    +0.248 C 
ATOM     30  O   UNL     1      11.394  -7.152  -0.937  0.00  0.00    -0.272 OA
ATOM     31  N   UNL     1      11.862  -8.676   0.606  0.00  0.00    -0.327 N 
ATOM     32  H   UNL     1      11.742  -8.994   1.515  0.00  0.00    +0.145 HD
ATOM     33  H   UNL     1      12.427  -9.169  -0.010  0.00  0.00    +0.145 HD
ENDBRANCH  28  29
ENDBRANCH  27  28
ENDBRANCH  25  27
ENDBRANCH  12  21
TORSDOF 4
