REMARK  Name = ZINC13463762
REMARK  10 active torsions:
REMARK  status: ('A' for Active; 'I' for Inactive)
REMARK    1  A    between atoms: C_1  and  C_2
REMARK    2  A    between atoms: C_4  and  C_28
REMARK    3  A    between atoms: C_5  and  C_27
REMARK    4  A    between atoms: C_6  and  S_9
REMARK    5  A    between atoms: C_7  and  C_8
REMARK    6  A    between atoms: S_9  and  O_12
REMARK    7  A    between atoms: O_12  and  C_13
REMARK    8  A    between atoms: C_16  and  C_19
REMARK    9  A    between atoms: C_21  and  C_24
REMARK   10  A    between atoms: C_24  and  C_25
REMARK                            x       y       z     vdW  Elec       q    Type
REMARK                         _______ _______ _______ _____ _____    ______ ____
ROOT
ATOM      1  C   UNL     1      -1.319   3.548  -0.196  0.00  0.00    +0.157 A 
ATOM      2  C   UNL     1      -1.353   2.187   0.076  0.00  0.00    +0.049 A 
ATOM      3  C   UNL     1      -0.180   1.494   0.282  0.00  0.00    +0.014 A 
ATOM      4  C   UNL     1       1.044   2.160   0.205  0.00  0.00    +0.007 A 
ATOM      5  C   UNL     1       1.075   3.527  -0.074  0.00  0.00    +0.014 A 
ATOM      6  C   UNL     1      -0.103   4.214  -0.274  0.00  0.00    +0.049 A 
ENDROOT
BRANCH   4   7
ATOM      7  C   UNL     1       2.306   1.419   0.419  0.00  0.00    +0.109 A 
ATOM      8  N   UNL     1       3.556   1.859   0.390  0.00  0.00    -0.243 NA
ATOM      9  C   UNL     1       4.568   1.052   0.605  0.00  0.00    +0.060 A 
ATOM     10  C   UNL     1       4.342  -0.263   0.864  0.00  0.00    +0.071 A 
ATOM     11  S   UNL     1       2.556  -0.311   0.794  0.00  0.00    -0.075 S 
BRANCH   9  12
ATOM     12  C   UNL     1       5.978   1.582   0.564  0.00  0.00    +0.181 C 
BRANCH  12  13
ATOM     13  C   UNL     1       6.219   2.270  -0.755  0.00  0.00    +0.362 C 
ATOM     14  O   UNL     1       5.335   2.324  -1.577  0.00  0.00    -0.246 OA
ATOM     15  O   UNL     1       7.414   2.822  -1.015  0.00  0.00    -0.246 OA
ENDBRANCH  12  13
ENDBRANCH   9  12
ENDBRANCH   4   7
BRANCH   1  16
ATOM     16  O   UNL     1      -2.478   4.229  -0.392  0.00  0.00    -0.342 OA
BRANCH  16  17
ATOM     17  S   UNL     1      -2.941   4.260  -1.841  0.00  0.00    +0.151 S 
ATOM     18  O   UNL     1      -4.030   5.171  -1.901  0.00  0.00    -0.131 OA
ATOM     19  O   UNL     1      -1.774   4.415  -2.637  0.00  0.00    -0.131 OA
BRANCH  17  25
ATOM     20  C   UNL     1      -2.475  -0.533  -3.874  0.00  0.00    +0.044 C 
ATOM     21  C   UNL     1      -3.327   0.484  -3.160  0.00  0.00    -0.045 A 
ATOM     22  C   UNL     1      -4.623   0.168  -2.798  0.00  0.00    +0.007 A 
ATOM     23  C   UNL     1      -5.405   1.101  -2.143  0.00  0.00    -0.045 A 
ATOM     24  C   UNL     1      -4.891   2.351  -1.851  0.00  0.00    -0.019 A 
ATOM     25  C   UNL     1      -3.596   2.667  -2.214  0.00  0.00    +0.134 A 
ATOM     26  C   UNL     1      -2.815   1.736  -2.873  0.00  0.00    -0.019 A 
ATOM     27  C   UNL     1      -1.405   2.083  -3.274  0.00  0.00    +0.046 C 
ATOM     28  C   UNL     1      -5.744   3.368  -1.137  0.00  0.00    +0.046 C 
ATOM     29  C   UNL     1      -6.818   0.756  -1.748  0.00  0.00    +0.044 C 
ENDBRANCH  17  25
ENDBRANCH  16  17
ENDBRANCH   1  16
TORSDOF 6
