REMARK  Name = ZINC63495035
REMARK  5 active torsions:
REMARK  status: ('A' for Active; 'I' for Inactive)
REMARK    1  A    between atoms: C_1  and  N_2
REMARK    2  A    between atoms: C_4  and  C_16
REMARK    3  A    between atoms: C_5  and  C_7
REMARK    4  A    between atoms: C_10  and  N_13
REMARK    5  A    between atoms: N_26  and  C_27
REMARK                            x       y       z     vdW  Elec       q    Type
REMARK                         _______ _______ _______ _____ _____    ______ ____
ROOT
ATOM      1  C   UNL     1      -0.498   1.409   0.063  0.00  0.00    +0.172 C 
ATOM      2  N   UNL     1      -0.204  -0.026   0.025  0.00  0.00    -0.274 N 
ATOM      3  C   UNL     1       0.058  -0.752  -1.083  0.00  0.00    +0.115 A 
ATOM      4  C   UNL     1       0.278  -2.029  -0.703  0.00  0.00    +0.036 A 
ATOM      5  C   UNL     1       0.146  -2.091   0.698  0.00  0.00    +0.099 A 
ATOM      6  N   UNL     1      -0.138  -0.881   1.132  0.00  0.00    -0.171 NA
ENDROOT
BRANCH   4   7
ATOM      7  C   UNL     1       0.606  -3.183  -1.615  0.00  0.00    +0.196 C 
ATOM      8  N   UNL     1      -0.629  -3.899  -1.957  0.00  0.00    -0.321 N 
ATOM      9  C   UNL     1      -1.490  -3.329  -2.888  0.00  0.00    +0.041 A 
ATOM     10  C   UNL     1      -2.857  -3.544  -2.850  0.00  0.00    +0.024 A 
ATOM     11  C   UNL     1      -3.669  -2.950  -3.797  0.00  0.00    +0.002 A 
ATOM     12  C   UNL     1      -3.126  -2.142  -4.784  0.00  0.00    +0.001 A 
ATOM     13  C   UNL     1      -1.766  -1.919  -4.837  0.00  0.00    +0.015 A 
ATOM     14  C   UNL     1      -0.936  -2.512  -3.889  0.00  0.00    +0.058 A 
ATOM     15  C   UNL     1       0.525  -2.314  -3.905  0.00  0.00    +0.250 C 
ATOM     16  O   UNL     1       1.070  -1.830  -4.878  0.00  0.00    -0.270 OA
ATOM     17  N   UNL     1       1.250  -2.675  -2.826  0.00  0.00    -0.278 N 
ATOM     18  C   UNL     1       2.710  -2.556  -2.868  0.00  0.00    +0.134 C 
ATOM     19  H   UNL     1      -0.840  -4.750  -1.543  0.00  0.00    +0.148 HD
ENDBRANCH   4   7
BRANCH   5  20
ATOM     20  C   UNL     1       0.305  -3.305   1.538  0.00  0.00    +0.003 A 
ATOM     21  C   UNL     1      -0.254  -4.514   1.131  0.00  0.00    +0.012 A 
ATOM     22  C   UNL     1      -0.103  -5.640   1.915  0.00  0.00    +0.033 A 
ATOM     23  C   UNL     1       0.602  -5.569   3.103  0.00  0.00    +0.126 A 
ATOM     24  C   UNL     1       1.159  -4.370   3.512  0.00  0.00    +0.033 A 
ATOM     25  C   UNL     1       1.019  -3.240   2.732  0.00  0.00    +0.012 A 
BRANCH  23  26
ATOM     26  N   UNL     1       0.760  -6.779   3.941  0.00  0.00    +0.056 N 
ATOM     27  O   UNL     1       0.273  -7.827   3.586  0.00  0.00    -0.126 OA
ATOM     28  O   UNL     1       1.375  -6.719   4.980  0.00  0.00    -0.126 OA
ENDBRANCH  23  26
ENDBRANCH   5  20
TORSDOF 3
