REMARK  Name = ZINC22240323
REMARK  6 active torsions:
REMARK  status: ('A' for Active; 'I' for Inactive)
REMARK    1  A    between atoms: C_1  and  N_2
REMARK    2  A    between atoms: C_3  and  C_28
REMARK    3  A    between atoms: C_6  and  S_7
REMARK    4  A    between atoms: S_7  and  C_8
REMARK    5  A    between atoms: C_8  and  C_9
REMARK    6  A    between atoms: C_22  and  C_24
REMARK                            x       y       z     vdW  Elec       q    Type
REMARK                         _______ _______ _______ _____ _____    ______ ____
ROOT
ATOM      1  C   UNL     1       5.677  -0.859  -1.109  0.00  0.00    +0.231 C 
ATOM      2  O   UNL     1       6.345   0.152  -1.167  0.00  0.00    -0.274 OA
ATOM      3  N   UNL     1       6.252  -2.059  -1.323  0.00  0.00    -0.257 N 
ATOM      4  C   UNL     1       5.495  -3.236  -1.253  0.00  0.00    +0.058 A 
ATOM      5  C   UNL     1       5.060  -3.724  -0.032  0.00  0.00    +0.025 A 
ATOM      6  C   UNL     1       4.341  -4.904   0.022  0.00  0.00    +0.002 A 
ATOM      7  C   UNL     1       4.056  -5.600  -1.139  0.00  0.00    +0.002 A 
ATOM      8  C   UNL     1       4.478  -5.109  -2.377  0.00  0.00    +0.025 A 
ATOM      9  C   UNL     1       5.188  -3.922  -2.434  0.00  0.00    +0.055 A 
ATOM     10  N   UNL     1       5.603  -3.389  -3.660  0.00  0.00    -0.284 N 
ATOM     11  C   UNL     1       6.879  -2.980  -3.835  0.00  0.00    +0.219 C 
ATOM     12  O   UNL     1       7.204  -2.450  -4.877  0.00  0.00    -0.275 OA
ATOM     13  C   UNL     1       7.901  -3.177  -2.747  0.00  0.00    +0.128 C 
ATOM     14  C   UNL     1       7.680  -2.160  -1.626  0.00  0.00    +0.194 C 
ATOM     15  H   UNL     1       4.888  -3.300  -4.491  0.00  0.00    +0.155 HD
ENDROOT
BRANCH  14  16
ATOM     16  C   UNL     1       8.435  -2.610  -0.374  0.00  0.00    +0.409 C 
ATOM     17  F   UNL     1       7.956  -3.859   0.036  0.00  0.00    -0.169 F 
ATOM     18  F   UNL     1       9.801  -2.706  -0.663  0.00  0.00    -0.169 F 
ATOM     19  F   UNL     1       8.240  -1.676   0.649  0.00  0.00    -0.169 F 
ENDBRANCH  14  16
BRANCH   1  20
ATOM     20  C   UNL     1       4.205  -0.773  -0.797  0.00  0.00    +0.173 C 
BRANCH  20  21
ATOM     21  S   UNL     1       3.738   0.960  -0.563  0.00  0.00    -0.077 S 
BRANCH  21  27
ATOM     22  C   UNL     1       1.409   3.211   0.099  0.00  0.00    +0.153 C 
ATOM     23  N   UNL     1       1.131   1.773   0.042  0.00  0.00    -0.305 N 
ATOM     24  C   UNL     1      -0.080   1.152   0.243  0.00  0.00    +0.165 A 
ATOM     25  N   UNL     1       0.119  -0.137   0.099  0.00  0.00    -0.128 NA
ATOM     26  N   UNL     1       1.355  -0.362  -0.175  0.00  0.00    -0.122 NA
ATOM     27  C   UNL     1       2.020   0.771  -0.223  0.00  0.00    +0.192 A 
BRANCH  24  28
ATOM     28  C   UNL     1      -1.365   1.813   0.557  0.00  0.00    +0.019 A 
ATOM     29  C   UNL     1      -1.378   3.106   1.081  0.00  0.00    +0.013 A 
ATOM     30  C   UNL     1      -2.580   3.720   1.366  0.00  0.00    +0.021 A 
ATOM     31  C   UNL     1      -3.772   3.051   1.144  0.00  0.00    +0.041 A 
ATOM     32  C   UNL     1      -3.765   1.765   0.630  0.00  0.00    +0.021 A 
ATOM     33  C   UNL     1      -2.569   1.143   0.335  0.00  0.00    +0.013 A 
ATOM     34 CL   UNL     1      -5.281   3.827   1.511  0.00  0.00    -0.084 Cl
ENDBRANCH  24  28
ENDBRANCH  21  27
ENDBRANCH  20  21
ENDBRANCH   1  20
TORSDOF 5
