REMARK  Name = ZINC34863177
REMARK  7 active torsions:
REMARK  status: ('A' for Active; 'I' for Inactive)
REMARK    1  A    between atoms: C_1  and  C_2
REMARK    2  A    between atoms: N_4  and  C_5
REMARK    3  A    between atoms: C_14  and  C_17
REMARK    4  A    between atoms: N_19  and  C_20
REMARK    5  A    between atoms: C_20  and  C_21
REMARK    6  A    between atoms: C_21  and  C_23
REMARK    7  A    between atoms: C_21  and  N_28
REMARK                            x       y       z     vdW  Elec       q    Type
REMARK                         _______ _______ _______ _____ _____    ______ ____
ROOT
ATOM      1  C   UNL     1       1.041  -4.674  -4.261  0.00  0.00    +0.219 C 
ATOM      2  O   UNL     1       1.352  -3.998  -5.218  0.00  0.00    -0.275 OA
ATOM      3  N   UNL     1       0.626  -5.944  -4.439  0.00  0.00    -0.316 N 
ATOM      4  H   UNL     1       0.378  -6.485  -3.673  0.00  0.00    +0.149 HD
ENDROOT
BRANCH   1  12
ATOM      5  C   UNL     1       1.692  -2.061  -1.539  0.00  0.00    +0.036 C 
ATOM      6  C   UNL     1       2.662  -2.888  -0.694  0.00  0.00    +0.029 C 
ATOM      7  C   UNL     1       2.167  -4.333  -0.617  0.00  0.00    -0.008 C 
ATOM      8  C   UNL     1       0.778  -4.363   0.026  0.00  0.00    +0.007 C 
ATOM      9  C   UNL     1      -0.192  -3.535  -0.819  0.00  0.00    -0.008 C 
ATOM     10  C   UNL     1       0.303  -2.090  -0.897  0.00  0.00    +0.029 C 
ATOM     11  C   UNL     1      -0.271  -4.124  -2.229  0.00  0.00    +0.020 C 
ATOM     12  C   UNL     1       1.118  -4.095  -2.872  0.00  0.00    +0.049 C 
ATOM     13  C   UNL     1       2.088  -4.922  -2.027  0.00  0.00    +0.020 C 
ATOM     14  C   UNL     1       1.613  -2.649  -2.949  0.00  0.00    +0.042 C 
BRANCH   5  18
ATOM     15  C   UNL     1       2.802   1.470  -0.562  0.00  0.00    +0.109 C 
ATOM     16  C   UNL     1       2.314   0.047  -0.486  0.00  0.00    +0.210 C 
ATOM     17  O   UNL     1       2.054  -0.448   0.590  0.00  0.00    -0.276 OA
ATOM     18  N   UNL     1       2.166  -0.676  -1.614  0.00  0.00    -0.310 N 
ATOM     19  H   UNL     1       2.374  -0.281  -2.474  0.00  0.00    +0.149 HD
ENDBRANCH   5  18
ENDBRANCH   1  12
BRANCH   3  20
ATOM     20  C   UNL     1       0.551  -6.508  -5.789  0.00  0.00    +0.096 C 
BRANCH  20  21
ATOM     21  C   UNL     1       0.182  -7.990  -5.703  0.00  0.00    +0.016 C 
BRANCH  21  22
ATOM     22  N   UNL     1       1.164  -8.692  -4.864  0.00  0.00    +0.387 N 
ATOM     23  C   UNL     1       2.513  -8.459  -5.395  0.00  0.00    -0.078 C 
ATOM     24  C   UNL     1       3.546  -9.120  -4.479  0.00  0.00    -0.019 C 
ATOM     25  C   UNL     1       3.274 -10.626  -4.415  0.00  0.00    -0.004 C 
ATOM     26  C   UNL     1       1.839 -10.854  -3.931  0.00  0.00    -0.019 C 
ATOM     27  C   UNL     1       0.869 -10.130  -4.867  0.00  0.00    -0.078 C 
ATOM     28  H   UNL     1       1.111  -8.340  -3.920  0.00  0.00    -0.081 HD
ENDBRANCH  21  22
BRANCH  21  29
ATOM     29  C   UNL     1       0.184  -8.589  -7.086  0.00  0.00    +0.093 A 
ATOM     30  C   UNL     1      -0.904  -8.966  -7.781  0.00  0.00    +0.043 A 
ATOM     31  C   UNL     1      -0.445  -9.470  -9.019  0.00  0.00    +0.041 A 
ATOM     32  C   UNL     1       0.896  -9.373  -9.006  0.00  0.00    +0.195 A 
ATOM     33  O   UNL     1       1.271  -8.833  -7.835  0.00  0.00    -0.469 OA
ENDBRANCH  21  29
ENDBRANCH  20  21
ENDBRANCH   3  20
TORSDOF 6
