REMARK  Name = ZINC12886157
REMARK  6 active torsions:
REMARK  status: ('A' for Active; 'I' for Inactive)
REMARK    1  A    between atoms: C_1  and  C_2
REMARK    2  A    between atoms: C_2  and  C_3
REMARK    3  A    between atoms: C_3  and  N_4
REMARK    4  A    between atoms: C_5  and  C_7
REMARK    5  A    between atoms: C_12  and  N_13
REMARK    6  A    between atoms: C_29  and  C_34
REMARK                            x       y       z     vdW  Elec       q    Type
REMARK                         _______ _______ _______ _____ _____    ______ ____
ROOT
ATOM      1  N   UNL     1      -1.137   1.944   0.018  0.00  0.00    -0.192 N 
ATOM      2  C   UNL     1      -0.869   3.265   0.062  0.00  0.00    +0.248 C 
ATOM      3  O   UNL     1      -1.671   4.174   0.069  0.00  0.00    -0.273 OA
ATOM      4  C   UNL     1       0.642   3.380   0.096  0.00  0.00    +0.170 C 
ATOM      5  C   UNL     1       1.130   4.112  -1.159  0.00  0.00    +0.069 C 
ATOM      6  C   UNL     1       2.549   3.697  -1.461  0.00  0.00    -0.015 A 
ATOM      7  C   UNL     1       3.514   4.393  -2.291  0.00  0.00    +0.003 A 
ATOM      8  C   UNL     1       3.450   5.587  -3.016  0.00  0.00    +0.010 A 
ATOM      9  C   UNL     1       4.578   5.954  -3.707  0.00  0.00    +0.001 A 
ATOM     10  C   UNL     1       5.731   5.185  -3.695  0.00  0.00    +0.002 A 
ATOM     11  C   UNL     1       5.822   4.000  -2.986  0.00  0.00    +0.026 A 
ATOM     12  C   UNL     1       4.691   3.602  -2.275  0.00  0.00    +0.047 A 
ATOM     13  N   UNL     1       4.439   2.515  -1.489  0.00  0.00    -0.356 N 
ATOM     14  H   UNL     1       5.070   1.803  -1.301  0.00  0.00    +0.166 HD
ATOM     15  C   UNL     1       3.159   2.583  -1.005  0.00  0.00    +0.046 A 
ATOM     16  C   UNL     1       2.493   1.574  -0.090  0.00  0.00    +0.155 C 
ATOM     17  N   UNL     1       1.083   1.971   0.002  0.00  0.00    -0.260 N 
ATOM     18  C   UNL     1      -0.014   1.211   0.009  0.00  0.00    +0.317 C 
ATOM     19  O   UNL     1       0.002  -0.004   0.002  0.00  0.00    -0.252 OA
ENDROOT
BRANCH  16  20
ATOM     20  C   UNL     1       2.604   0.190  -0.676  0.00  0.00    -0.021 A 
ATOM     21  C   UNL     1       1.776  -0.187  -1.717  0.00  0.00    +0.008 A 
ATOM     22  C   UNL     1       1.881  -1.454  -2.260  0.00  0.00    +0.038 A 
ATOM     23  C   UNL     1       2.808  -2.349  -1.753  0.00  0.00    +0.123 A 
ATOM     24  C   UNL     1       3.632  -1.972  -0.706  0.00  0.00    +0.038 A 
ATOM     25  C   UNL     1       3.530  -0.702  -0.170  0.00  0.00    +0.008 A 
ATOM     26  F   UNL     1       2.907  -3.590  -2.278  0.00  0.00    -0.205 F 
ENDBRANCH  16  20
BRANCH   1  32
ATOM     27  C   UNL     1      -3.064   1.175  -1.239  0.00  0.00    +0.059 A 
ATOM     28  C   UNL     1      -4.350   0.630  -1.256  0.00  0.00    +0.015 A 
ATOM     29  C   UNL     1      -4.987   0.336  -0.070  0.00  0.00    +0.001 A 
ATOM     30  C   UNL     1      -4.355   0.571   1.141  0.00  0.00    +0.002 A 
ATOM     31  C   UNL     1      -3.082   1.103   1.172  0.00  0.00    +0.025 A 
ATOM     32  C   UNL     1      -2.425   1.406  -0.012  0.00  0.00    +0.058 A 
BRANCH  27  34
ATOM     33  N   UNL     1      -2.995   1.274  -3.682  0.00  0.00    -0.311 N 
ATOM     34  C   UNL     1      -2.378   1.498  -2.505  0.00  0.00    +0.246 C 
ATOM     35  O   UNL     1      -1.256   1.967  -2.486  0.00  0.00    -0.270 OA
ATOM     36  H   UNL     1      -3.890   0.900  -3.697  0.00  0.00    +0.149 HD
BRANCH  33  37
ATOM     37  C   UNL     1      -2.315   1.596  -4.939  0.00  0.00    +0.104 C 
BRANCH  37  39
ATOM     38  C   UNL     1      -2.517   1.584  -7.429  0.00  0.00    +0.005 C 
ATOM     39  C   UNL     1      -3.228   1.248  -6.116  0.00  0.00    +0.015 C 
ENDBRANCH  37  39
ENDBRANCH  33  37
ENDBRANCH  27  34
ENDBRANCH   1  32
TORSDOF 5
