REMARK  Name = ZINC43224030
REMARK  20 active torsions:
REMARK  status: ('A' for Active; 'I' for Inactive)
REMARK    1  A    between atoms: C_1  and  C_2
REMARK    2  A    between atoms: C_3  and  C_35
REMARK    3  A    between atoms: C_5  and  C_20
REMARK    4  A    between atoms: N_6  and  C_7
REMARK    5  A    between atoms: C_7  and  C_8
REMARK    6  A    between atoms: C_10  and  O_18
REMARK    7  A    between atoms: C_11  and  O_16
REMARK    8  A    between atoms: C_12  and  O_14
REMARK    9  A    between atoms: O_14  and  C_15
REMARK   10  A    between atoms: O_16  and  C_17
REMARK   11  A    between atoms: O_18  and  C_19
REMARK   12  A    between atoms: C_22  and  C_31
REMARK   13  A    between atoms: C_23  and  O_30
REMARK   14  A    between atoms: C_24  and  C_26
REMARK   15  A    between atoms: C_26  and  C_27
REMARK   16  A    between atoms: C_26  and  C_28
REMARK   17  A    between atoms: C_26  and  C_29
REMARK   18  A    between atoms: C_31  and  C_32
REMARK   19  A    between atoms: C_31  and  C_33
REMARK   20  A    between atoms: C_31  and  C_34
REMARK                            x       y       z     vdW  Elec       q    Type
REMARK                         _______ _______ _______ _____ _____    ______ ____
ROOT
ATOM      1  C   UNL     1      -0.453   1.392   0.227  0.00  0.00    +0.064 C 
ATOM      2  C   UNL     1      -0.537  -0.113   0.206  0.00  0.00    +0.029 A 
ATOM      3  C   UNL     1      -0.814  -0.890  -0.897  0.00  0.00    +0.057 A 
ATOM      4  C   UNL     1      -0.794  -2.242  -0.466  0.00  0.00    +0.041 A 
ATOM      5  C   UNL     1      -0.510  -2.233   0.862  0.00  0.00    +0.050 A 
ATOM      6  N   UNL     1      -0.350  -0.929   1.263  0.00  0.00    -0.339 N 
ENDROOT
BRANCH   5   7
ATOM      7  C   UNL     1      -0.388  -3.425   1.729  0.00  0.00    -0.001 A 
ATOM      8  C   UNL     1      -0.833  -3.377   3.050  0.00  0.00    +0.017 A 
ATOM      9  C   UNL     1      -0.717  -4.491   3.855  0.00  0.00    +0.000 A 
ATOM     10  C   UNL     1      -0.159  -5.658   3.353  0.00  0.00    +0.124 A 
ATOM     11  C   UNL     1       0.285  -5.710   2.038  0.00  0.00    +0.000 A 
ATOM     12  C   UNL     1       0.168  -4.602   1.225  0.00  0.00    +0.017 A 
BRANCH  11  13
ATOM     13  C   UNL     1       0.891  -6.979   1.497  0.00  0.00    -0.009 C 
ATOM     14  C   UNL     1       1.295  -6.769   0.037  0.00  0.00    +0.015 C 
ATOM     15  C   UNL     1       2.128  -7.345   2.321  0.00  0.00    +0.015 C 
ATOM     16  C   UNL     1      -0.134  -8.111   1.586  0.00  0.00    +0.015 C 
ENDBRANCH  11  13
BRANCH   9  17
ATOM     17  C   UNL     1      -1.197  -4.441   5.283  0.00  0.00    -0.009 C 
ATOM     18  C   UNL     1      -1.765  -3.051   5.582  0.00  0.00    +0.015 C 
ATOM     19  C   UNL     1      -2.288  -5.493   5.492  0.00  0.00    +0.015 C 
ATOM     20  C   UNL     1      -0.026  -4.726   6.225  0.00  0.00    +0.015 C 
ENDBRANCH   9  17
BRANCH  10  21
ATOM     21  O   UNL     1      -0.047  -6.754   4.149  0.00  0.00    -0.506 OA
ATOM     22  H   UNL     1      -0.814  -7.341   4.120  0.00  0.00    +0.292 HD
ENDBRANCH  10  21
ENDBRANCH   5   7
BRANCH   3  23
ATOM     23  C   UNL     1      -1.081  -0.410  -2.264  0.00  0.00    +0.243 C 
ATOM     24  O   UNL     1      -1.070   0.782  -2.502  0.00  0.00    -0.270 OA
ATOM     25  N   UNL     1      -1.339  -1.292  -3.250  0.00  0.00    -0.325 N 
ATOM     26  H   UNL     1      -1.348  -2.243  -3.059  0.00  0.00    +0.145 HD
ATOM     27  H   UNL     1      -1.514  -0.976  -4.150  0.00  0.00    +0.145 HD
ENDBRANCH   3  23
BRANCH   6  28
ATOM     28  C   UNL     1      -0.029  -0.494   2.624  0.00  0.00    +0.157 C 
BRANCH  28  29
ATOM     29  C   UNL     1       1.459  -0.291   2.750  0.00  0.00    -0.021 A 
ATOM     30  C   UNL     1       2.280  -1.367   3.029  0.00  0.00    +0.055 A 
ATOM     31  C   UNL     1       3.650  -1.185   3.145  0.00  0.00    +0.165 A 
ATOM     32  C   UNL     1       4.196   0.083   2.981  0.00  0.00    +0.204 A 
ATOM     33  C   UNL     1       3.367   1.162   2.700  0.00  0.00    +0.165 A 
ATOM     34  C   UNL     1       1.999   0.970   2.580  0.00  0.00    +0.055 A 
BRANCH  33  35
ATOM     35  O   UNL     1       3.897   2.404   2.538  0.00  0.00    -0.491 OA
ATOM     36  C   UNL     1       3.004   3.442   2.130  0.00  0.00    +0.277 C 
ENDBRANCH  33  35
BRANCH  32  37
ATOM     37  O   UNL     1       5.540   0.266   3.095  0.00  0.00    -0.488 OA
ATOM     38  C   UNL     1       6.316   0.133   1.902  0.00  0.00    +0.277 C 
ENDBRANCH  32  37
BRANCH  31  39
ATOM     39  O   UNL     1       4.457  -2.244   3.421  0.00  0.00    -0.491 OA
ATOM     40  C   UNL     1       3.826  -3.516   3.578  0.00  0.00    +0.277 C 
ENDBRANCH  31  39
ENDBRANCH  28  29
ENDBRANCH   6  28
TORSDOF 10
