REMARK  Name = ZINC36788884
REMARK  8 active torsions:
REMARK  status: ('A' for Active; 'I' for Inactive)
REMARK    1  A    between atoms: C_1  and  C_2
REMARK    2  A    between atoms: C_2  and  C_3
REMARK    3  A    between atoms: C_3  and  C_4
REMARK    4  A    between atoms: C_3  and  N_6
REMARK    5  A    between atoms: C_4  and  C_5
REMARK    6  A    between atoms: N_6  and  C_7
REMARK    7  A    between atoms: N_6  and  C_8
REMARK    8  A    between atoms: C_13  and  N_14
REMARK                            x       y       z     vdW  Elec       q    Type
REMARK                         _______ _______ _______ _____ _____    ______ ____
ROOT
ATOM      1  C   UNL     1      -3.247   0.585   1.293  0.00  0.00    +0.053 A 
ATOM      2  C   UNL     1      -3.321   1.823   0.679  0.00  0.00    +0.053 A 
ATOM      3  C   UNL     1      -4.494   2.571   0.771  0.00  0.00    +0.080 A 
ATOM      4  C   UNL     1      -5.595   2.054   1.492  0.00  0.00    +0.067 A 
ATOM      5  C   UNL     1      -5.508   0.804   2.107  0.00  0.00    +0.040 A 
ATOM      6  C   UNL     1      -4.342   0.073   2.002  0.00  0.00    +0.047 A 
ATOM      7  C   UNL     1      -6.813   2.870   1.568  0.00  0.00    +0.259 A 
ATOM      8  O   UNL     1      -7.796   2.483   2.174  0.00  0.00    -0.267 OA
ATOM      9  N   UNL     1      -6.802   4.069   0.940  0.00  0.00    -0.313 N 
ATOM     10  H   UNL     1      -7.589   4.634   0.970  0.00  0.00    +0.170 HD
ATOM     11  C   UNL     1      -5.697   4.488   0.269  0.00  0.00    +0.199 A 
ATOM     12  N   UNL     1      -4.606   3.790   0.184  0.00  0.00    -0.237 NA
ENDROOT
BRANCH   6  13
ATOM     13  N   UNL     1      -4.251  -1.183   2.612  0.00  0.00    -0.357 N 
ATOM     14  H   UNL     1      -3.393  -1.630   2.676  0.00  0.00    +0.142 HD
ATOM     15  H   UNL     1      -5.046  -1.607   2.971  0.00  0.00    +0.142 HD
ENDBRANCH   6  13
BRANCH   1  16
ATOM     16  N   UNL     1      -2.074  -0.162   1.200  0.00  0.00    -0.328 N 
ATOM     17  C   UNL     1      -1.251  -0.385   2.391  0.00  0.00    +0.129 C 
BRANCH  16  18
ATOM     18  C   UNL     1      -1.664  -0.724  -0.089  0.00  0.00    +0.073 C 
BRANCH  18  20
ATOM     19  C   UNL     1      -0.224   1.247  -0.623  0.00  0.00    +0.006 C 
ATOM     20  C   UNL     1      -0.240  -0.269  -0.414  0.00  0.00    +0.019 C 
ENDBRANCH  18  20
BRANCH  18  21
ATOM     21  C   UNL     1      -1.706  -2.252  -0.016  0.00  0.00    +0.019 C 
ATOM     22  C   UNL     1      -3.151  -2.713   0.185  0.00  0.00    +0.006 C 
ENDBRANCH  18  21
ENDBRANCH  16  18
ENDBRANCH   1  16
TORSDOF 5
