REMARK  Name = ZINC39955292
REMARK  6 active torsions:
REMARK  status: ('A' for Active; 'I' for Inactive)
REMARK    1  A    between atoms: C_1  and  C_2
REMARK    2  A    between atoms: C_6  and  N_8
REMARK    3  A    between atoms: C_9  and  N_25
REMARK    4  A    between atoms: C_10  and  C_23
REMARK    5  A    between atoms: C_11  and  C_13
REMARK    6  A    between atoms: C_16  and  C_19
REMARK                            x       y       z     vdW  Elec       q    Type
REMARK                         _______ _______ _______ _____ _____    ______ ____
ROOT
ATOM      1  N   UNL     1       0.050  -2.638   2.420  0.00  0.00    -0.199 N 
ATOM      2  C   UNL     1       0.512  -2.110   3.582  0.00  0.00    +0.140 A 
ATOM      3  C   UNL     1       0.352  -3.074   4.572  0.00  0.00    +0.119 A 
ATOM      4  C   UNL     1      -0.249  -4.241   3.916  0.00  0.00    +0.112 A 
ATOM      5  N   UNL     1      -0.414  -3.936   2.650  0.00  0.00    -0.162 NA
ENDROOT
BRANCH   1  11
ATOM      6  C   UNL     1      -0.018   1.503   0.010  0.00  0.00    +0.065 C 
ATOM      7  C   UNL     1       0.002  -0.004   0.002  0.00  0.00    +0.041 A 
ATOM      8  C   UNL     1       0.006  -0.679  -1.203  0.00  0.00    +0.023 A 
ATOM      9  C   UNL     1       0.025  -2.067  -1.204  0.00  0.00    +0.005 A 
ATOM     10  C   UNL     1       0.040  -2.728   0.012  0.00  0.00    +0.048 A 
ATOM     11  C   UNL     1       0.035  -1.984   1.186  0.00  0.00    +0.156 A 
ATOM     12  N   UNL     1       0.022  -0.661   1.145  0.00  0.00    -0.233 NA
ENDBRANCH   1  11
BRANCH   4  13
ATOM     13  C   UNL     1      -0.608  -5.524   4.565  0.00  0.00    +0.003 A 
ATOM     14  C   UNL     1       0.175  -6.028   5.602  0.00  0.00    +0.010 A 
ATOM     15  C   UNL     1      -0.164  -7.223   6.203  0.00  0.00    +0.013 A 
ATOM     16  C   UNL     1      -1.280  -7.921   5.777  0.00  0.00    +0.055 A 
ATOM     17  C   UNL     1      -2.062  -7.427   4.748  0.00  0.00    +0.013 A 
ATOM     18  C   UNL     1      -1.735  -6.230   4.144  0.00  0.00    +0.010 A 
BRANCH  16  19
ATOM     19  C   UNL     1      -1.646  -9.226   6.437  0.00  0.00    +0.417 C 
ATOM     20  F   UNL     1      -2.500  -8.979   7.517  0.00  0.00    -0.166 F 
ATOM     21  F   UNL     1      -2.292 -10.052   5.511  0.00  0.00    -0.166 F 
ATOM     22  F   UNL     1      -0.485  -9.858   6.896  0.00  0.00    -0.166 F 
ENDBRANCH  16  19
ENDBRANCH   4  13
BRANCH   2  23
ATOM     23  N   UNL     1       1.044  -0.846   3.750  0.00  0.00    -0.342 N 
ATOM     24  H   UNL     1       1.113  -0.244   2.992  0.00  0.00    +0.144 HD
ATOM     25  H   UNL     1       1.348  -0.561   4.626  0.00  0.00    +0.144 HD
ENDBRANCH   2  23
BRANCH   3  26
ATOM     26  C   UNL     1       0.704  -2.951   5.955  0.00  0.00    +0.105 C 
ATOM     27  N   UNL     1       0.983  -2.855   7.051  0.00  0.00    -0.191 NA
ENDBRANCH   3  26
TORSDOF 5
