REMARK  Name = ZINC04185487
REMARK  8 active torsions:
REMARK  status: ('A' for Active; 'I' for Inactive)
REMARK    1  A    between atoms: C_1  and  C_2
REMARK    2  A    between atoms: C_4  and  O_27
REMARK    3  A    between atoms: C_6  and  O_26
REMARK    4  A    between atoms: C_8  and  O_25
REMARK    5  A    between atoms: C_10  and  N_13
REMARK    6  A    between atoms: N_13  and  C_14
REMARK    7  A    between atoms: C_17  and  O_20
REMARK    8  A    between atoms: O_20  and  C_21
REMARK                            x       y       z     vdW  Elec       q    Type
REMARK                         _______ _______ _______ _____ _____    ______ ____
ROOT
ATOM      1  C   UNL     1      -2.560   0.550   3.337  0.00  0.00    +0.041 C 
ATOM      2  C   UNL     1      -2.028   0.406   1.909  0.00  0.00    +0.149 C 
ATOM      3  C   UNL     1      -3.047  -0.357   1.059  0.00  0.00    +0.174 C 
ATOM      4  C   UNL     1      -2.534  -0.445  -0.382  0.00  0.00    +0.178 C 
ATOM      5  C   UNL     1      -2.280   0.970  -0.909  0.00  0.00    +0.192 C 
ATOM      6  C   UNL     1      -1.290   1.681   0.017  0.00  0.00    +0.235 C 
ATOM      7  O   UNL     1      -1.814   1.702   1.347  0.00  0.00    -0.351 OA
ENDROOT
BRANCH   6   8
ATOM      8  N   UNL     1      -0.011   0.966   0.007  0.00  0.00    -0.317 N 
ATOM      9  H   UNL     1       0.002  -0.003  -0.037  0.00  0.00    +0.149 HD
BRANCH   8  10
ATOM     10  C   UNL     1       1.191   1.681   0.056  0.00  0.00    +0.029 A 
ATOM     11  C   UNL     1       1.172   3.068   0.113  0.00  0.00    +0.026 A 
ATOM     12  C   UNL     1       2.359   3.773   0.166  0.00  0.00    +0.048 A 
ATOM     13  C   UNL     1       3.569   3.095   0.151  0.00  0.00    +0.129 A 
ATOM     14  C   UNL     1       3.589   1.710   0.088  0.00  0.00    +0.048 A 
ATOM     15  C   UNL     1       2.403   1.004   0.040  0.00  0.00    +0.026 A 
BRANCH  13  16
ATOM     16  O   UNL     1       4.737   3.790   0.198  0.00  0.00    -0.420 OA
BRANCH  16  17
ATOM     17  C   UNL     1       4.643   5.215   0.262  0.00  0.00    +0.489 C 
ATOM     18  F   UNL     1       3.969   5.688  -0.869  0.00  0.00    -0.149 F 
ATOM     19  F   UNL     1       3.939   5.584   1.413  0.00  0.00    -0.149 F 
ATOM     20 CL   UNL     1       6.299   5.925   0.316  0.00  0.00    +0.000 Cl
ENDBRANCH  16  17
ENDBRANCH  13  16
ENDBRANCH   8  10
ENDBRANCH   6   8
BRANCH   5  21
ATOM     21  O   UNL     1      -1.732   0.897  -2.227  0.00  0.00    -0.385 OA
ATOM     22  H   UNL     1      -1.541   1.759  -2.622  0.00  0.00    +0.210 HD
ENDBRANCH   5  21
BRANCH   4  23
ATOM     23  O   UNL     1      -1.317  -1.193  -0.412  0.00  0.00    -0.386 OA
ATOM     24  H   UNL     1      -0.933  -1.284  -1.295  0.00  0.00    +0.210 HD
ENDBRANCH   4  23
BRANCH   3  25
ATOM     25  O   UNL     1      -3.220  -1.673   1.586  0.00  0.00    -0.387 OA
ATOM     26  H   UNL     1      -3.543  -1.693   2.498  0.00  0.00    +0.210 HD
ENDBRANCH   3  25
TORSDOF 7
