REMARK  Name = ZINC05862245
REMARK  5 active torsions:
REMARK  status: ('A' for Active; 'I' for Inactive)
REMARK    1  A    between atoms: C_1  and  C_2
REMARK    2  A    between atoms: C_2  and  C_31
REMARK    3  A    between atoms: C_4  and  N_9
REMARK    4  A    between atoms: C_12  and  O_14
REMARK    5  A    between atoms: C_15  and  C_22
REMARK                            x       y       z     vdW  Elec       q    Type
REMARK                         _______ _______ _______ _____ _____    ______ ____
ROOT
ATOM      1  N   UNL     1      -3.476  -0.649   1.361  0.00  0.00    -0.243 N 
ATOM      2  C   UNL     1      -4.646   0.070   1.422  0.00  0.00    +0.132 A 
ATOM      3  C   UNL     1      -5.659  -0.823   1.459  0.00  0.00    +0.072 A 
ATOM      4  C   UNL     1      -5.093  -2.119   1.417  0.00  0.00    +0.238 A 
ATOM      5  N   UNL     1      -3.795  -2.007   1.353  0.00  0.00    -0.131 NA
ATOM      6  C   UNL     1      -7.138  -0.605   1.531  0.00  0.00    +0.115 C 
ATOM      7  S   UNL     1      -7.596   0.840   2.492  0.00  0.00    -0.138 S 
ATOM      8  C   UNL     1      -7.015   2.262   1.558  0.00  0.00    +0.166 C 
ATOM      9  C   UNL     1      -5.541   2.369   1.527  0.00  0.00    +0.228 C 
ATOM     10  O   UNL     1      -5.110   3.500   1.602  0.00  0.00    -0.275 OA
ATOM     11  N   UNL     1      -4.634   1.444   1.431  0.00  0.00    -0.270 N 
ATOM     12  H   UNL     1      -3.739   1.808   1.346  0.00  0.00    +0.156 HD
ENDROOT
BRANCH   6  13
ATOM     13  C   UNL     1      -7.776  -1.820   2.153  0.00  0.00    -0.026 A 
ATOM     14  C   UNL     1      -7.425  -2.203   3.434  0.00  0.00    +0.009 A 
ATOM     15  C   UNL     1      -8.008  -3.317   4.010  0.00  0.00    +0.050 A 
ATOM     16  C   UNL     1      -8.947  -4.051   3.304  0.00  0.00    +0.166 A 
ATOM     17  C   UNL     1      -9.300  -3.665   2.013  0.00  0.00    +0.167 A 
ATOM     18  C   UNL     1      -8.716  -2.545   1.445  0.00  0.00    +0.054 A 
ATOM     19  O   UNL     1     -10.233  -4.540   1.536  0.00  0.00    -0.453 OA
ATOM     20  C   UNL     1     -10.145  -5.698   2.387  0.00  0.00    +0.466 C 
ATOM     21  O   UNL     1      -9.657  -5.168   3.635  0.00  0.00    -0.453 OA
ENDBRANCH   6  13
BRANCH   1  25
ATOM     22  C   UNL     1      -0.019   1.526   0.010  0.00  0.00    +0.041 C 
ATOM     23  C   UNL     1       0.002  -0.004   0.002  0.00  0.00    +0.066 C 
ATOM     24  C   UNL     1      -1.434  -0.534   0.014  0.00  0.00    +0.061 C 
ATOM     25  C   UNL     1      -2.124  -0.086   1.306  0.00  0.00    +0.114 C 
ATOM     26  C   UNL     1      -1.311  -0.582   2.506  0.00  0.00    +0.055 C 
ATOM     27  C   UNL     1       0.120  -0.050   2.397  0.00  0.00    +0.162 C 
ATOM     28  O   UNL     1       0.693  -0.478   1.160  0.00  0.00    -0.374 OA
ATOM     29  C   UNL     1       0.718  -0.498  -1.257  0.00  0.00    +0.041 C 
ENDBRANCH   1  25
BRANCH   4  30
ATOM     30  O   UNL     1      -5.788  -3.288   1.435  0.00  0.00    -0.491 OA
ATOM     31  H   UNL     1      -6.029  -3.616   0.557  0.00  0.00    +0.294 HD
ENDBRANCH   4  30
TORSDOF 3
