REMARK  Name = ZINC06462111
REMARK  14 active torsions:
REMARK  status: ('A' for Active; 'I' for Inactive)
REMARK    1  A    between atoms: C_1  and  C_2
REMARK    2  A    between atoms: C_2  and  C_3
REMARK    3  A    between atoms: C_3  and  C_4
REMARK    4  A    between atoms: C_3  and  C_5
REMARK    5  A    between atoms: C_3  and  N_6
REMARK    6  A    between atoms: C_7  and  C_9
REMARK    7  A    between atoms: C_9  and  C_11
REMARK    8  A    between atoms: C_9  and  N_17
REMARK    9  A    between atoms: C_14  and  C_16
REMARK   10  A    between atoms: N_17  and  C_18
REMARK   11  A    between atoms: C_18  and  C_19
REMARK   12  A    between atoms: C_26  and  C_28
REMARK   13  A    between atoms: C_29  and  N_36
REMARK   14  A    between atoms: C_30  and  C_33
REMARK                            x       y       z     vdW  Elec       q    Type
REMARK                         _______ _______ _______ _____ _____    ______ ____
ROOT
ATOM      1  N   UNL     1      -4.811   3.745   1.545  0.00  0.00    -0.275 N 
ATOM      2  C   UNL     1      -4.653   5.074   1.388  0.00  0.00    +0.258 C 
ATOM      3  O   UNL     1      -4.206   5.746   2.300  0.00  0.00    -0.269 OA
ENDROOT
BRANCH   2   4
ATOM      4  C   UNL     1      -5.019   5.710   0.121  0.00  0.00    +0.115 A 
ATOM      5  C   UNL     1      -5.098   7.067  -0.198  0.00  0.00    +0.076 A 
ATOM      6  C   UNL     1      -5.484   7.284  -1.520  0.00  0.00    +0.155 A 
ATOM      7  N   UNL     1      -5.725   6.251  -2.297  0.00  0.00    -0.203 NA
ATOM      8  S   UNL     1      -5.477   4.960  -1.428  0.00  0.00    +0.019 S 
BRANCH   6   9
ATOM      9  C   UNL     1      -5.622   8.656  -2.041  0.00  0.00    +0.262 C 
ATOM     10  O   UNL     1      -5.398   9.607  -1.316  0.00  0.00    -0.269 OA
ATOM     11  N   UNL     1      -5.997   8.857  -3.320  0.00  0.00    -0.324 N 
ATOM     12  H   UNL     1      -6.175   8.099  -3.898  0.00  0.00    +0.145 HD
ATOM     13  H   UNL     1      -6.087   9.760  -3.663  0.00  0.00    +0.145 HD
ENDBRANCH   6   9
BRANCH   5  14
ATOM     14  N   UNL     1      -4.820   8.088   0.702  0.00  0.00    -0.355 N 
ATOM     15  H   UNL     1      -4.555   7.875   1.610  0.00  0.00    +0.142 HD
ATOM     16  H   UNL     1      -4.892   9.014   0.422  0.00  0.00    +0.142 HD
ENDBRANCH   5  14
ENDBRANCH   2   4
BRANCH   1  17
ATOM     17  C   UNL     1      -4.321   3.087   2.759  0.00  0.00    +0.229 C 
BRANCH  17  18
ATOM     18  C   UNL     1      -3.415   1.944   2.381  0.00  0.00    +0.135 A 
ATOM     19  C   UNL     1      -2.272   1.607   3.005  0.00  0.00    +0.047 A 
ATOM     20  C   UNL     1      -1.749   0.484   2.323  0.00  0.00    +0.045 A 
ATOM     21  C   UNL     1      -2.604   0.202   1.323  0.00  0.00    +0.102 A 
ATOM     22  O   UNL     1      -3.608   1.093   1.360  0.00  0.00    -0.462 OA
ATOM     23  C   UNL     1      -2.457  -0.919   0.328  0.00  0.00    +0.086 C 
ENDBRANCH  17  18
BRANCH  17  25
ATOM     24  N   UNL     1      -5.277   1.759   4.614  0.00  0.00    -0.308 N 
ATOM     25  C   UNL     1      -5.490   2.561   3.552  0.00  0.00    +0.242 C 
ATOM     26  O   UNL     1      -6.622   2.858   3.233  0.00  0.00    -0.273 OA
ATOM     27  H   UNL     1      -4.372   1.521   4.869  0.00  0.00    +0.149 HD
BRANCH  24  28
ATOM     28  C   UNL     1      -6.413   1.248   5.385  0.00  0.00    +0.029 C 
ATOM     29  C   UNL     1      -7.209   2.421   5.960  0.00  0.00    +0.031 C 
ATOM     30  C   UNL     1      -7.317   0.417   4.471  0.00  0.00    +0.031 C 
BRANCH  28  32
ATOM     31  C   UNL     1      -7.087  -0.165   7.332  0.00  0.00    +0.006 C 
ATOM     32  C   UNL     1      -5.900   0.370   6.528  0.00  0.00    +0.022 C 
ENDBRANCH  28  32
ENDBRANCH  24  28
ENDBRANCH  17  25
ENDBRANCH   1  17
BRANCH   1  33
ATOM     33  C   UNL     1      -5.472   2.957   0.502  0.00  0.00    +0.144 C 
BRANCH  33  34
ATOM     34  C   UNL     1      -6.965   3.017   0.698  0.00  0.00    -0.030 A 
ATOM     35  C   UNL     1      -7.624   1.969   1.313  0.00  0.00    +0.008 A 
ATOM     36  C   UNL     1      -8.992   2.025   1.497  0.00  0.00    +0.038 A 
ATOM     37  C   UNL     1      -9.705   3.127   1.056  0.00  0.00    +0.123 A 
ATOM     38  C   UNL     1      -9.045   4.174   0.435  0.00  0.00    +0.038 A 
ATOM     39  C   UNL     1      -7.676   4.118   0.256  0.00  0.00    +0.008 A 
ATOM     40  F   UNL     1     -11.044   3.181   1.232  0.00  0.00    -0.205 F 
ENDBRANCH  33  34
ENDBRANCH   1  33
TORSDOF 10
