REMARK  Name = ZINC55004052
REMARK  4 active torsions:
REMARK  status: ('A' for Active; 'I' for Inactive)
REMARK    1  A    between atoms: C_1  and  C_2
REMARK    2  A    between atoms: C_3  and  C_18
REMARK    3  A    between atoms: C_11  and  C_13
REMARK    4  A    between atoms: C_18  and  O_19
REMARK                            x       y       z     vdW  Elec       q    Type
REMARK                         _______ _______ _______ _____ _____    ______ ____
ROOT
ATOM      1  C   UNL     1       0.376   1.060  -0.417  0.00  0.00    +0.066 C 
ATOM      2  C   UNL     1       0.347  -0.438  -0.253  0.00  0.00    +0.053 A 
ATOM      3  C   UNL     1       0.412  -1.268  -1.321  0.00  0.00    +0.039 A 
ATOM      4  S   UNL     1       0.338  -2.858  -0.512  0.00  0.00    -0.055 S 
ATOM      5  C   UNL     1       0.234  -2.308   1.075  0.00  0.00    +0.161 A 
ATOM      6  N   UNL     1       0.263  -0.999   0.941  0.00  0.00    -0.230 NA
ATOM      7  N   UNL     1       0.144  -3.053   2.240  0.00  0.00    -0.306 N 
ATOM      8  C   UNL     1       0.128  -4.524   2.321  0.00  0.00    +0.107 C 
ATOM      9  C   UNL     1      -0.584  -4.841   3.659  0.00  0.00    +0.021 C 
ATOM     10  C   UNL     1      -0.055  -3.702   4.571  0.00  0.00    +0.024 C 
ATOM     11  C   UNL     1       0.055  -2.505   3.602  0.00  0.00    +0.078 C 
ENDROOT
BRANCH  11  12
ATOM     12  C   UNL     1       1.312  -1.691   3.918  0.00  0.00    +0.009 C 
ATOM     13  C   UNL     1       2.563  -2.587   3.814  0.00  0.00    +0.005 C 
ATOM     14  C   UNL     1       3.482  -2.091   4.957  0.00  0.00    +0.000 C 
ATOM     15  C   UNL     1       2.477  -1.783   6.095  0.00  0.00    +0.000 C 
ATOM     16  C   UNL     1       1.257  -1.180   5.369  0.00  0.00    +0.005 C 
ENDBRANCH  11  12
BRANCH   3  17
ATOM     17  C   UNL     1       0.518  -0.940  -2.788  0.00  0.00    +0.200 C 
BRANCH  17  18
ATOM     18  O   UNL     1       1.895  -0.852  -3.158  0.00  0.00    -0.390 OA
ATOM     19  H   UNL     1       2.039  -0.643  -4.092  0.00  0.00    +0.210 HD
ENDBRANCH  17  18
ENDBRANCH   3  17
TORSDOF 3
