REMARK  Name = ZINC50361552
REMARK  6 active torsions:
REMARK  status: ('A' for Active; 'I' for Inactive)
REMARK    1  A    between atoms: C_1  and  C_2
REMARK    2  A    between atoms: N_5  and  C_11
REMARK    3  A    between atoms: C_7  and  C_10
REMARK    4  A    between atoms: C_11  and  C_13
REMARK    5  A    between atoms: C_11  and  C_15
REMARK    6  A    between atoms: C_13  and  N_14
REMARK                            x       y       z     vdW  Elec       q    Type
REMARK                         _______ _______ _______ _____ _____    ______ ____
ROOT
ATOM      1  C   UNL     1       2.832  -0.456  -2.443  0.00  0.00    +0.106 C 
ENDROOT
BRANCH   1   5
ATOM      2  C   UNL     1      -0.657   1.247  -0.711  0.00  0.00    +0.039 C 
ATOM      3  C   UNL     1      -0.443  -0.263  -0.591  0.00  0.00    +0.130 C 
ATOM      4  C   UNL     1       0.557  -0.724  -1.655  0.00  0.00    +0.116 C 
ATOM      5  N   UNL     1       1.857  -0.084  -1.409  0.00  0.00    -0.289 NA
ATOM      6  C   UNL     1       2.357  -0.421  -0.068  0.00  0.00    +0.116 C 
ATOM      7  C   UNL     1       1.340   0.037   0.981  0.00  0.00    +0.130 C 
ATOM      8  O   UNL     1       0.074  -0.571   0.707  0.00  0.00    -0.371 OA
ATOM      9  C   UNL     1       1.818  -0.382   2.373  0.00  0.00    +0.039 C 
ENDBRANCH   1   5
BRANCH   1  10
ATOM     10  C   UNL     1       3.024  -1.950  -2.438  0.00  0.00    +0.123 A 
ATOM     11  C   UNL     1       3.001  -2.750  -3.520  0.00  0.00    +0.062 A 
ATOM     12  C   UNL     1       3.224  -4.069  -3.060  0.00  0.00    +0.070 A 
ATOM     13  C   UNL     1       3.370  -3.996  -1.723  0.00  0.00    +0.184 A 
ATOM     14  O   UNL     1       3.252  -2.709  -1.353  0.00  0.00    -0.450 OA
ATOM     15 BR   UNL     1       3.691  -5.455  -0.564  0.00  0.00    -0.007 Br
ATOM     16 BR   UNL     1       3.302  -5.633  -4.119  0.00  0.00    -0.046 Br
ENDBRANCH   1  10
BRANCH   1  17
ATOM     17  C   UNL     1       4.168   0.231  -2.155  0.00  0.00    -0.059 C 
BRANCH  17  18
ATOM     18  N   UNL     1       3.959   1.681  -2.041  0.00  0.00    +0.379 N 
ATOM     19  H   UNL     1       3.579   2.034  -2.906  0.00  0.00    -0.090 HD
ATOM     20  H   UNL     1       3.315   1.869  -1.288  0.00  0.00    -0.090 HD
ATOM     21  H   UNL     1       4.840   2.134  -1.851  0.00  0.00    -0.090 HD
ENDBRANCH  17  18
ENDBRANCH   1  17
TORSDOF 4
