REMARK  Name = ZINC39711622
REMARK  9 active torsions:
REMARK  status: ('A' for Active; 'I' for Inactive)
REMARK    1  A    between atoms: C_1  and  O_2
REMARK    2  A    between atoms: O_2  and  C_3
REMARK    3  A    between atoms: C_3  and  C_4
REMARK    4  A    between atoms: C_4  and  N_5
REMARK    5  A    between atoms: C_6  and  C_10
REMARK    6  A    between atoms: C_10  and  C_12
REMARK    7  A    between atoms: C_10  and  N_27
REMARK    8  A    between atoms: N_30  and  C_33
REMARK    9  A    between atoms: C_33  and  C_34
REMARK                            x       y       z     vdW  Elec       q    Type
REMARK                         _______ _______ _______ _____ _____    ______ ____
ROOT
ATOM      1  C   UNL     1      -0.941  -2.616  -3.691  0.00  0.00    +0.142 C 
ENDROOT
BRANCH   1   2
ATOM      2  C   UNL     1      -0.478  -1.584  -4.721  0.00  0.00    +0.123 C 
ATOM      3  C   UNL     1      -1.712  -0.966  -5.347  0.00  0.00    -0.003 C 
ATOM      4  C   UNL     1      -1.844  -1.065  -6.697  0.00  0.00    -0.003 A 
ATOM      5  C   UNL     1      -3.007  -0.496  -7.379  0.00  0.00    +0.059 A 
ATOM      6  C   UNL     1      -3.110  -0.614  -8.729  0.00  0.00    +0.167 A 
ATOM      7  C   UNL     1      -2.116  -1.274  -9.482  0.00  0.00    +0.168 A 
ATOM      8  C   UNL     1      -1.001  -1.827  -8.888  0.00  0.00    +0.073 A 
ATOM      9  C   UNL     1      -0.816  -1.752  -7.501  0.00  0.00    +0.044 A 
ATOM     10  N   UNL     1       0.270  -2.294  -6.945  0.00  0.00    -0.284 N 
ATOM     11  C   UNL     1       0.507  -2.261  -5.646  0.00  0.00    +0.226 C 
ATOM     12  O   UNL     1       1.515  -2.774  -5.197  0.00  0.00    -0.275 OA
ATOM     13  O   UNL     1      -2.483  -1.238 -10.796  0.00  0.00    -0.453 OA
ATOM     14  C   UNL     1      -3.888  -0.930 -10.798  0.00  0.00    +0.466 C 
ATOM     15  O   UNL     1      -4.082  -0.177  -9.586  0.00  0.00    -0.453 OA
ATOM     16  H   UNL     1       0.915  -2.733  -7.522  0.00  0.00    +0.155 HD
ENDBRANCH   1   2
BRANCH   1  17
ATOM     17  N   UNL     1      -1.415  -3.821  -4.386  0.00  0.00    -0.295 NA
ATOM     18  C   UNL     1      -2.734  -3.594  -4.994  0.00  0.00    +0.066 C 
ATOM     19  C   UNL     1      -3.165  -4.849  -5.755  0.00  0.00    -0.063 C 
ATOM     20  N   UNL     1      -3.223  -5.988  -4.830  0.00  0.00    +0.384 N 
ATOM     21  C   UNL     1      -1.893  -6.218  -4.250  0.00  0.00    -0.063 C 
ATOM     22  C   UNL     1      -1.452  -4.974  -3.475  0.00  0.00    +0.066 C 
ATOM     23  H   UNL     1      -3.882  -5.788  -4.092  0.00  0.00    -0.081 HD
BRANCH  20  24
ATOM     24  C   UNL     1      -3.654  -7.189  -5.558  0.00  0.00    -0.043 C 
BRANCH  24  25
ATOM     25  C   UNL     1      -3.832  -8.328  -4.587  0.00  0.00    -0.064 A 
ATOM     26  C   UNL     1      -2.768  -9.161  -4.296  0.00  0.00    +0.002 A 
ATOM     27  C   UNL     1      -2.932 -10.206  -3.406  0.00  0.00    +0.000 A 
ATOM     28  C   UNL     1      -4.159 -10.417  -2.806  0.00  0.00    +0.000 A 
ATOM     29  C   UNL     1      -5.223  -9.583  -3.097  0.00  0.00    +0.000 A 
ATOM     30  C   UNL     1      -5.058  -8.536  -3.984  0.00  0.00    +0.002 A 
ENDBRANCH  24  25
ENDBRANCH  20  24
ENDBRANCH   1  17
BRANCH   1  32
ATOM     31  N   UNL     1       0.518  -2.404  -1.611  0.00  0.00    -0.225 N 
ATOM     32  C   UNL     1       0.210  -2.978  -2.788  0.00  0.00    +0.170 A 
ATOM     33  N   UNL     1       1.105  -3.912  -2.998  0.00  0.00    -0.112 NA
ATOM     34  N   UNL     1       1.921  -3.912  -2.000  0.00  0.00    -0.023 NA
ATOM     35  N   UNL     1       1.572  -2.999  -1.163  0.00  0.00    -0.044 NA
BRANCH  31  36
ATOM     36  C   UNL     1      -0.203  -1.307  -0.962  0.00  0.00    +0.175 C 
BRANCH  36  37
ATOM     37  C   UNL     1       0.469   0.023  -1.312  0.00  0.00    +0.183 C 
BRANCH  37  39
ATOM     38  C   UNL     1       0.361   2.378  -0.880  0.00  0.00    +0.194 C 
ATOM     39  O   UNL     1      -0.192   1.086  -0.622  0.00  0.00    -0.381 OA
ENDBRANCH  37  39
ENDBRANCH  36  37
ENDBRANCH  31  36
ENDBRANCH   1  32
TORSDOF 8
