REMARK  Name = ZINC35310539
REMARK  6 active torsions:
REMARK  status: ('A' for Active; 'I' for Inactive)
REMARK    1  A    between atoms: C_1  and  C_2
REMARK    2  A    between atoms: C_2  and  C_3
REMARK    3  A    between atoms: C_2  and  C_4
REMARK    4  A    between atoms: C_4  and  C_5
REMARK    5  A    between atoms: C_5  and  N_6
REMARK    6  A    between atoms: C_7  and  C_9
REMARK                            x       y       z     vdW  Elec       q    Type
REMARK                         _______ _______ _______ _____ _____    ______ ____
ROOT
ATOM      1  C   UNL     1       0.888  -0.881   6.133  0.00  0.00    +0.076 C 
ATOM      2  C   UNL     1       2.319  -0.282   6.202  0.00  0.00    -0.003 C 
ATOM      3  C   UNL     1       2.602  -0.315   7.723  0.00  0.00    -0.066 C 
ATOM      4  C   UNL     1       3.589   0.809   8.076  0.00  0.00    -0.017 C 
ATOM      5  C   UNL     1       2.787   1.790   8.961  0.00  0.00    -0.020 C 
ATOM      6  C   UNL     1       1.320   1.494   8.563  0.00  0.00    -0.077 C 
ATOM      7  N   UNL     1       1.297   0.005   8.361  0.00  0.00    +0.394 N 
ATOM      8  C   UNL     1       0.228  -0.351   7.415  0.00  0.00    +0.052 C 
ATOM      9  C   UNL     1      -0.651   0.833   7.113  0.00  0.00    -0.027 A 
ATOM     10  C   UNL     1      -0.408   2.076   6.574  0.00  0.00    +0.004 A 
ATOM     11  C   UNL     1      -1.447   2.976   6.415  0.00  0.00    +0.000 A 
ATOM     12  C   UNL     1      -2.728   2.623   6.799  0.00  0.00    +0.002 A 
ATOM     13  C   UNL     1      -2.975   1.379   7.340  0.00  0.00    +0.023 A 
ATOM     14  C   UNL     1      -1.935   0.467   7.504  0.00  0.00    +0.036 A 
ATOM     15  N   UNL     1      -1.931  -0.831   8.017  0.00  0.00    -0.286 N 
ATOM     16  C   UNL     1      -0.703  -1.381   8.000  0.00  0.00    +0.212 C 
ATOM     17  O   UNL     1      -0.403  -2.493   8.383  0.00  0.00    -0.277 OA
ATOM     18  H   UNL     1      -2.723  -1.284   8.348  0.00  0.00    +0.155 HD
ATOM     19  H   UNL     1       1.194  -0.483   9.237  0.00  0.00    -0.079 HD
ENDROOT
BRANCH   1  21
ATOM     20  N   UNL     1      -0.948  -1.018   4.481  0.00  0.00    -0.315 N 
ATOM     21  C   UNL     1       0.159  -0.382   4.912  0.00  0.00    +0.216 C 
ATOM     22  O   UNL     1       0.569   0.592   4.317  0.00  0.00    -0.276 OA
ATOM     23  H   UNL     1      -1.276  -1.797   4.957  0.00  0.00    +0.149 HD
BRANCH  20  24
ATOM     24  C   UNL     1      -1.657  -0.533   3.294  0.00  0.00    +0.104 C 
BRANCH  24  25
ATOM     25  C   UNL     1      -2.869  -1.426   3.024  0.00  0.00    +0.022 C 
BRANCH  25  27
ATOM     26  C   UNL     1      -2.711  -1.073   0.555  0.00  0.00    +0.007 C 
ATOM     27  C   UNL     1      -3.610  -0.919   1.784  0.00  0.00    -0.016 C 
ATOM     28  C   UNL     1      -4.889  -1.733   1.586  0.00  0.00    +0.007 C 
ENDBRANCH  25  27
ENDBRANCH  24  25
ENDBRANCH  20  24
ENDBRANCH   1  21
TORSDOF 4
