REMARK  Name = ZINC34789289
REMARK  8 active torsions:
REMARK  status: ('A' for Active; 'I' for Inactive)
REMARK    1  A    between atoms: C_1  and  C_2
REMARK    2  A    between atoms: C_2  and  C_3
REMARK    3  A    between atoms: C_3  and  C_30
REMARK    4  A    between atoms: C_13  and  N_29
REMARK    5  A    between atoms: C_15  and  S_17
REMARK    6  A    between atoms: S_17  and  C_18
REMARK    7  A    between atoms: C_18  and  C_19
REMARK    8  A    between atoms: N_21  and  C_22
REMARK                            x       y       z     vdW  Elec       q    Type
REMARK                         _______ _______ _______ _____ _____    ______ ____
ROOT
ATOM      1  C   UNL     1       0.792  -0.501   1.256  0.00  0.00    +0.071 C 
ATOM      2  C   UNL     1       0.918  -2.025   1.177  0.00  0.00    +0.071 C 
ATOM      3  C   UNL     1       1.441  -2.535   2.520  0.00  0.00    -0.024 C 
ATOM      4  C   UNL     1       1.387  -1.727   3.602  0.00  0.00    +0.017 C 
ATOM      5  C   UNL     1       0.801  -0.346   3.643  0.00  0.00    +0.203 C 
ATOM      6  O   UNL     1       0.063  -0.136   2.431  0.00  0.00    -0.368 OA
ATOM      7  S   UNL     1       2.175  -2.594   4.935  0.00  0.00    -0.095 S 
ATOM      8  C   UNL     1       2.678  -4.101   4.028  0.00  0.00    +0.203 C 
ATOM      9  C   UNL     1       1.916  -3.893   2.718  0.00  0.00    +0.027 C 
ATOM     10  C   UNL     1       1.730  -4.968   1.908  0.00  0.00    +0.099 C 
ATOM     11  N   UNL     1       2.228  -6.160   2.485  0.00  0.00    -0.177 NA
ATOM     12  C   UNL     1       1.935  -6.339   3.835  0.00  0.00    +0.176 C 
ATOM     13  N   UNL     1       2.145  -5.313   4.655  0.00  0.00    -0.242 NA
ATOM     14  C   UNL     1       2.189   0.120   1.310  0.00  0.00    +0.042 C 
ENDROOT
BRANCH  10  15
ATOM     15  N   UNL     1       1.118  -4.903   0.653  0.00  0.00    -0.404 NA
ATOM     16  H   UNL     1       1.817  -4.730  -0.054  0.00  0.00    +0.122 HD
ATOM     17  H   UNL     1       0.654  -5.778   0.459  0.00  0.00    +0.122 HD
ATOM     18  H   UNL     1       0.441  -4.155   0.647  0.00  0.00    +0.122 HD
ENDBRANCH  10  15
BRANCH   1  20
ATOM     19  C   UNL     1       0.044   1.543   0.029  0.00  0.00    +0.007 C 
ATOM     20  C   UNL     1       0.054   0.013   0.018  0.00  0.00    +0.032 C 
ENDBRANCH   1  20
BRANCH  12  21
ATOM     21  S   UNL     1       1.325  -7.877   4.441  0.00  0.00    -0.080 S 
BRANCH  21  22
ATOM     22  C   UNL     1       1.110  -7.593   6.219  0.00  0.00    +0.173 C 
BRANCH  22  23
ATOM     23  C   UNL     1       0.586  -8.848   6.868  0.00  0.00    +0.227 C 
ATOM     24  O   UNL     1       0.377  -9.836   6.197  0.00  0.00    -0.275 OA
ATOM     25  N   UNL     1       0.348  -8.872   8.194  0.00  0.00    -0.285 N 
ATOM     26  H   UNL     1       0.577  -8.105   8.742  0.00  0.00    +0.155 HD
BRANCH  25  27
ATOM     27  C   UNL     1      -0.230 -10.004   8.781  0.00  0.00    +0.033 A 
ATOM     28  C   UNL     1      -1.116  -9.863   9.841  0.00  0.00    +0.025 A 
ATOM     29  C   UNL     1      -1.684 -10.981  10.418  0.00  0.00    +0.022 A 
ATOM     30  C   UNL     1      -1.372 -12.242   9.942  0.00  0.00    +0.041 A 
ATOM     31  C   UNL     1      -0.489 -12.386   8.886  0.00  0.00    +0.022 A 
ATOM     32  C   UNL     1       0.078 -11.270   8.301  0.00  0.00    +0.025 A 
ATOM     33 CL   UNL     1      -2.088 -13.646  10.670  0.00  0.00    -0.084 Cl
ENDBRANCH  25  27
ENDBRANCH  22  23
ENDBRANCH  21  22
ENDBRANCH  12  21
TORSDOF 6
