REMARK  Name = ZINC33810612
REMARK  11 active torsions:
REMARK  status: ('A' for Active; 'I' for Inactive)
REMARK    1  A    between atoms: C_1  and  C_2
REMARK    2  A    between atoms: C_2  and  O_3
REMARK    3  A    between atoms: O_3  and  C_4
REMARK    4  A    between atoms: C_6  and  C_11
REMARK    5  A    between atoms: C_9  and  O_10
REMARK    6  A    between atoms: C_16  and  S_20
REMARK    7  A    between atoms: S_20  and  C_21
REMARK    8  A    between atoms: C_21  and  C_22
REMARK    9  A    between atoms: C_25  and  C_28
REMARK   10  A    between atoms: C_35  and  C_37
REMARK   11  A    between atoms: C_35  and  C_38
REMARK                            x       y       z     vdW  Elec       q    Type
REMARK                         _______ _______ _______ _____ _____    ______ ____
ROOT
ATOM      1  C   UNL     1       2.482   1.123   0.011  0.00  0.00    +0.093 C 
ATOM      2  C   UNL     1       3.649   1.964  -0.414  0.00  0.00    +0.069 A 
ATOM      3  C   UNL     1       3.571   3.322  -0.410  0.00  0.00    +0.135 A 
ATOM      4  N   UNL     1       4.659   4.059  -0.799  0.00  0.00    -0.208 NA
ATOM      5  C   UNL     1       5.804   3.431  -1.187  0.00  0.00    +0.171 A 
ATOM      6  N   UNL     1       5.892   2.117  -1.197  0.00  0.00    -0.302 N 
ATOM      7  C   UNL     1       4.854   1.353  -0.825  0.00  0.00    +0.258 A 
ATOM      8  O   UNL     1       4.950   0.135  -0.843  0.00  0.00    -0.267 OA
ATOM      9  N   UNL     1       2.409   3.947  -0.021  0.00  0.00    -0.302 N 
ATOM     10  C   UNL     1       1.221   3.267  -0.013  0.00  0.00    +0.017 C 
ATOM     11  C   UNL     1       1.201   1.917   0.001  0.00  0.00    +0.024 C 
ATOM     12  C   UNL     1      -0.014   1.211   0.009  0.00  0.00    +0.162 C 
ATOM     13  O   UNL     1       0.002  -0.004   0.002  0.00  0.00    -0.292 OA
ATOM     14  C   UNL     1      -1.335   1.931   0.019  0.00  0.00    +0.086 C 
ATOM     15  C   UNL     1      -1.154   3.287   0.715  0.00  0.00    -0.023 C 
ATOM     16  C   UNL     1      -0.061   4.064  -0.023  0.00  0.00    +0.058 C 
ATOM     17  C   UNL     1      -0.738   3.072   2.171  0.00  0.00    +0.011 C 
ATOM     18  C   UNL     1      -2.466   4.074   0.665  0.00  0.00    +0.011 C 
ATOM     19  H   UNL     1       2.429   5.003   0.287  0.00  0.00    +0.153 HD
ATOM     20  H   UNL     1       6.826   1.631  -1.514  0.00  0.00    +0.171 HD
ENDROOT
BRANCH   1  23
ATOM     21  C   UNL     1       3.044  -1.234   2.909  0.00  0.00    +0.162 A 
ATOM     22  C   UNL     1       2.811  -0.757   1.630  0.00  0.00    +0.054 A 
ATOM     23  C   UNL     1       2.731   0.605   1.404  0.00  0.00    -0.032 A 
ATOM     24  C   UNL     1       2.872   1.492   2.455  0.00  0.00    +0.008 A 
ATOM     25  C   UNL     1       3.099   1.022   3.735  0.00  0.00    +0.049 A 
ATOM     26  C   UNL     1       3.186  -0.342   3.967  0.00  0.00    +0.158 A 
BRANCH  26  27
ATOM     27  O   UNL     1       3.409  -0.806   5.226  0.00  0.00    -0.503 OA
ATOM     28  H   UNL     1       3.521  -0.099   6.061  0.00  0.00    +0.292 HD
ENDBRANCH  26  27
BRANCH  21  29
ATOM     29  O   UNL     1       3.128  -2.574   3.132  0.00  0.00    -0.489 OA
BRANCH  29  31
ATOM     30  C   UNL     1       3.097  -4.890   2.443  0.00  0.00    +0.048 C 
ATOM     31  C   UNL     1       2.972  -3.431   1.999  0.00  0.00    +0.226 C 
ENDBRANCH  29  31
ENDBRANCH  21  29
ENDBRANCH   1  23
BRANCH   5  32
ATOM     32  S   UNL     1       7.193   4.395  -1.683  0.00  0.00    -0.083 S 
BRANCH  32  33
ATOM     33  C   UNL     1       8.370   3.075  -2.071  0.00  0.00    +0.112 C 
BRANCH  33  34
ATOM     34  C   UNL     1       9.671   3.681  -2.531  0.00  0.00    -0.037 A 
ATOM     35  C   UNL     1       9.877   3.936  -3.874  0.00  0.00    +0.005 A 
ATOM     36  C   UNL     1      11.069   4.496  -4.295  0.00  0.00    +0.003 A 
ATOM     37  C   UNL     1      12.058   4.791  -3.375  0.00  0.00    -0.050 A 
ATOM     38  C   UNL     1      11.853   4.532  -2.033  0.00  0.00    +0.003 A 
ATOM     39  C   UNL     1      10.659   3.976  -1.611  0.00  0.00    +0.005 A 
ATOM     40  C   UNL     1      13.359   5.397  -3.835  0.00  0.00    +0.044 C 
ENDBRANCH  33  34
ENDBRANCH  32  33
ENDBRANCH   5  32
TORSDOF 7
