REMARK  Name = ZINC16161850
REMARK  10 active torsions:
REMARK  status: ('A' for Active; 'I' for Inactive)
REMARK    1  A    between atoms: C_1  and  C_2
REMARK    2  A    between atoms: C_2  and  C_3
REMARK    3  A    between atoms: C_6  and  N_9
REMARK    4  A    between atoms: N_9  and  C_10
REMARK    5  A    between atoms: C_16  and  C_17
REMARK    6  A    between atoms: C_19  and  O_28
REMARK    7  A    between atoms: C_20  and  O_24
REMARK    8  A    between atoms: O_24  and  C_25
REMARK    9  A    between atoms: C_25  and  C_26
REMARK   10  A    between atoms: O_28  and  C_29
REMARK                            x       y       z     vdW  Elec       q    Type
REMARK                         _______ _______ _______ _____ _____    ______ ____
ROOT
ATOM      1  C   UNL     1      -3.285   1.027  -0.430  0.00  0.00    +0.224 C 
ATOM      2  N   UNL     1      -4.401   0.134  -0.076  0.00  0.00    -0.284 N 
ATOM      3  C   UNL     1      -5.491   0.175  -0.821  0.00  0.00    +0.252 C 
ATOM      4  O   UNL     1      -6.437  -0.546  -0.565  0.00  0.00    -0.270 OA
ATOM      5  C   UNL     1      -5.551   1.102  -1.964  0.00  0.00    +0.073 C 
ATOM      6  C   UNL     1      -6.562   1.299  -2.843  0.00  0.00    +0.029 C 
ATOM      7  S   UNL     1      -3.954   1.903  -1.901  0.00  0.00    -0.078 S 
ATOM      8  H   UNL     1      -4.337  -0.468   0.682  0.00  0.00    +0.152 HD
ENDROOT
BRANCH   6   9
ATOM      9  C   UNL     1      -6.357   2.155  -4.019  0.00  0.00    -0.006 A 
ATOM     10  C   UNL     1      -5.060   2.450  -4.456  0.00  0.00    +0.058 A 
ATOM     11  C   UNL     1      -4.874   3.256  -5.562  0.00  0.00    +0.162 A 
ATOM     12  C   UNL     1      -5.976   3.774  -6.242  0.00  0.00    +0.164 A 
ATOM     13  C   UNL     1      -7.262   3.483  -5.811  0.00  0.00    +0.065 A 
ATOM     14  C   UNL     1      -7.458   2.675  -4.711  0.00  0.00    +0.029 A 
ATOM     15 BR   UNL     1      -9.213   2.274  -4.131  0.00  0.00    -0.050 Br
BRANCH  11  16
ATOM     16  O   UNL     1      -3.615   3.545  -5.989  0.00  0.00    -0.491 OA
ATOM     17  C   UNL     1      -2.533   2.981  -5.245  0.00  0.00    +0.277 C 
ENDBRANCH  11  16
BRANCH  12  18
ATOM     18  O   UNL     1      -5.789   4.567  -7.330  0.00  0.00    -0.477 OA
BRANCH  18  19
ATOM     19  C   UNL     1      -6.961   5.064  -7.979  0.00  0.00    +0.354 C 
BRANCH  19  20
ATOM     20  C   UNL     1      -6.560   5.917  -9.155  0.00  0.00    +0.393 C 
ATOM     21  O   UNL     1      -5.391   6.082  -9.410  0.00  0.00    -0.243 OA
ATOM     22  O   UNL     1      -7.502   6.493  -9.918  0.00  0.00    -0.243 OA
ENDBRANCH  19  20
ENDBRANCH  18  19
ENDBRANCH  12  18
ENDBRANCH   6   9
BRANCH   1  23
ATOM     23  N   UNL     1      -2.088   0.257  -0.778  0.00  0.00    -0.317 N 
ATOM     24  H   UNL     1      -2.159  -0.692  -0.966  0.00  0.00    +0.149 HD
BRANCH  23  28
ATOM     25  C   UNL     1       1.619   2.144  -0.963  0.00  0.00    -0.048 A 
ATOM     26  C   UNL     1       1.519   0.791  -1.232  0.00  0.00    +0.005 A 
ATOM     27  C   UNL     1       0.292   0.162  -1.168  0.00  0.00    +0.023 A 
ATOM     28  C   UNL     1      -0.844   0.890  -0.838  0.00  0.00    +0.029 A 
ATOM     29  C   UNL     1      -0.740   2.247  -0.562  0.00  0.00    +0.023 A 
ATOM     30  C   UNL     1       0.491   2.871  -0.629  0.00  0.00    +0.005 A 
BRANCH  25  32
ATOM     31  C   UNL     1       3.190   3.353  -2.452  0.00  0.00    +0.009 C 
ATOM     32  C   UNL     1       2.960   2.828  -1.034  0.00  0.00    +0.032 C 
ENDBRANCH  25  32
ENDBRANCH  23  28
ENDBRANCH   1  23
TORSDOF 8
