REMARK  Name = ZINC39701787
REMARK  10 active torsions:
REMARK  status: ('A' for Active; 'I' for Inactive)
REMARK    1  A    between atoms: C_1  and  C_2
REMARK    2  A    between atoms: C_5  and  O_36
REMARK    3  A    between atoms: C_6  and  N_8
REMARK    4  A    between atoms: C_9  and  S_23
REMARK    5  A    between atoms: S_23  and  C_24
REMARK    6  A    between atoms: C_24  and  C_25
REMARK    7  A    between atoms: N_27  and  C_28
REMARK    8  A    between atoms: C_30  and  C_35
REMARK    9  A    between atoms: C_32  and  C_34
REMARK   10  A    between atoms: O_36  and  C_37
REMARK                            x       y       z     vdW  Elec       q    Type
REMARK                         _______ _______ _______ _____ _____    ______ ____
ROOT
ATOM      1  N   UNL     1       0.183  -2.564   2.245  0.00  0.00    -0.231 N 
ATOM      2  C   UNL     1       1.304  -3.208   2.934  0.00  0.00    +0.259 C 
ATOM      3  N   UNL     1       1.067  -4.018   4.132  0.00  0.00    -0.248 NA
ATOM      4  C   UNL     1      -0.127  -4.173   4.595  0.00  0.00    +0.101 C 
ATOM      5  C   UNL     1      -0.716  -4.898   5.744  0.00  0.00    +0.028 A 
ATOM      6  C   UNL     1      -0.200  -5.685   6.757  0.00  0.00    +0.012 A 
ATOM      7  C   UNL     1      -1.049  -6.233   7.707  0.00  0.00    +0.001 A 
ATOM      8  C   UNL     1      -2.410  -5.994   7.643  0.00  0.00    +0.002 A 
ATOM      9  C   UNL     1      -2.942  -5.210   6.638  0.00  0.00    +0.028 A 
ATOM     10  C   UNL     1      -2.104  -4.648   5.669  0.00  0.00    +0.074 A 
ATOM     11  N   UNL     1      -2.364  -3.857   4.599  0.00  0.00    -0.240 NA
ATOM     12  C   UNL     1      -1.294  -3.536   3.926  0.00  0.00    +0.152 C 
ATOM     13  C   UNL     1      -1.072  -2.712   2.720  0.00  0.00    +0.274 C 
ATOM     14  O   UNL     1      -2.009  -2.178   2.159  0.00  0.00    -0.268 OA
ENDROOT
BRANCH   1  20
ATOM     15  C   UNL     1       0.751  -2.288  -2.630  0.00  0.00    +0.044 C 
ATOM     16  C   UNL     1       0.694  -1.631  -1.275  0.00  0.00    -0.048 A 
ATOM     17  C   UNL     1       0.870  -0.263  -1.164  0.00  0.00    +0.007 A 
ATOM     18  C   UNL     1       0.818   0.346   0.076  0.00  0.00    +0.048 A 
ATOM     19  C   UNL     1       0.590  -0.414   1.212  0.00  0.00    +0.141 A 
ATOM     20  C   UNL     1       0.413  -1.791   1.101  0.00  0.00    +0.081 A 
ATOM     21  C   UNL     1       0.461  -2.395  -0.148  0.00  0.00    +0.030 A 
BRANCH  19  22
ATOM     22  O   UNL     1       0.540   0.184   2.432  0.00  0.00    -0.493 OA
ATOM     23  C   UNL     1       0.731   1.600   2.470  0.00  0.00    +0.277 C 
ENDBRANCH  19  22
ENDBRANCH   1  20
BRANCH   2  24
ATOM     24  S   UNL     1       2.140  -4.271   1.724  0.00  0.00    -0.106 S 
BRANCH  24  25
ATOM     25  C   UNL     1       0.913  -5.551   1.343  0.00  0.00    +0.168 C 
BRANCH  25  26
ATOM     26  C   UNL     1       1.515  -6.558   0.397  0.00  0.00    +0.227 C 
ATOM     27  O   UNL     1       2.660  -6.425   0.018  0.00  0.00    -0.275 OA
ATOM     28  N   UNL     1       0.782  -7.606  -0.028  0.00  0.00    -0.285 N 
ATOM     29  H   UNL     1      -0.108  -7.751   0.328  0.00  0.00    +0.155 HD
BRANCH  28  30
ATOM     30  C   UNL     1       1.306  -8.486  -0.982  0.00  0.00    +0.034 A 
ATOM     31  C   UNL     1       0.473  -9.053  -1.937  0.00  0.00    +0.026 A 
ATOM     32  C   UNL     1       0.993  -9.920  -2.877  0.00  0.00    -0.048 A 
ATOM     33  C   UNL     1       2.342 -10.225  -2.868  0.00  0.00    +0.006 A 
ATOM     34  C   UNL     1       3.174  -9.662  -1.918  0.00  0.00    -0.048 A 
ATOM     35  C   UNL     1       2.661  -8.789  -0.979  0.00  0.00    +0.026 A 
ATOM     36  C   UNL     1       4.643  -9.997  -1.911  0.00  0.00    +0.044 C 
ATOM     37  C   UNL     1       0.089 -10.537  -3.914  0.00  0.00    +0.044 C 
ENDBRANCH  28  30
ENDBRANCH  25  26
ENDBRANCH  24  25
ENDBRANCH   2  24
TORSDOF 6
