REMARK  Name = ZINC47444535
REMARK  9 active torsions:
REMARK  status: ('A' for Active; 'I' for Inactive)
REMARK    1  A    between atoms: C_1  and  C_2
REMARK    2  A    between atoms: C_3  and  C_15
REMARK    3  A    between atoms: C_10  and  C_14
REMARK    4  A    between atoms: N_12  and  C_13
REMARK    5  A    between atoms: C_15  and  C_16
REMARK    6  A    between atoms: C_16  and  C_17
REMARK    7  A    between atoms: N_19  and  C_20
REMARK    8  A    between atoms: C_20  and  C_22
REMARK    9  A    between atoms: C_20  and  C_28
REMARK                            x       y       z     vdW  Elec       q    Type
REMARK                         _______ _______ _______ _____ _____    ______ ____
ROOT
ATOM      1  C   UNL     1       1.134   0.118  -3.165  0.00  0.00    +0.100 C 
ENDROOT
BRANCH   1   2
ATOM      2  C   UNL     1       1.002   0.867  -4.466  0.00  0.00    +0.214 C 
ATOM      3  O   UNL     1      -0.074   1.312  -4.804  0.00  0.00    -0.276 OA
ATOM      4  N   UNL     1       2.082   1.043  -5.255  0.00  0.00    -0.300 N 
ATOM      5  H   UNL     1       2.943   0.688  -4.984  0.00  0.00    +0.150 HD
BRANCH   4   6
ATOM      6  C   UNL     1       1.954   1.771  -6.519  0.00  0.00    +0.189 C 
BRANCH   6   7
ATOM      7  C   UNL     1       3.288   2.360  -6.897  0.00  0.00    -0.018 A 
ATOM      8  C   UNL     1       4.446   1.629  -6.704  0.00  0.00    +0.006 A 
ATOM      9  C   UNL     1       5.670   2.169  -7.051  0.00  0.00    +0.000 A 
ATOM     10  C   UNL     1       5.737   3.440  -7.590  0.00  0.00    +0.000 A 
ATOM     11  C   UNL     1       4.580   4.171  -7.784  0.00  0.00    +0.000 A 
ATOM     12  C   UNL     1       3.355   3.629  -7.442  0.00  0.00    +0.006 A 
ENDBRANCH   6   7
BRANCH   6  13
ATOM     13  C   UNL     1       1.498   0.825  -7.600  0.00  0.00    +0.235 C 
ATOM     14  O   UNL     1       1.300  -0.343  -7.339  0.00  0.00    -0.274 OA
ATOM     15  N   UNL     1       1.311   1.276  -8.856  0.00  0.00    -0.328 N 
ATOM     16  H   UNL     1       1.470   2.210  -9.065  0.00  0.00    +0.145 HD
ATOM     17  H   UNL     1       1.018   0.667  -9.552  0.00  0.00    +0.145 HD
ENDBRANCH   6  13
ENDBRANCH   4   6
ENDBRANCH   1   2
BRANCH   1  18
ATOM     18  C   UNL     1      -0.228   0.061  -2.470  0.00  0.00    +0.050 C 
BRANCH  18  21
ATOM     19  C   UNL     1       0.244   1.494  -0.021  0.00  0.00    +0.045 C 
ATOM     20  C   UNL     1       0.126  -0.008  -0.013  0.00  0.00    -0.030 A 
ATOM     21  C   UNL     1      -0.096  -0.688  -1.169  0.00  0.00    +0.021 A 
ATOM     22  C   UNL     1      -0.204  -2.090  -1.150  0.00  0.00    +0.254 A 
ATOM     23  O   UNL     1      -0.404  -2.692  -2.192  0.00  0.00    -0.268 OA
ATOM     24  N   UNL     1      -0.089  -2.776   0.002  0.00  0.00    -0.307 N 
ATOM     25  H   UNL     1      -0.166  -3.743  -0.004  0.00  0.00    +0.170 HD
ATOM     26  C   UNL     1       0.135  -2.121   1.183  0.00  0.00    +0.139 A 
ATOM     27  C   UNL     1       0.251  -0.730   1.196  0.00  0.00    +0.043 A 
ATOM     28  C   UNL     1       0.483  -0.345   2.538  0.00  0.00    +0.069 A 
ATOM     29  N   UNL     1       0.508  -1.423   3.270  0.00  0.00    -0.174 NA
ATOM     30  N   UNL     1       0.288  -2.541   2.458  0.00  0.00    -0.251 N 
ATOM     31  C   UNL     1       0.244  -3.933   2.912  0.00  0.00    +0.174 C 
ATOM     32  C   UNL     1       0.669   1.066   3.034  0.00  0.00    +0.068 C 
ENDBRANCH  18  21
ENDBRANCH   1  18
TORSDOF 6
