REMARK  Name = ZINC66400940
REMARK  7 active torsions:
REMARK  status: ('A' for Active; 'I' for Inactive)
REMARK    1  A    between atoms: C_1  and  C_2
REMARK    2  A    between atoms: C_7  and  C_8
REMARK    3  A    between atoms: C_8  and  C_10
REMARK    4  A    between atoms: C_8  and  N_12
REMARK    5  A    between atoms: C_13  and  C_15
REMARK    6  A    between atoms: C_18  and  N_24
REMARK    7  A    between atoms: C_19  and  N_21
REMARK                            x       y       z     vdW  Elec       q    Type
REMARK                         _______ _______ _______ _____ _____    ______ ____
ROOT
ATOM      1  N   UNL     1      -0.153  -0.938   3.758  0.00  0.00    -0.292 N 
ATOM      2  C   UNL     1      -0.711  -0.359   4.840  0.00  0.00    +0.245 C 
ATOM      3  O   UNL     1      -0.544   0.827   5.049  0.00  0.00    -0.270 OA
ATOM      4  H   UNL     1      -0.287  -1.884   3.591  0.00  0.00    +0.151 HD
ENDROOT
BRANCH   2   5
ATOM      5  C   UNL     1      -1.525  -1.164   5.770  0.00  0.00    +0.039 A 
ATOM      6  C   UNL     1      -1.713  -2.529   5.534  0.00  0.00    +0.015 A 
ATOM      7  C   UNL     1      -2.472  -3.278   6.404  0.00  0.00    +0.026 A 
ATOM      8  C   UNL     1      -3.053  -2.677   7.518  0.00  0.00    +0.055 A 
ATOM      9  C   UNL     1      -2.867  -1.318   7.755  0.00  0.00    +0.147 A 
ATOM     10  C   UNL     1      -2.104  -0.565   6.892  0.00  0.00    +0.047 A 
BRANCH   9  11
ATOM     11  N   UNL     1      -3.487  -0.683   8.940  0.00  0.00    +0.058 N 
ATOM     12  O   UNL     1      -3.936   0.437   8.861  0.00  0.00    -0.126 OA
ATOM     13  O   UNL     1      -3.545  -1.284   9.988  0.00  0.00    -0.126 OA
ENDBRANCH   9  11
BRANCH   8  14
ATOM     14  N   UNL     1      -3.820  -3.436   8.395  0.00  0.00    -0.356 N 
ATOM     15  H   UNL     1      -3.839  -4.402   8.311  0.00  0.00    +0.142 HD
ATOM     16  H   UNL     1      -4.336  -3.000   9.091  0.00  0.00    +0.142 HD
ENDBRANCH   8  14
ENDBRANCH   2   5
BRANCH   1  17
ATOM     17  C   UNL     1       0.655  -0.138   2.834  0.00  0.00    +0.207 C 
BRANCH  17  24
ATOM     18  C   UNL     1       1.008   1.539   0.508  0.00  0.00    +0.044 C 
ATOM     19  C   UNL     1       0.751   0.063   0.341  0.00  0.00    -0.045 A 
ATOM     20  C   UNL     1       0.690  -0.489  -0.925  0.00  0.00    +0.004 A 
ATOM     21  C   UNL     1       0.455  -1.842  -1.078  0.00  0.00    +0.000 A 
ATOM     22  C   UNL     1       0.281  -2.644   0.035  0.00  0.00    +0.000 A 
ATOM     23  C   UNL     1       0.342  -2.092   1.301  0.00  0.00    +0.007 A 
ATOM     24  C   UNL     1       0.582  -0.739   1.454  0.00  0.00    -0.010 A 
ENDBRANCH  17  24
BRANCH  17  25
ATOM     25  C   UNL     1       2.054  -0.126   3.291  0.00  0.00    +0.090 C 
ATOM     26  N   UNL     1       3.134  -0.116   3.643  0.00  0.00    -0.194 NA
ENDBRANCH  17  25
ENDBRANCH   1  17
TORSDOF 6
