REMARK  Name = ZINC43222108
REMARK  6 active torsions:
REMARK  status: ('A' for Active; 'I' for Inactive)
REMARK    1  A    between atoms: C_3  and  C_9
REMARK    2  A    between atoms: C_9  and  C_10
REMARK    3  A    between atoms: C_10  and  N_11
REMARK    4  A    between atoms: C_12  and  C_14
REMARK    5  A    between atoms: C_19  and  C_21
REMARK    6  A    between atoms: N_23  and  C_24
REMARK                            x       y       z     vdW  Elec       q    Type
REMARK                         _______ _______ _______ _____ _____    ______ ____
ROOT
ATOM      1  N   UNL     1       5.510   2.975   1.383  0.00  0.00    -0.315 N 
ATOM      2  C   UNL     1       6.204   3.141   2.527  0.00  0.00    +0.215 C 
ATOM      3  O   UNL     1       5.787   2.668   3.563  0.00  0.00    -0.276 OA
ATOM      4  H   UNL     1       5.843   3.353   0.554  0.00  0.00    +0.149 HD
ENDROOT
BRANCH   2   5
ATOM      5  C   UNL     1       7.498   3.913   2.517  0.00  0.00    +0.068 C 
ATOM      6  C   UNL     1       8.541   3.201   1.629  0.00  0.00    -0.069 C 
ATOM      7  N   UNL     1       9.832   3.395   2.338  0.00  0.00    +0.380 N 
ATOM      8  C   UNL     1       9.487   3.230   3.774  0.00  0.00    -0.069 C 
ATOM      9  C   UNL     1       8.120   3.934   3.929  0.00  0.00    +0.068 C 
ATOM     10  H   UNL     1      10.499   2.694   2.053  0.00  0.00    -0.086 HD
ATOM     11  H   UNL     1      10.194   4.320   2.166  0.00  0.00    -0.086 HD
BRANCH   9  12
ATOM     12  C   UNL     1       8.310   5.354   4.396  0.00  0.00    +0.215 C 
ATOM     13  O   UNL     1       7.984   6.277   3.679  0.00  0.00    -0.276 OA
ATOM     14  N   UNL     1       8.841   5.599   5.610  0.00  0.00    -0.312 N 
ATOM     15  H   UNL     1       9.102   4.861   6.183  0.00  0.00    +0.149 HD
BRANCH  14  16
ATOM     16  C   UNL     1       9.026   6.980   6.064  0.00  0.00    +0.073 C 
ATOM     17  C   UNL     1      10.348   7.326   6.752  0.00  0.00    +0.024 C 
ATOM     18  C   UNL     1       9.061   7.229   7.573  0.00  0.00    +0.024 C 
ENDBRANCH  14  16
ENDBRANCH   9  12
ENDBRANCH   2   5
BRANCH   1  19
ATOM     19  C   UNL     1       4.252   2.224   1.392  0.00  0.00    +0.109 C 
BRANCH  19  20
ATOM     20  C   UNL     1       3.671   2.185  -0.023  0.00  0.00    +0.055 C 
BRANCH  20  23
ATOM     21  C   UNL     1      -0.017   1.379   0.010  0.00  0.00    +0.020 A 
ATOM     22  C   UNL     1       1.171   2.087   0.002  0.00  0.00    +0.006 A 
ATOM     23  C   UNL     1       2.377   1.413  -0.013  0.00  0.00    -0.027 A 
ATOM     24  C   UNL     1       2.397   0.029  -0.021  0.00  0.00    +0.046 A 
ATOM     25  C   UNL     1       1.210  -0.679  -0.013  0.00  0.00    +0.040 A 
ATOM     26  C   UNL     1       0.002  -0.004   0.002  0.00  0.00    +0.042 A 
ATOM     27 CL   UNL     1      -1.489  -0.893   0.012  0.00  0.00    -0.083 Cl
ATOM     28 CL   UNL     1       3.913  -0.817  -0.041  0.00  0.00    -0.083 Cl
ENDBRANCH  20  23
ENDBRANCH  19  20
ENDBRANCH   1  19
TORSDOF 6
