REMARK  Name = ZINC05200889
REMARK  5 active torsions:
REMARK  status: ('A' for Active; 'I' for Inactive)
REMARK    1  A    between atoms: C_1  and  C_2
REMARK    2  A    between atoms: C_5  and  C_8
REMARK    3  A    between atoms: C_11  and  C_28
REMARK    4  A    between atoms: C_16  and  C_18
REMARK    5  A    between atoms: C_23  and  C_26
REMARK                            x       y       z     vdW  Elec       q    Type
REMARK                         _______ _______ _______ _____ _____    ______ ____
ROOT
ATOM      1  C   UNL     1       0.131  -4.267  -0.025  0.00  0.00    +0.104 C 
ATOM      2  C   UNL     1      -1.364  -4.456   0.256  0.00  0.00    +0.063 C 
ATOM      3  C   UNL     1      -1.736  -3.779   1.580  0.00  0.00    +0.215 C 
ATOM      4  N   UNL     1      -0.792  -4.211   2.615  0.00  0.00    -0.238 N 
ATOM      5  C   UNL     1       0.432  -4.753   2.346  0.00  0.00    +0.119 A 
ATOM      6  C   UNL     1       1.033  -5.037   3.518  0.00  0.00    +0.078 A 
ATOM      7  C   UNL     1       0.150  -4.654   4.554  0.00  0.00    +0.149 A 
ATOM      8  N   UNL     1      -0.943  -4.159   4.000  0.00  0.00    -0.164 NA
ATOM      9  N   UNL     1       0.902  -4.942   1.038  0.00  0.00    -0.322 N 
ATOM     10  H   UNL     1       1.682  -5.484   0.842  0.00  0.00    +0.148 HD
ENDROOT
BRANCH   7  11
ATOM     11  C   UNL     1       0.406  -4.785   6.003  0.00  0.00    +0.267 C 
ATOM     12  O   UNL     1       1.501  -5.133   6.398  0.00  0.00    -0.268 OA
ATOM     13  N   UNL     1      -0.576  -4.517   6.887  0.00  0.00    -0.296 N 
ATOM     14  C   UNL     1      -1.946  -4.253   6.427  0.00  0.00    +0.108 C 
ATOM     15  C   UNL     1      -2.903  -5.197   7.162  0.00  0.00    +0.022 C 
ATOM     16  C   UNL     1      -2.706  -5.043   8.671  0.00  0.00    -0.011 C 
ATOM     17  C   UNL     1      -1.271  -5.425   9.042  0.00  0.00    +0.022 C 
ATOM     18  C   UNL     1      -0.297  -4.490   8.329  0.00  0.00    +0.108 C 
ATOM     19  C   UNL     1      -3.685  -5.959   9.409  0.00  0.00    +0.007 C 
ENDBRANCH   7  11
BRANCH   1  24
ATOM     20  C   UNL     1       1.398   1.371  -0.059  0.00  0.00    +0.044 C 
ATOM     21  C   UNL     1       1.067  -0.099  -0.050  0.00  0.00    -0.050 A 
ATOM     22  C   UNL     1       0.901  -0.777  -1.243  0.00  0.00    +0.004 A 
ATOM     23  C   UNL     1       0.598  -2.126  -1.235  0.00  0.00    +0.006 A 
ATOM     24  C   UNL     1       0.462  -2.797  -0.033  0.00  0.00    -0.027 A 
ATOM     25  C   UNL     1       0.630  -2.119   1.159  0.00  0.00    +0.006 A 
ATOM     26  C   UNL     1       0.937  -0.771   1.151  0.00  0.00    +0.004 A 
ENDBRANCH   1  24
BRANCH   3  27
ATOM     27  C   UNL     1      -3.157  -4.182   1.980  0.00  0.00    +0.412 C 
ATOM     28  F   UNL     1      -3.223  -5.571   2.132  0.00  0.00    -0.168 F 
ATOM     29  F   UNL     1      -3.495  -3.563   3.188  0.00  0.00    -0.168 F 
ATOM     30  F   UNL     1      -4.053  -3.779   0.983  0.00  0.00    -0.168 F 
ENDBRANCH   3  27
TORSDOF 3
