REMARK  Name = ZINC51123776
REMARK  5 active torsions:
REMARK  status: ('A' for Active; 'I' for Inactive)
REMARK    1  A    between atoms: C_1  and  C_2
REMARK    2  A    between atoms: C_2  and  C_3
REMARK    3  A    between atoms: C_9  and  N_11
REMARK    4  A    between atoms: C_12  and  C_14
REMARK    5  A    between atoms: N_20  and  N_21
REMARK                            x       y       z     vdW  Elec       q    Type
REMARK                         _______ _______ _______ _____ _____    ______ ____
ROOT
ATOM      1  N   UNL     1      -0.463  -2.636   1.119  0.00  0.00    -0.307 N 
ATOM      2  C   UNL     1      -0.632  -3.852   0.564  0.00  0.00    +0.264 C 
ATOM      3  O   UNL     1       0.323  -4.450   0.106  0.00  0.00    -0.268 OA
ATOM      4  H   UNL     1      -1.224  -2.159   1.484  0.00  0.00    +0.149 HD
ENDROOT
BRANCH   2   5
ATOM      5  C   UNL     1      -1.979  -4.460   0.511  0.00  0.00    +0.148 A 
ATOM      6  C   UNL     1      -2.156  -5.726  -0.060  0.00  0.00    +0.038 A 
ATOM      7  C   UNL     1      -3.434  -6.253  -0.086  0.00  0.00    +0.049 A 
ATOM      8  C   UNL     1      -4.470  -5.491   0.458  0.00  0.00    +0.155 A 
ATOM      9  N   UNL     1      -4.209  -4.298   0.980  0.00  0.00    -0.132 NA
ATOM     10  N   UNL     1      -3.023  -3.809   1.010  0.00  0.00    -0.143 NA
ATOM     11  N   UNL     1      -5.766  -5.979   0.454  0.00  0.00    -0.266 N 
ATOM     12  H   UNL     1      -5.955  -6.850   0.072  0.00  0.00    +0.167 HD
BRANCH  11  13
ATOM     13  N   UNL     1      -6.778  -5.232   0.987  0.00  0.00    -0.255 NA
ATOM     14  H   UNL     1      -6.825  -4.323   0.552  0.00  0.00    +0.140 HD
ATOM     15  H   UNL     1      -7.661  -5.715   0.912  0.00  0.00    +0.140 HD
ENDBRANCH  11  13
ENDBRANCH   2   5
BRANCH   1  21
ATOM     16  C   UNL     1       0.742  -0.511   1.242  0.00  0.00    +0.009 C 
ATOM     17  C   UNL     1      -0.042  -0.124   2.497  0.00  0.00    +0.005 C 
ATOM     18  C   UNL     1       0.698  -0.630   3.737  0.00  0.00    +0.000 C 
ATOM     19  C   UNL     1       0.828  -2.153   3.666  0.00  0.00    +0.002 C 
ATOM     20  C   UNL     1       1.612  -2.541   2.410  0.00  0.00    +0.022 C 
ATOM     21  C   UNL     1       0.872  -2.034   1.171  0.00  0.00    +0.076 C 
BRANCH  16  23
ATOM     22  C   UNL     1      -0.019   1.526   0.010  0.00  0.00    +0.004 C 
ATOM     23  C   UNL     1       0.002  -0.004   0.002  0.00  0.00    +0.002 C 
ENDBRANCH  16  23
ENDBRANCH   1  21
TORSDOF 4
