REMARK  Name = ZINC40376759
REMARK  7 active torsions:
REMARK  status: ('A' for Active; 'I' for Inactive)
REMARK    1  A    between atoms: C_1  and  C_2
REMARK    2  A    between atoms: C_2  and  C_3
REMARK    3  A    between atoms: C_3  and  C_5
REMARK    4  A    between atoms: C_3  and  N_9
REMARK    5  A    between atoms: N_6  and  O_7
REMARK    6  A    between atoms: N_9  and  S_10
REMARK    7  A    between atoms: S_10  and  C_13
REMARK                            x       y       z     vdW  Elec       q    Type
REMARK                         _______ _______ _______ _____ _____    ______ ____
ROOT
ATOM      1  N   UNL     1       0.195  -0.178   2.313  0.00  0.00    -0.180 NA
ATOM      2  H   UNL     1      -0.467  -0.840   2.566  0.00  0.00    +0.149 HD
ENDROOT
BRANCH   1   3
ATOM      3  S   UNL     1       0.394   1.187   3.231  0.00  0.00    +0.060 S 
ATOM      4  O   UNL     1       0.335   2.289   2.336  0.00  0.00    -0.153 OA
ATOM      5  O   UNL     1      -0.482   1.060   4.342  0.00  0.00    -0.153 OA
BRANCH   3   6
ATOM      6  C   UNL     1       2.034   1.147   3.874  0.00  0.00    +0.119 A 
ATOM      7  C   UNL     1       2.950   2.108   3.491  0.00  0.00    +0.029 A 
ATOM      8  C   UNL     1       4.237   2.077   3.996  0.00  0.00    +0.002 A 
ATOM      9  C   UNL     1       4.607   1.085   4.886  0.00  0.00    +0.001 A 
ATOM     10  C   UNL     1       3.691   0.124   5.270  0.00  0.00    +0.017 A 
ATOM     11  C   UNL     1       2.402   0.158   4.768  0.00  0.00    +0.044 A 
ATOM     12 BR   UNL     1       1.146  -1.153   5.299  0.00  0.00    -0.048 Br
ENDBRANCH   3   6
ENDBRANCH   1   3
BRANCH   1  13
ATOM     13  C   UNL     1       1.019  -0.384   1.120  0.00  0.00    +0.142 C 
BRANCH  13  14
ATOM     14  C   UNL     1       1.799  -1.666   1.263  0.00  0.00    +0.150 C 
ATOM     15  N   UNL     1       2.907  -1.824   0.618  0.00  0.00    -0.075 NA
ATOM     16  N   UNL     1       1.331  -2.669   2.083  0.00  0.00    -0.343 N 
ATOM     17  H   UNL     1       0.499  -2.550   2.567  0.00  0.00    +0.144 HD
ATOM     18  H   UNL     1       1.833  -3.494   2.175  0.00  0.00    +0.144 HD
BRANCH  15  19
ATOM     19  O   UNL     1       3.639  -3.028   0.753  0.00  0.00    -0.408 OA
ATOM     20  H   UNL     1       4.454  -3.053   0.232  0.00  0.00    +0.328 HD
ENDBRANCH  15  19
ENDBRANCH  13  14
BRANCH  13  22
ATOM     21  C   UNL     1      -0.574   0.875  -0.336  0.00  0.00    +0.006 C 
ATOM     22  C   UNL     1       0.118  -0.471  -0.114  0.00  0.00    +0.025 C 
ENDBRANCH  13  22
ENDBRANCH   1  13
TORSDOF 6
