REMARK  Name = ZINC36055680
REMARK  5 active torsions:
REMARK  status: ('A' for Active; 'I' for Inactive)
REMARK    1  A    between atoms: C_1  and  C_2
REMARK    2  A    between atoms: C_7  and  C_8
REMARK    3  A    between atoms: C_21  and  C_24
REMARK    4  A    between atoms: C_24  and  O_26
REMARK    5  A    between atoms: O_26  and  C_27
REMARK                            x       y       z     vdW  Elec       q    Type
REMARK                         _______ _______ _______ _____ _____    ______ ____
ROOT
ATOM      1  C   UNL     1       0.025   0.045   2.504  0.00  0.00    +0.132 C 
ATOM      2  C   UNL     1      -1.394   0.376   2.902  0.00  0.00    +0.042 A 
ATOM      3  C   UNL     1      -1.859   0.228   4.164  0.00  0.00    -0.015 A 
ATOM      4  C   UNL     1      -3.245   0.638   4.158  0.00  0.00    +0.003 A 
ATOM      5  C   UNL     1      -4.223   0.700   5.156  0.00  0.00    +0.010 A 
ATOM      6  C   UNL     1      -5.465   1.151   4.783  0.00  0.00    +0.001 A 
ATOM      7  C   UNL     1      -5.750   1.529   3.481  0.00  0.00    +0.002 A 
ATOM      8  C   UNL     1      -4.803   1.478   2.473  0.00  0.00    +0.026 A 
ATOM      9  C   UNL     1      -3.532   1.025   2.823  0.00  0.00    +0.047 A 
ATOM     10  N   UNL     1      -2.389   0.854   2.095  0.00  0.00    -0.356 N 
ATOM     11  H   UNL     1      -2.298   1.043   1.148  0.00  0.00    +0.166 HD
ATOM     12  C   UNL     1      -1.016  -0.277   5.307  0.00  0.00    +0.067 C 
ATOM     13  C   UNL     1       0.457  -0.194   4.883  0.00  0.00    +0.169 C 
ATOM     14  N   UNL     1       0.624  -0.797   3.553  0.00  0.00    -0.292 NA
ATOM     15  H   UNL     1       0.240  -1.730   3.530  0.00  0.00    +0.124 HD
ENDROOT
BRANCH   1  22
ATOM     16  C   UNL     1      -0.018   1.503   0.010  0.00  0.00    +0.044 C 
ATOM     17  C   UNL     1       0.002  -0.004   0.002  0.00  0.00    -0.045 A 
ATOM     18  C   UNL     1       0.006  -0.689  -1.199  0.00  0.00    +0.004 A 
ATOM     19  C   UNL     1       0.025  -2.071  -1.207  0.00  0.00    +0.000 A 
ATOM     20  C   UNL     1       0.040  -2.768  -0.013  0.00  0.00    +0.000 A 
ATOM     21  C   UNL     1       0.037  -2.084   1.188  0.00  0.00    +0.006 A 
ATOM     22  C   UNL     1       0.023  -0.702   1.195  0.00  0.00    -0.022 A 
ENDBRANCH   1  22
BRANCH  13  23
ATOM     23  C   UNL     1       1.309  -0.936   5.880  0.00  0.00    +0.324 C 
ATOM     24  O   UNL     1       1.690  -2.056   5.634  0.00  0.00    -0.249 OA
BRANCH  23  25
ATOM     25  O   UNL     1       1.645  -0.353   7.042  0.00  0.00    -0.467 OA
ATOM     26  C   UNL     1       2.455  -1.115   7.940  0.00  0.00    +0.280 C 
ENDBRANCH  23  25
ENDBRANCH  13  23
TORSDOF 3
