REMARK  Name = ZINC36257698
REMARK  12 active torsions:
REMARK  status: ('A' for Active; 'I' for Inactive)
REMARK    1  A    between atoms: C_1  and  C_2
REMARK    2  A    between atoms: C_2  and  O_3
REMARK    3  A    between atoms: O_3  and  C_4
REMARK    4  A    between atoms: C_7  and  N_10
REMARK    5  A    between atoms: N_10  and  C_11
REMARK    6  A    between atoms: C_12  and  C_27
REMARK    7  A    between atoms: C_16  and  C_17
REMARK    8  A    between atoms: C_20  and  O_25
REMARK    9  A    between atoms: C_21  and  O_24
REMARK   10  A    between atoms: C_22  and  O_23
REMARK   11  A    between atoms: C_27  and  O_29
REMARK   12  A    between atoms: O_29  and  C_30
REMARK                            x       y       z     vdW  Elec       q    Type
REMARK                         _______ _______ _______ _____ _____    ______ ____
ROOT
ATOM      1  C   UNL     1       1.263  -6.571   3.269  0.00  0.00    +0.088 C 
ATOM      2  C   UNL     1       1.474  -7.905   3.631  0.00  0.00    +0.134 C 
ATOM      3  C   UNL     1       2.463  -8.178   4.643  0.00  0.00    +0.209 C 
ATOM      4  O   UNL     1       2.715  -9.310   5.021  0.00  0.00    -0.286 OA
ATOM      5  C   UNL     1       3.150  -6.997   5.189  0.00  0.00    +0.062 C 
ATOM      6  C   UNL     1       4.117  -6.943   6.142  0.00  0.00    +0.030 C 
ATOM      7  S   UNL     1       2.402  -5.655   4.285  0.00  0.00    -0.069 S 
ENDROOT
BRANCH   6   8
ATOM      8  C   UNL     1       4.715  -8.181   6.650  0.00  0.00    +0.021 A 
ATOM      9  C   UNL     1       4.987  -9.242   5.776  0.00  0.00    +0.015 A 
ATOM     10  C   UNL     1       5.548 -10.402   6.256  0.00  0.00    +0.050 A 
ATOM     11  C   UNL     1       5.847 -10.530   7.609  0.00  0.00    +0.162 A 
ATOM     12  C   UNL     1       5.582  -9.485   8.488  0.00  0.00    +0.201 A 
ATOM     13  C   UNL     1       5.022  -8.307   8.016  0.00  0.00    +0.169 A 
BRANCH  13  14
ATOM     14  O   UNL     1       4.767  -7.283   8.870  0.00  0.00    -0.503 OA
ATOM     15  H   UNL     1       3.886  -7.313   9.269  0.00  0.00    +0.292 HD
ENDBRANCH  13  14
BRANCH  12  16
ATOM     16  O   UNL     1       5.877  -9.616   9.810  0.00  0.00    -0.501 OA
ATOM     17  H   UNL     1       6.769  -9.325  10.045  0.00  0.00    +0.292 HD
ENDBRANCH  12  16
BRANCH  11  18
ATOM     18  O   UNL     1       6.401 -11.680   8.073  0.00  0.00    -0.503 OA
ATOM     19  H   UNL     1       7.367 -11.685   8.060  0.00  0.00    +0.292 HD
ENDBRANCH  11  18
ENDBRANCH   6   8
BRANCH   1  20
ATOM     20  N   UNL     1       0.385  -6.082   2.341  0.00  0.00    -0.308 N 
ATOM     21  H   UNL     1      -0.123  -6.693   1.784  0.00  0.00    +0.153 HD
BRANCH  20  25
ATOM     22  C   UNL     1      -0.113  -1.966   1.908  0.00  0.00    +0.121 A 
ATOM     23  C   UNL     1      -0.177  -2.792   0.796  0.00  0.00    +0.047 A 
ATOM     24  C   UNL     1      -0.012  -4.156   0.938  0.00  0.00    +0.027 A 
ATOM     25  C   UNL     1       0.218  -4.700   2.195  0.00  0.00    +0.032 A 
ATOM     26  C   UNL     1       0.282  -3.871   3.308  0.00  0.00    +0.027 A 
ATOM     27  C   UNL     1       0.123  -2.507   3.163  0.00  0.00    +0.047 A 
BRANCH  22  28
ATOM     28  O   UNL     1      -0.275  -0.623   1.767  0.00  0.00    -0.492 OA
BRANCH  28  30
ATOM     29  C   UNL     1      -0.669   1.388   0.485  0.00  0.00    +0.048 C 
ATOM     30  C   UNL     1      -0.514  -0.134   0.446  0.00  0.00    +0.225 C 
ENDBRANCH  28  30
ENDBRANCH  22  28
ENDBRANCH  20  25
ENDBRANCH   1  20
BRANCH   2  31
ATOM     31  C   UNL     1       0.740  -8.955   3.023  0.00  0.00    +0.345 C 
ATOM     32  O   UNL     1      -0.091  -8.702   2.170  0.00  0.00    -0.245 OA
BRANCH  31  33
ATOM     33  O   UNL     1       0.962 -10.234   3.389  0.00  0.00    -0.464 OA
ATOM     34  C   UNL     1       0.186 -11.241   2.735  0.00  0.00    +0.280 C 
ENDBRANCH  31  33
ENDBRANCH   2  31
TORSDOF 10
