REMARK  Name = ZINC01463192
REMARK  9 active torsions:
REMARK  status: ('A' for Active; 'I' for Inactive)
REMARK    1  A    between atoms: C_1  and  O_2
REMARK    2  A    between atoms: O_2  and  C_3
REMARK    3  A    between atoms: C_6  and  C_11
REMARK    4  A    between atoms: C_8  and  O_9
REMARK    5  A    between atoms: O_9  and  C_10
REMARK    6  A    between atoms: C_12  and  C_21
REMARK    7  A    between atoms: C_21  and  C_23
REMARK    8  A    between atoms: C_21  and  C_27
REMARK    9  A    between atoms: C_23  and  N_24
REMARK                            x       y       z     vdW  Elec       q    Type
REMARK                         _______ _______ _______ _____ _____    ______ ____
ROOT
ATOM      1  C   UNL     1      -1.545   1.469  -2.004  0.00  0.00    +0.051 A 
ATOM      2  C   UNL     1      -0.730   1.923  -1.019  0.00  0.00    -0.005 A 
ATOM      3  C   UNL     1      -0.686   3.379  -1.140  0.00  0.00    +0.004 A 
ATOM      4  C   UNL     1      -0.026   4.389  -0.434  0.00  0.00    +0.010 A 
ATOM      5  C   UNL     1      -0.186   5.694  -0.807  0.00  0.00    +0.001 A 
ATOM      6  C   UNL     1      -0.995   6.024  -1.886  0.00  0.00    +0.002 A 
ATOM      7  C   UNL     1      -1.650   5.044  -2.600  0.00  0.00    +0.026 A 
ATOM      8  C   UNL     1      -1.502   3.709  -2.239  0.00  0.00    +0.047 A 
ATOM      9  N   UNL     1      -2.013   2.533  -2.741  0.00  0.00    -0.354 N 
ATOM     10  H   UNL     1      -2.613   2.464  -3.500  0.00  0.00    +0.166 HD
ENDROOT
BRANCH   1  14
ATOM     11  C   UNL     1      -2.499  -2.615  -2.707  0.00  0.00    +0.162 A 
ATOM     12  C   UNL     1      -1.187  -2.242  -2.458  0.00  0.00    +0.050 A 
ATOM     13  C   UNL     1      -0.873  -0.918  -2.234  0.00  0.00    +0.014 A 
ATOM     14  C   UNL     1      -1.879   0.050  -2.248  0.00  0.00    +0.002 A 
ATOM     15  C   UNL     1      -3.200  -0.325  -2.499  0.00  0.00    +0.059 A 
ATOM     16  C   UNL     1      -3.507  -1.654  -2.728  0.00  0.00    +0.162 A 
BRANCH  11  18
ATOM     17  C   UNL     1      -1.721  -4.854  -2.896  0.00  0.00    +0.277 C 
ATOM     18  O   UNL     1      -2.803  -3.921  -2.932  0.00  0.00    -0.491 OA
ENDBRANCH  11  18
BRANCH  16  19
ATOM     19  O   UNL     1      -4.793  -2.022  -2.972  0.00  0.00    -0.491 OA
ATOM     20  C   UNL     1      -5.775  -0.984  -2.979  0.00  0.00    +0.277 C 
ENDBRANCH  16  19
ENDBRANCH   1  14
BRANCH   2  21
ATOM     21  C   UNL     1      -0.013   1.086   0.008  0.00  0.00    +0.078 C 
BRANCH  21  22
ATOM     22  C   UNL     1      -0.681   1.254   1.348  0.00  0.00    -0.038 A 
ATOM     23  C   UNL     1      -0.849   2.517   1.884  0.00  0.00    +0.004 A 
ATOM     24  C   UNL     1      -1.466   2.671   3.111  0.00  0.00    +0.000 A 
ATOM     25  C   UNL     1      -1.906   1.561   3.808  0.00  0.00    +0.000 A 
ATOM     26  C   UNL     1      -1.733   0.297   3.275  0.00  0.00    +0.000 A 
ATOM     27  C   UNL     1      -1.120   0.143   2.045  0.00  0.00    +0.004 A 
ENDBRANCH  21  22
BRANCH  21  28
ATOM     28  C   UNL     1       1.446   1.537   0.105  0.00  0.00    +0.224 C 
BRANCH  28  29
ATOM     29  N   UNL     1       2.173   0.648   1.015  0.00  0.00    +0.023 N 
ATOM     30  O   UNL     1       3.274   0.229   0.706  0.00  0.00    -0.132 OA
ATOM     31  O   UNL     1       1.676   0.328   2.080  0.00  0.00    -0.132 OA
ENDBRANCH  28  29
ENDBRANCH  21  28
ENDBRANCH   2  21
TORSDOF 7
