REMARK  Name = ZINC53106304
REMARK  5 active torsions:
REMARK  status: ('A' for Active; 'I' for Inactive)
REMARK    1  A    between atoms: C_1  and  C_2
REMARK    2  A    between atoms: C_7  and  C_9
REMARK    3  A    between atoms: C_7  and  N_11
REMARK    4  A    between atoms: C_9  and  O_10
REMARK    5  A    between atoms: C_12  and  C_14
REMARK                            x       y       z     vdW  Elec       q    Type
REMARK                         _______ _______ _______ _____ _____    ______ ____
ROOT
ATOM      1  N   UNL     1       1.978   1.379   1.434  0.00  0.00    -0.307 N 
ATOM      2  C   UNL     1       3.213   1.907   1.320  0.00  0.00    +0.218 C 
ATOM      3  O   UNL     1       4.163   1.186   1.101  0.00  0.00    -0.275 OA
ATOM      4  H   UNL     1       1.230   1.944   1.685  0.00  0.00    +0.149 HD
ENDROOT
BRANCH   2   5
ATOM      5  C   UNL     1       3.413   3.394   1.463  0.00  0.00    +0.092 C 
ATOM      6  C   UNL     1       4.896   3.729   1.292  0.00  0.00    +0.016 C 
ATOM      7  C   UNL     1       5.096   5.242   1.405  0.00  0.00    +0.020 C 
ATOM      8  C   UNL     1       4.651   5.710   2.794  0.00  0.00    +0.109 C 
ATOM      9  N   UNL     1       3.270   5.264   3.023  0.00  0.00    -0.285 N 
ATOM     10  C   UNL     1       2.948   3.841   2.852  0.00  0.00    +0.122 C 
ATOM     11  C   UNL     1       2.316   6.145   3.384  0.00  0.00    +0.300 C 
ATOM     12  O   UNL     1       1.200   5.752   3.664  0.00  0.00    -0.253 OA
ATOM     13  N   UNL     1       2.598   7.462   3.433  0.00  0.00    -0.313 N 
ATOM     14  H   UNL     1       3.464   7.784   3.138  0.00  0.00    +0.146 HD
ATOM     15  H   UNL     1       1.935   8.088   3.764  0.00  0.00    +0.146 HD
ENDBRANCH   2   5
BRANCH   1  21
ATOM     16  C   UNL     1       2.285   0.963   3.879  0.00  0.00    +0.007 C 
ATOM     17  C   UNL     1       2.063  -0.528   3.612  0.00  0.00    -0.012 C 
ATOM     18  C   UNL     1       0.572  -0.850   3.731  0.00  0.00    +0.003 C 
ATOM     19  C   UNL     1      -0.211  -0.026   2.707  0.00  0.00    +0.002 C 
ATOM     20  C   UNL     1       0.274  -0.369   1.298  0.00  0.00    +0.028 C 
ATOM     21  C   UNL     1       1.765  -0.047   1.179  0.00  0.00    +0.058 C 
ATOM     22  C   UNL     1       2.548  -0.871   2.203  0.00  0.00    +0.031 C 
BRANCH  21  23
ATOM     23  C   UNL     1       2.250  -0.391  -0.231  0.00  0.00    +0.181 C 
BRANCH  23  24
ATOM     24  O   UNL     1       1.505   0.364  -1.189  0.00  0.00    -0.393 OA
ATOM     25  H   UNL     1       1.760   0.196  -2.106  0.00  0.00    +0.209 HD
ENDBRANCH  23  24
ENDBRANCH  21  23
ENDBRANCH   1  21
TORSDOF 4
