REMARK  Name = ZINC08660818
REMARK  5 active torsions:
REMARK  status: ('A' for Active; 'I' for Inactive)
REMARK    1  A    between atoms: C_6  and  C_7
REMARK    2  A    between atoms: C_10  and  C_28
REMARK    3  A    between atoms: C_15  and  C_17
REMARK    4  A    between atoms: N_19  and  C_20
REMARK    5  A    between atoms: C_20  and  C_21
REMARK                            x       y       z     vdW  Elec       q    Type
REMARK                         _______ _______ _______ _____ _____    ______ ____
ROOT
ATOM      1  C   UNL     1      -1.293  -0.775   0.011  0.00  0.00    +0.104 C 
ATOM      2  C   UNL     1      -1.616  -1.254  -1.409  0.00  0.00    +0.063 C 
ATOM      3  C   UNL     1      -0.456  -2.095  -1.953  0.00  0.00    +0.215 C 
ATOM      4  N   UNL     1      -0.099  -3.111  -0.960  0.00  0.00    -0.238 N 
ATOM      5  C   UNL     1      -0.439  -3.032   0.361  0.00  0.00    +0.119 A 
ATOM      6  C   UNL     1       0.041  -4.126   0.985  0.00  0.00    +0.078 A 
ATOM      7  C   UNL     1       0.704  -4.913   0.016  0.00  0.00    +0.149 A 
ATOM      8  N   UNL     1       0.614  -4.294  -1.149  0.00  0.00    -0.164 NA
ATOM      9  N   UNL     1      -1.162  -1.954   0.890  0.00  0.00    -0.322 N 
ATOM     10  H   UNL     1      -1.555  -1.979   1.776  0.00  0.00    +0.148 HD
ENDROOT
BRANCH   1  16
ATOM     11  C   UNL     1      -0.017   1.378   0.010  0.00  0.00    +0.007 A 
ATOM     12  C   UNL     1       1.171   2.086   0.002  0.00  0.00    +0.020 A 
ATOM     13  C   UNL     1       2.378   1.410  -0.013  0.00  0.00    +0.041 A 
ATOM     14  C   UNL     1       2.396   0.027  -0.021  0.00  0.00    +0.020 A 
ATOM     15  C   UNL     1       1.208  -0.679  -0.013  0.00  0.00    +0.007 A 
ATOM     16  C   UNL     1       0.002  -0.004   0.002  0.00  0.00    -0.027 A 
ATOM     17 CL   UNL     1       3.870   2.298  -0.023  0.00  0.00    -0.084 Cl
ENDBRANCH   1  16
BRANCH   7  18
ATOM     18  C   UNL     1       1.379  -6.204   0.262  0.00  0.00    +0.264 C 
ATOM     19  O   UNL     1       1.396  -6.677   1.381  0.00  0.00    -0.268 OA
ATOM     20  N   UNL     1       1.977  -6.856  -0.755  0.00  0.00    -0.308 N 
ATOM     21  H   UNL     1       1.964  -6.478  -1.648  0.00  0.00    +0.149 HD
BRANCH  20  22
ATOM     22  C   UNL     1       2.647  -8.136  -0.511  0.00  0.00    +0.136 C 
BRANCH  22  23
ATOM     23  C   UNL     1       3.238  -8.660  -1.822  0.00  0.00    +0.135 C 
ATOM     24  C   UNL     1       3.841 -10.063  -1.600  0.00  0.00    +0.035 C 
ATOM     25  C   UNL     1       5.130 -10.009  -2.464  0.00  0.00    +0.031 C 
ATOM     26  C   UNL     1       5.536  -8.523  -2.293  0.00  0.00    +0.160 C 
ATOM     27  O   UNL     1       4.295  -7.797  -2.257  0.00  0.00    -0.375 OA
ENDBRANCH  22  23
ENDBRANCH  20  22
ENDBRANCH   7  18
BRANCH   3  28
ATOM     28  C   UNL     1      -0.882  -2.775  -3.256  0.00  0.00    +0.412 C 
ATOM     29  F   UNL     1      -1.233  -1.801  -4.197  0.00  0.00    -0.168 F 
ATOM     30  F   UNL     1       0.178  -3.541  -3.751  0.00  0.00    -0.168 F 
ATOM     31  F   UNL     1      -1.982  -3.604  -3.010  0.00  0.00    -0.168 F 
ENDBRANCH   3  28
TORSDOF 5
