REMARK  Name = ZINC27550020
REMARK  6 active torsions:
REMARK  status: ('A' for Active; 'I' for Inactive)
REMARK    1  A    between atoms: C_6  and  S_7
REMARK    2  A    between atoms: S_7  and  N_10
REMARK    3  A    between atoms: N_13  and  C_14
REMARK    4  A    between atoms: C_14  and  C_15
REMARK    5  A    between atoms: N_17  and  C_18
REMARK    6  A    between atoms: C_19  and  C_23
REMARK                            x       y       z     vdW  Elec       q    Type
REMARK                         _______ _______ _______ _____ _____    ______ ____
ROOT
ATOM      1  C   UNL     1      -1.208   3.058   0.007  0.00  0.00    +0.030 A 
ATOM      2  C   UNL     1      -0.008   3.738   0.036  0.00  0.00    +0.025 A 
ATOM      3  C   UNL     1       1.187   3.062  -0.200  0.00  0.00    +0.033 A 
ATOM      4  C   UNL     1       1.151   1.699  -0.469  0.00  0.00    -0.023 A 
ATOM      5  C   UNL     1      -0.050   1.023  -0.495  0.00  0.00    +0.034 A 
ATOM      6  C   UNL     1      -1.233   1.702  -0.262  0.00  0.00    +0.105 A 
ATOM      7  C   UNL     1       2.574   1.230  -0.701  0.00  0.00    +0.056 C 
ATOM      8  C   UNL     1       3.339   2.554  -0.929  0.00  0.00    +0.110 C 
ATOM      9  N   UNL     1       2.504   3.539  -0.207  0.00  0.00    -0.321 N 
ENDROOT
BRANCH   6  10
ATOM     10  S   UNL     1      -2.768   0.838  -0.301  0.00  0.00    +0.056 S 
ATOM     11  O   UNL     1      -3.770   1.804  -0.591  0.00  0.00    -0.153 OA
ATOM     12  O   UNL     1      -2.566  -0.315  -1.107  0.00  0.00    -0.153 OA
BRANCH  10  13
ATOM     13  N   UNL     1      -3.064   0.296   1.235  0.00  0.00    -0.204 NA
ATOM     14  H   UNL     1      -4.019  -0.251   1.254  0.00  0.00    +0.144 HD
ATOM     15  H   UNL     1      -3.120   1.153   1.923  0.00  0.00    +0.144 HD
ENDBRANCH  10  13
ENDBRANCH   6  10
BRANCH   9  16
ATOM     16  C   UNL     1       2.582   4.861  -0.842  0.00  0.00    +0.201 C 
BRANCH  16  17
ATOM     17  C   UNL     1       4.021   5.304  -0.907  0.00  0.00    +0.235 C 
ATOM     18  O   UNL     1       4.883   4.641  -0.371  0.00  0.00    -0.274 OA
ATOM     19  N   UNL     1       4.349   6.435  -1.562  0.00  0.00    -0.278 N 
ATOM     20  H   UNL     1       3.566   7.036  -2.048  0.00  0.00    +0.155 HD
BRANCH  19  21
ATOM     21  C   UNL     1       5.674   6.843  -1.622  0.00  0.00    +0.089 A 
ATOM     22  C   UNL     1       6.205   7.964  -2.247  0.00  0.00    +0.080 A 
ATOM     23  C   UNL     1       7.632   8.149  -2.148  0.00  0.00    +0.028 A 
ATOM     24  C   UNL     1       8.327   7.217  -1.469  0.00  0.00    +0.048 A 
ATOM     25  S   UNL     1       7.068   6.073  -0.942  0.00  0.00    -0.081 S 
BRANCH  22  26
ATOM     26  C   UNL     1       5.374   8.894  -2.952  0.00  0.00    +0.102 C 
ATOM     27  N   UNL     1       4.716   9.631  -3.512  0.00  0.00    -0.191 NA
ENDBRANCH  22  26
ENDBRANCH  19  21
ENDBRANCH  16  17
ENDBRANCH   9  16
TORSDOF 6
