REMARK  Name = ZINC54750813
REMARK  5 active torsions:
REMARK  status: ('A' for Active; 'I' for Inactive)
REMARK    1  A    between atoms: C_4  and  C_6
REMARK    2  A    between atoms: N_14  and  C_15
REMARK    3  A    between atoms: C_15  and  C_16
REMARK    4  A    between atoms: C_16  and  C_17
REMARK    5  A    between atoms: N_19  and  C_20
REMARK                            x       y       z     vdW  Elec       q    Type
REMARK                         _______ _______ _______ _____ _____    ______ ____
ROOT
ATOM      1  C   UNL     1       1.128  -1.242  -1.873  0.00  0.00    +0.081 C 
ATOM      2  C   UNL     1       0.494  -2.603  -1.516  0.00  0.00    +0.024 C 
ATOM      3  C   UNL     1       1.194  -3.580  -2.495  0.00  0.00    +0.021 C 
ATOM      4  C   UNL     1       2.619  -2.978  -2.571  0.00  0.00    +0.110 C 
ATOM      5  N   UNL     1       2.414  -1.515  -2.531  0.00  0.00    -0.282 N 
ATOM      6  C   UNL     1       3.262  -0.586  -3.015  0.00  0.00    +0.302 C 
ATOM      7  O   UNL     1       3.030   0.596  -2.846  0.00  0.00    -0.253 OA
ATOM      8  N   UNL     1       4.367  -0.966  -3.685  0.00  0.00    -0.299 N 
ATOM      9  H   UNL     1       4.553  -1.909  -3.819  0.00  0.00    +0.150 HD
ENDROOT
BRANCH   1  13
ATOM     10  C   UNL     1       1.377  -1.413   1.663  0.00  0.00    +0.000 C 
ATOM     11  C   UNL     1       0.351  -0.253   1.615  0.00  0.00    +0.000 C 
ATOM     12  C   UNL     1       0.012  -0.159   0.107  0.00  0.00    +0.005 C 
ATOM     13  C   UNL     1       1.357  -0.424  -0.601  0.00  0.00    +0.010 C 
ATOM     14  C   UNL     1       2.225  -1.221   0.389  0.00  0.00    +0.005 C 
ENDBRANCH   1  13
BRANCH   8  15
ATOM     15  C   UNL     1       5.289   0.044  -4.211  0.00  0.00    +0.115 C 
BRANCH  15  16
ATOM     16  C   UNL     1       6.452  -0.649  -4.923  0.00  0.00    +0.114 C 
BRANCH  16  17
ATOM     17  C   UNL     1       7.401   0.390  -5.465  0.00  0.00    +0.215 C 
ATOM     18  O   UNL     1       7.169   1.569  -5.297  0.00  0.00    -0.276 OA
ATOM     19  N   UNL     1       8.506   0.010  -6.135  0.00  0.00    -0.312 N 
ATOM     20  H   UNL     1       8.691  -0.933  -6.269  0.00  0.00    +0.149 HD
BRANCH  19  21
ATOM     21  C   UNL     1       9.428   1.020  -6.661  0.00  0.00    +0.073 C 
ATOM     22  C   UNL     1       8.985   1.454  -8.073  0.00  0.00    +0.022 C 
ATOM     23  C   UNL     1      10.315   1.663  -8.841  0.00  0.00    +0.002 C 
ATOM     24  C   UNL     1      11.203   0.513  -8.303  0.00  0.00    +0.002 C 
ATOM     25  C   UNL     1      10.838   0.421  -6.807  0.00  0.00    +0.022 C 
ENDBRANCH  19  21
ENDBRANCH  16  17
ENDBRANCH  15  16
ENDBRANCH   8  15
TORSDOF 5
