REMARK  Name = ZINC17861394
REMARK  2 active torsions:
REMARK  status: ('A' for Active; 'I' for Inactive)
REMARK    1  A    between atoms: C_4  and  N_7
REMARK    2  A    between atoms: C_23  and  C_29
REMARK                            x       y       z     vdW  Elec       q    Type
REMARK                         _______ _______ _______ _____ _____    ______ ____
ROOT
ATOM      1  N   UNL     1       3.624  -0.652  -0.037  0.00  0.00    -0.210 N 
ATOM      2  C   UNL     1       4.807  -0.027  -0.139  0.00  0.00    +0.232 C 
ATOM      3  O   UNL     1       4.969   1.152  -0.371  0.00  0.00    -0.274 OA
ATOM      4  C   UNL     1       5.909  -1.050   0.089  0.00  0.00    +0.114 C 
ATOM      5  C   UNL     1       6.214  -1.106   1.591  0.00  0.00    +0.110 C 
ATOM      6  C   UNL     1       7.572  -0.540   1.902  0.00  0.00    -0.003 C 
ATOM      7  C   UNL     1       8.295  -1.041   2.901  0.00  0.00    +0.007 C 
ATOM      8  C   UNL     1       7.786  -2.159   3.719  0.00  0.00    -0.004 A 
ATOM      9  C   UNL     1       8.332  -2.472   4.958  0.00  0.00    +0.010 A 
ATOM     10  C   UNL     1       7.829  -3.540   5.676  0.00  0.00    +0.001 A 
ATOM     11  C   UNL     1       6.787  -4.301   5.173  0.00  0.00    +0.002 A 
ATOM     12  C   UNL     1       6.229  -3.997   3.942  0.00  0.00    +0.024 A 
ATOM     13  C   UNL     1       6.717  -2.931   3.221  0.00  0.00    +0.038 A 
ATOM     14  N   UNL     1       6.198  -2.524   1.994  0.00  0.00    -0.310 N 
ATOM     15  C   UNL     1       5.651  -3.336   0.914  0.00  0.00    +0.177 C 
ATOM     16  C   UNL     1       5.154  -2.383  -0.206  0.00  0.00    +0.119 C 
ATOM     17  C   UNL     1       3.715  -1.989   0.053  0.00  0.00    +0.232 C 
ATOM     18  O   UNL     1       2.803  -2.749   0.296  0.00  0.00    -0.274 OA
ENDROOT
BRANCH  15  19
ATOM     19  C   UNL     1       4.509  -4.171   1.432  0.00  0.00    +0.270 C 
ATOM     20  O   UNL     1       3.962  -3.872   2.467  0.00  0.00    -0.269 OA
ATOM     21  N   UNL     1       4.096  -5.252   0.740  0.00  0.00    -0.178 N 
ATOM     22  C   UNL     1       3.066  -6.107   1.080  0.00  0.00    +0.098 A 
ATOM     23  C   UNL     1       2.172  -6.167   2.141  0.00  0.00    +0.030 A 
ATOM     24  C   UNL     1       1.236  -7.176   2.189  0.00  0.00    +0.002 A 
ATOM     25  C   UNL     1       1.182  -8.133   1.184  0.00  0.00    +0.002 A 
ATOM     26  C   UNL     1       2.053  -8.091   0.134  0.00  0.00    +0.032 A 
ATOM     27  C   UNL     1       3.013  -7.074   0.062  0.00  0.00    +0.113 A 
ATOM     28  N   UNL     1       3.985  -6.780  -0.835  0.00  0.00    -0.129 NA
ATOM     29  N   UNL     1       4.625  -5.725  -0.470  0.00  0.00    -0.057 NA
ENDBRANCH  15  19
BRANCH   1  33
ATOM     30  C   UNL     1      -0.016   1.380   0.010  0.00  0.00    +0.000 A 
ATOM     31  C   UNL     1       0.871   1.527   1.061  0.00  0.00    +0.002 A 
ATOM     32  C   UNL     1       2.077   0.856   1.048  0.00  0.00    +0.024 A 
ATOM     33  C   UNL     1       2.399   0.031  -0.021  0.00  0.00    +0.044 A 
ATOM     34  C   UNL     1       1.507  -0.116  -1.075  0.00  0.00    +0.024 A 
ATOM     35  C   UNL     1       0.302   0.559  -1.056  0.00  0.00    +0.002 A 
ENDBRANCH   1  33
TORSDOF 2
