REMARK  Name = ZINC44695362
REMARK  6 active torsions:
REMARK  status: ('A' for Active; 'I' for Inactive)
REMARK    1  A    between atoms: C_4  and  C_7
REMARK    2  A    between atoms: C_7  and  C_9
REMARK    3  A    between atoms: C_7  and  N_12
REMARK    4  A    between atoms: C_13  and  C_15
REMARK    5  A    between atoms: C_18  and  S_21
REMARK    6  A    between atoms: S_21  and  C_24
REMARK                            x       y       z     vdW  Elec       q    Type
REMARK                         _______ _______ _______ _____ _____    ______ ____
ROOT
ATOM      1  N   UNL     1       3.630  -1.873   0.845  0.00  0.00    -0.296 N 
ATOM      2  C   UNL     1       4.751  -2.385   1.391  0.00  0.00    +0.245 C 
ATOM      3  O   UNL     1       5.830  -1.879   1.150  0.00  0.00    -0.270 OA
ATOM      4  H   UNL     1       2.769  -2.277   1.038  0.00  0.00    +0.150 HD
ENDROOT
BRANCH   2   5
ATOM      5  C   UNL     1       4.670  -3.562   2.282  0.00  0.00    +0.037 A 
ATOM      6  C   UNL     1       3.433  -4.149   2.556  0.00  0.00    +0.015 A 
ATOM      7  C   UNL     1       3.364  -5.247   3.388  0.00  0.00    +0.028 A 
ATOM      8  C   UNL     1       4.516  -5.767   3.950  0.00  0.00    +0.098 A 
ATOM      9  C   UNL     1       5.745  -5.189   3.683  0.00  0.00    +0.028 A 
ATOM     10  C   UNL     1       5.829  -4.094   2.848  0.00  0.00    +0.015 A 
BRANCH   8  11
ATOM     11  S   UNL     1       4.419  -7.169   5.012  0.00  0.00    +0.091 S 
ATOM     12  O   UNL     1       5.556  -7.064   5.858  0.00  0.00    -0.161 OA
ATOM     13  O   UNL     1       3.106  -7.123   5.554  0.00  0.00    -0.161 OA
BRANCH  11  14
ATOM     14  C   UNL     1       4.590  -8.601   3.911  0.00  0.00    +0.526 C 
ATOM     15  F   UNL     1       5.822  -8.536   3.251  0.00  0.00    -0.150 F 
ATOM     16  F   UNL     1       4.526  -9.778   4.663  0.00  0.00    -0.150 F 
ATOM     17  F   UNL     1       3.556  -8.591   2.969  0.00  0.00    -0.150 F 
ENDBRANCH  11  14
ENDBRANCH   8  11
ENDBRANCH   2   5
BRANCH   1  18
ATOM     18  C   UNL     1       3.711  -0.707  -0.038  0.00  0.00    +0.189 C 
BRANCH  18  22
ATOM     19  C   UNL     1      -0.017   1.378   0.010  0.00  0.00    +0.000 A 
ATOM     20  C   UNL     1       1.171   2.086   0.002  0.00  0.00    +0.000 A 
ATOM     21  C   UNL     1       2.377   1.411  -0.013  0.00  0.00    +0.006 A 
ATOM     22  C   UNL     1       2.396   0.029  -0.020  0.00  0.00    -0.018 A 
ATOM     23  C   UNL     1       1.208  -0.679  -0.012  0.00  0.00    +0.006 A 
ATOM     24  C   UNL     1       0.002  -0.004   0.002  0.00  0.00    +0.000 A 
ENDBRANCH  18  22
BRANCH  18  25
ATOM     25  C   UNL     1       4.014  -1.161  -1.442  0.00  0.00    +0.235 C 
ATOM     26  O   UNL     1       4.150  -2.342  -1.682  0.00  0.00    -0.274 OA
ATOM     27  N   UNL     1       4.136  -0.254  -2.432  0.00  0.00    -0.328 N 
ATOM     28  H   UNL     1       4.027   0.691  -2.240  0.00  0.00    +0.145 HD
ATOM     29  H   UNL     1       4.331  -0.546  -3.336  0.00  0.00    +0.145 HD
ENDBRANCH  18  25
ENDBRANCH   1  18
TORSDOF 6
