REMARK  Name = ZINC35442522
REMARK  11 active torsions:
REMARK  status: ('A' for Active; 'I' for Inactive)
REMARK    1  A    between atoms: C_1  and  C_2
REMARK    2  A    between atoms: C_2  and  N_3
REMARK    3  A    between atoms: N_3  and  C_4
REMARK    4  A    between atoms: C_4  and  C_5
REMARK    5  A    between atoms: C_6  and  C_8
REMARK    6  A    between atoms: C_8  and  C_9
REMARK    7  A    between atoms: C_9  and  C_10
REMARK    8  A    between atoms: N_20  and  C_21
REMARK    9  A    between atoms: N_24  and  C_25
REMARK   10  A    between atoms: C_25  and  C_26
REMARK   11  A    between atoms: C_29  and  C_32
REMARK                            x       y       z     vdW  Elec       q    Type
REMARK                         _______ _______ _______ _____ _____    ______ ____
ROOT
ATOM      1  C   UNL     1       0.426  -1.844  -5.904  0.00  0.00    -0.051 C 
ATOM      2  C   UNL     1      -0.501  -2.117  -7.063  0.00  0.00    +0.089 C 
ATOM      3  N   UNL     1       0.137  -2.944  -8.068  0.00  0.00    -0.316 N 
ATOM      4  C   UNL     1       1.392  -2.927  -8.438  0.00  0.00    +0.229 C 
ATOM      5  O   UNL     1       1.682  -3.857  -9.161  0.00  0.00    -0.274 OA
ATOM      6  C   UNL     1       2.520  -2.040  -8.176  0.00  0.00    +0.130 C 
ATOM      7  C   UNL     1       2.693  -1.530  -6.741  0.00  0.00    -0.041 C 
ATOM      8  N   UNL     1       1.493  -0.940  -6.221  0.00  0.00    +0.384 N 
ATOM      9  C   UNL     1       1.838  -0.193  -5.004  0.00  0.00    -0.095 C 
ATOM     10  C   UNL     1       3.747  -0.401  -6.926  0.00  0.00    +0.002 C 
ATOM     11  C   UNL     1       3.618   0.023  -8.403  0.00  0.00    +0.084 C 
ATOM     12  N   UNL     1       2.550  -0.814  -8.995  0.00  0.00    -0.289 NA
ATOM     13  H   UNL     1      -0.433  -3.585  -8.520  0.00  0.00    +0.149 HD
ATOM     14  H   UNL     1       1.153  -0.279  -6.904  0.00  0.00    -0.081 HD
ENDROOT
BRANCH   1  15
ATOM     15  C   UNL     1      -0.391  -1.252  -4.753  0.00  0.00    -0.005 C 
BRANCH  15  16
ATOM     16  C   UNL     1      -1.522  -2.213  -4.383  0.00  0.00    +0.094 C 
BRANCH  16  18
ATOM     17  N   UNL     1      -3.283  -2.383  -2.655  0.00  0.00    -0.302 N 
ATOM     18  C   UNL     1      -2.243  -1.694  -3.166  0.00  0.00    +0.215 C 
ATOM     19  O   UNL     1      -1.889  -0.658  -2.646  0.00  0.00    -0.276 OA
BRANCH  17  21
ATOM     20  C   UNL     1      -3.325  -2.438  -0.210  0.00  0.00    +0.024 C 
ATOM     21  C   UNL     1      -3.985  -1.879  -1.472  0.00  0.00    +0.104 C 
ENDBRANCH  17  21
BRANCH  17  22
ATOM     22  C   UNL     1      -3.712  -3.635  -3.282  0.00  0.00    +0.104 C 
ATOM     23  C   UNL     1      -4.766  -3.336  -4.351  0.00  0.00    +0.024 C 
ENDBRANCH  17  22
ENDBRANCH  16  18
ENDBRANCH  15  16
ENDBRANCH   1  15
BRANCH  12  24
ATOM     24  C   UNL     1       2.860  -1.125 -10.397  0.00  0.00    +0.120 C 
BRANCH  24  25
ATOM     25  C   UNL     1       2.642   0.103 -11.244  0.00  0.00    -0.033 A 
ATOM     26  C   UNL     1       1.402   0.343 -11.807  0.00  0.00    +0.005 A 
ATOM     27  C   UNL     1       1.202   1.469 -12.583  0.00  0.00    +0.012 A 
ATOM     28  C   UNL     1       2.242   2.355 -12.796  0.00  0.00    +0.055 A 
ATOM     29  C   UNL     1       3.481   2.116 -12.233  0.00  0.00    +0.012 A 
ATOM     30  C   UNL     1       3.680   0.992 -11.453  0.00  0.00    +0.005 A 
BRANCH  28  31
ATOM     31  C   UNL     1       2.024   3.582 -13.644  0.00  0.00    +0.417 C 
ATOM     32  F   UNL     1       1.599   4.640 -12.833  0.00  0.00    -0.166 F 
ATOM     33  F   UNL     1       3.222   3.932 -14.275  0.00  0.00    -0.166 F 
ATOM     34  F   UNL     1       1.048   3.314 -14.610  0.00  0.00    -0.166 F 
ENDBRANCH  28  31
ENDBRANCH  24  25
ENDBRANCH  12  24
TORSDOF 8
