REMARK  Name = ZINC03670396
REMARK  9 active torsions:
REMARK  status: ('A' for Active; 'I' for Inactive)
REMARK    1  A    between atoms: C_1  and  C_2
REMARK    2  A    between atoms: C_7  and  C_8
REMARK    3  A    between atoms: C_7  and  N_64
REMARK    4  A    between atoms: C_8  and  C_10
REMARK    5  A    between atoms: C_8  and  C_11
REMARK    6  A    between atoms: C_11  and  N_12
REMARK    7  A    between atoms: C_13  and  C_15
REMARK    8  A    between atoms: C_15  and  O_34
REMARK    9  A    between atoms: N_25  and  C_26
REMARK                            x       y       z     vdW  Elec       q    Type
REMARK                         _______ _______ _______ _____ _____    ______ ____
ROOT
ATOM      1  C   UNL     1       1.849   0.699  -0.124  0.00  0.00    +0.247 C 
ATOM      2  C   UNL     1       1.962  -0.147   1.124  0.00  0.00    +0.033 A 
ATOM      3  C   UNL     1       1.315   0.204   2.286  0.00  0.00    +0.010 A 
ATOM      4  C   UNL     1       1.442  -0.595   3.410  0.00  0.00    +0.001 A 
ATOM      5  C   UNL     1       2.214  -1.740   3.362  0.00  0.00    +0.002 A 
ATOM      6  C   UNL     1       2.864  -2.095   2.196  0.00  0.00    +0.024 A 
ATOM      7  C   UNL     1       2.741  -1.297   1.066  0.00  0.00    +0.043 A 
ATOM      8  N   UNL     1       3.389  -1.638  -0.121  0.00  0.00    -0.269 N 
ATOM      9  C   UNL     1       3.301  -0.902  -1.237  0.00  0.00    +0.314 C 
ATOM     10  O   UNL     1       3.900  -1.276  -2.227  0.00  0.00    -0.252 OA
ATOM     11  N   UNL     1       2.581   0.232  -1.313  0.00  0.00    -0.214 N 
ATOM     12  H   UNL     1       3.928  -2.444  -0.140  0.00  0.00    +0.156 HD
ENDROOT
BRANCH  11  13
ATOM     13  C   UNL     1       2.528   0.958  -2.509  0.00  0.00    +0.043 A 
ATOM     14  C   UNL     1       3.399   2.020  -2.716  0.00  0.00    +0.025 A 
ATOM     15  C   UNL     1       3.345   2.736  -3.896  0.00  0.00    +0.023 A 
ATOM     16  C   UNL     1       2.425   2.396  -4.872  0.00  0.00    +0.059 A 
ATOM     17  C   UNL     1       1.555   1.338  -4.668  0.00  0.00    +0.061 A 
ATOM     18  C   UNL     1       1.609   0.615  -3.491  0.00  0.00    +0.045 A 
ATOM     19 CL   UNL     1       0.402   0.914  -5.894  0.00  0.00    -0.082 Cl
ATOM     20 CL   UNL     1       2.360   3.297  -6.354  0.00  0.00    -0.082 Cl
ENDBRANCH  11  13
BRANCH   1  22
ATOM     21  N   UNL     1      -0.316  -0.316  -0.758  0.00  0.00    -0.311 N 
ATOM     22  C   UNL     1       0.390   0.800  -0.487  0.00  0.00    +0.269 C 
ATOM     23  O   UNL     1      -0.150   1.885  -0.534  0.00  0.00    -0.270 OA
ATOM     24  H   UNL     1       0.115  -1.184  -0.720  0.00  0.00    +0.149 HD
BRANCH  21  25
ATOM     25  C   UNL     1      -1.733  -0.217  -1.117  0.00  0.00    +0.105 C 
BRANCH  25  26
ATOM     26  C   UNL     1      -2.292  -1.617  -1.380  0.00  0.00    -0.014 C 
ATOM     27  C   UNL     1      -2.257  -2.431  -0.085  0.00  0.00    +0.007 C 
BRANCH  26  28
ATOM     28  C   UNL     1      -3.735  -1.506  -1.875  0.00  0.00    -0.074 C 
BRANCH  28  35
ATOM     29  C   UNL     1      -5.906  -6.288  -4.130  0.00  0.00    +0.007 C 
ATOM     30  C   UNL     1      -5.448  -4.842  -3.928  0.00  0.00    -0.018 C 
ATOM     31  C   UNL     1      -6.183  -4.236  -2.729  0.00  0.00    -0.016 C 
ATOM     32  C   UNL     1      -5.678  -2.811  -2.494  0.00  0.00    -0.079 C 
ATOM     33  C   UNL     1      -3.500  -3.373  -3.397  0.00  0.00    -0.079 C 
ATOM     34  C   UNL     1      -3.941  -4.815  -3.659  0.00  0.00    -0.016 C 
ATOM     35  N   UNL     1      -4.226  -2.856  -2.217  0.00  0.00    +0.380 N 
ATOM     36  H   UNL     1      -4.058  -3.484  -1.422  0.00  0.00    -0.082 HD
ENDBRANCH  28  35
ENDBRANCH  26  28
ENDBRANCH  25  26
ENDBRANCH  21  25
ENDBRANCH   1  22
BRANCH   1  37
ATOM     37  O   UNL     1       2.313   2.013   0.191  0.00  0.00    -0.360 OA
ATOM     38  H   UNL     1       1.848   2.428   0.930  0.00  0.00    +0.213 HD
ENDBRANCH   1  37
TORSDOF 7
