REMARK  Name = ZINC48234250
REMARK  4 active torsions:
REMARK  status: ('A' for Active; 'I' for Inactive)
REMARK    1  A    between atoms: N_10  and  C_11
REMARK    2  A    between atoms: N_20  and  C_21
REMARK    3  A    between atoms: C_21  and  C_22
REMARK    4  A    between atoms: C_22  and  O_23
REMARK                            x       y       z     vdW  Elec       q    Type
REMARK                         _______ _______ _______ _____ _____    ______ ____
ROOT
ATOM      1  C   UNL     1       4.375  -4.314  -0.064  0.00  0.00    +0.106 C 
ATOM      2  C   UNL     1       4.528  -5.722   0.525  0.00  0.00    +0.027 C 
ATOM      3  C   UNL     1       5.950  -6.229   0.274  0.00  0.00    +0.008 C 
ATOM      4  C   UNL     1       6.134  -6.520  -1.221  0.00  0.00    +0.055 C 
ATOM      5  C   UNL     1       5.662  -5.318  -2.000  0.00  0.00    +0.044 A 
ATOM      6  C   UNL     1       4.880  -4.335  -1.485  0.00  0.00    +0.013 A 
ATOM      7  C   UNL     1       4.651  -3.396  -2.489  0.00  0.00    +0.140 A 
ATOM      8  N   UNL     1       5.271  -3.798  -3.571  0.00  0.00    -0.179 NA
ATOM      9  N   UNL     1       5.915  -5.013  -3.284  0.00  0.00    -0.266 N 
ENDROOT
BRANCH   1  19
ATOM     10  C   UNL     1      -0.017   1.366   0.010  0.00  0.00    +0.002 A 
ATOM     11  C   UNL     1       1.156   2.107   0.002  0.00  0.00    +0.001 A 
ATOM     12  C   UNL     1       2.373   1.449  -0.013  0.00  0.00    +0.017 A 
ATOM     13  C   UNL     1       2.401   0.077  -0.020  0.00  0.00    +0.041 A 
ATOM     14  C   UNL     1       1.227  -0.710  -0.013  0.00  0.00    +0.080 A 
ATOM     15  C   UNL     1       0.002  -0.004   0.002  0.00  0.00    +0.029 A 
ATOM     16  N   UNL     1       1.419  -2.047  -0.023  0.00  0.00    -0.225 NA
ATOM     17  C   UNL     1       2.616  -2.588  -0.037  0.00  0.00    +0.160 A 
ATOM     18  S   UNL     1       3.682  -1.153  -0.040  0.00  0.00    -0.052 S 
ATOM     19  N   UNL     1       2.963  -3.924  -0.048  0.00  0.00    -0.317 N 
ATOM     20  H   UNL     1       2.271  -4.604  -0.045  0.00  0.00    +0.149 HD
ENDBRANCH   1  19
BRANCH   9  21
ATOM     21  C   UNL     1       6.720  -5.805  -4.217  0.00  0.00    +0.171 C 
BRANCH  21  22
ATOM     22  C   UNL     1       5.820  -6.804  -4.946  0.00  0.00    +0.179 C 
BRANCH  22  23
ATOM     23  O   UNL     1       6.606  -7.577  -5.856  0.00  0.00    -0.393 OA
ATOM     24  H   UNL     1       6.099  -8.233  -6.354  0.00  0.00    +0.209 HD
ENDBRANCH  22  23
ENDBRANCH  21  22
ENDBRANCH   9  21
TORSDOF 4
