REMARK  Name = ZINC12384372
REMARK  9 active torsions:
REMARK  status: ('A' for Active; 'I' for Inactive)
REMARK    1  A    between atoms: C_1  and  C_2
REMARK    2  A    between atoms: C_2  and  C_26
REMARK    3  A    between atoms: C_4  and  N_10
REMARK    4  A    between atoms: C_6  and  C_8
REMARK    5  A    between atoms: C_6  and  C_9
REMARK    6  A    between atoms: C_11  and  C_12
REMARK    7  A    between atoms: C_11  and  C_18
REMARK    8  A    between atoms: C_21  and  O_25
REMARK    9  A    between atoms: C_22  and  O_24
REMARK                            x       y       z     vdW  Elec       q    Type
REMARK                         _______ _______ _______ _____ _____    ______ ____
ROOT
ATOM      1  N   UNL     1       2.665  -0.797  -2.577  0.00  0.00    -0.280 NA
ATOM      2  C   UNL     1       3.156  -0.004  -3.488  0.00  0.00    +0.073 C 
ENDROOT
BRANCH   1   6
ATOM      3  C   UNL     1       0.996   1.677   0.662  0.00  0.00    -0.010 C 
ATOM      4  C   UNL     1       0.779   0.162   0.573  0.00  0.00    -0.071 C 
ATOM      5  C   UNL     1       0.994  -0.306  -0.863  0.00  0.00    +0.014 C 
ATOM      6  C   UNL     1       2.485  -0.314  -1.203  0.00  0.00    +0.103 C 
ATOM      7  C   UNL     1       3.188  -1.268  -0.237  0.00  0.00    +0.014 C 
ATOM      8  C   UNL     1       2.990  -0.807   1.204  0.00  0.00    -0.071 C 
ATOM      9  N   UNL     1       1.601  -0.546   1.538  0.00  0.00    +0.386 N 
ATOM     10  C   UNL     1       3.869   0.416   1.482  0.00  0.00    -0.010 C 
ATOM     11  C   UNL     1       3.490  -1.944   2.125  0.00  0.00    -0.010 C 
ATOM     12  C   UNL     1      -0.702  -0.105   0.928  0.00  0.00    -0.010 C 
ATOM     13  H   UNL     1       1.575  -0.029   2.422  0.00  0.00    -0.084 HD
ATOM     14  H   UNL     1       1.148  -1.442   1.747  0.00  0.00    -0.084 HD
ENDBRANCH   1   6
BRANCH   2  15
ATOM     15  C   UNL     1       3.394   1.424  -3.175  0.00  0.00    +0.001 A 
ATOM     16  C   UNL     1       4.678   1.959  -3.278  0.00  0.00    +0.010 A 
ATOM     17  C   UNL     1       4.893   3.290  -2.986  0.00  0.00    +0.001 A 
ATOM     18  C   UNL     1       3.838   4.094  -2.593  0.00  0.00    +0.000 A 
ATOM     19  C   UNL     1       2.563   3.570  -2.489  0.00  0.00    +0.001 A 
ATOM     20  C   UNL     1       2.334   2.241  -2.783  0.00  0.00    +0.010 A 
ENDBRANCH   2  15
BRANCH   2  21
ATOM     21  C   UNL     1       3.476  -0.531  -4.833  0.00  0.00    +0.004 A 
ATOM     22  C   UNL     1       3.869   0.341  -5.850  0.00  0.00    +0.014 A 
ATOM     23  C   UNL     1       4.167  -0.150  -7.103  0.00  0.00    +0.050 A 
ATOM     24  C   UNL     1       4.077  -1.512  -7.357  0.00  0.00    +0.158 A 
ATOM     25  C   UNL     1       3.685  -2.387  -6.346  0.00  0.00    +0.159 A 
ATOM     26  C   UNL     1       3.391  -1.901  -5.086  0.00  0.00    +0.059 A 
BRANCH  25  27
ATOM     27  O   UNL     1       3.597  -3.721  -6.598  0.00  0.00    -0.503 OA
ATOM     28  H   UNL     1       4.415  -4.208  -6.430  0.00  0.00    +0.292 HD
ENDBRANCH  25  27
BRANCH  24  29
ATOM     29  O   UNL     1       4.371  -1.992  -8.593  0.00  0.00    -0.503 OA
ATOM     30  H   UNL     1       5.300  -2.232  -8.711  0.00  0.00    +0.292 HD
ENDBRANCH  24  29
ENDBRANCH   2  21
TORSDOF 5
