REMARK  Name = ZINC27743554
REMARK  8 active torsions:
REMARK  status: ('A' for Active; 'I' for Inactive)
REMARK    1  A    between atoms: C_1  and  C_2
REMARK    2  A    between atoms: C_4  and  C_13
REMARK    3  A    between atoms: C_6  and  S_9
REMARK    4  A    between atoms: C_7  and  C_8
REMARK    5  A    between atoms: S_9  and  N_12
REMARK    6  A    between atoms: N_15  and  N_16
REMARK    7  A    between atoms: C_17  and  C_19
REMARK    8  A    between atoms: C_23  and  N_25
REMARK                            x       y       z     vdW  Elec       q    Type
REMARK                         _______ _______ _______ _____ _____    ______ ____
ROOT
ATOM      1  C   UNL     1       0.029  -2.818  -2.485  0.00  0.00    +0.260 C 
ATOM      2  O   UNL     1       0.046  -4.034  -2.487  0.00  0.00    -0.269 OA
ATOM      3  N   UNL     1       0.013  -2.143  -3.651  0.00  0.00    -0.230 N 
ATOM      4  H   UNL     1      -0.000  -1.173  -3.649  0.00  0.00    +0.173 HD
ENDROOT
BRANCH   1   8
ATOM      5  C   UNL     1      -0.018   1.503   0.010  0.00  0.00    +0.044 C 
ATOM      6  C   UNL     1       0.002  -0.004   0.002  0.00  0.00    -0.045 A 
ATOM      7  C   UNL     1       0.006  -0.686  -1.198  0.00  0.00    +0.016 A 
ATOM      8  C   UNL     1       0.025  -2.081  -1.203  0.00  0.00    +0.040 A 
ATOM      9  C   UNL     1       0.041  -2.778   0.006  0.00  0.00    +0.042 A 
ATOM     10  C   UNL     1       0.037  -2.084   1.198  0.00  0.00    +0.109 A 
ATOM     11  C   UNL     1       0.023  -0.701   1.197  0.00  0.00    -0.021 A 
ATOM     12  C   UNL     1       0.025   0.051   2.503  0.00  0.00    +0.046 C 
BRANCH  10  13
ATOM     13  S   UNL     1       0.057  -2.962   2.726  0.00  0.00    +0.056 S 
ATOM     14  O   UNL     1      -0.973  -2.402   3.530  0.00  0.00    -0.153 OA
ATOM     15  O   UNL     1       0.101  -4.344   2.400  0.00  0.00    -0.153 OA
BRANCH  13  16
ATOM     16  N   UNL     1       1.489  -2.606   3.477  0.00  0.00    -0.204 NA
ATOM     17  H   UNL     1       1.541  -2.602   4.445  0.00  0.00    +0.144 HD
ATOM     18  H   UNL     1       2.276  -2.402   2.948  0.00  0.00    +0.144 HD
ENDBRANCH  13  16
ENDBRANCH  10  13
ENDBRANCH   1   8
BRANCH   3  19
ATOM     19  N   UNL     1       0.017  -2.841  -4.865  0.00  0.00    -0.230 N 
ATOM     20  C   UNL     1       0.001  -2.166  -6.032  0.00  0.00    +0.260 C 
ATOM     21  O   UNL     1      -0.016  -0.950  -6.029  0.00  0.00    -0.269 OA
ATOM     22  H   UNL     1       0.030  -3.811  -4.867  0.00  0.00    +0.173 HD
BRANCH  20  23
ATOM     23  C   UNL     1       0.005  -2.903  -7.313  0.00  0.00    +0.040 A 
ATOM     24  C   UNL     1       0.018  -4.298  -7.319  0.00  0.00    +0.013 A 
ATOM     25  C   UNL     1       0.021  -4.980  -8.518  0.00  0.00    +0.003 A 
ATOM     26  C   UNL     1       0.011  -4.283  -9.714  0.00  0.00    +0.033 A 
ATOM     27  C   UNL     1      -0.002  -2.900  -9.715  0.00  0.00    +0.127 A 
ATOM     28  C   UNL     1      -0.011  -2.206  -8.522  0.00  0.00    +0.045 A 
BRANCH  27  29
ATOM     29  N   UNL     1      -0.013  -2.163 -10.998  0.00  0.00    +0.056 N 
ATOM     30  O   UNL     1      -0.010  -2.769 -12.044  0.00  0.00    -0.126 OA
ATOM     31  O   UNL     1      -0.024  -0.954 -11.001  0.00  0.00    -0.126 OA
ENDBRANCH  27  29
ENDBRANCH  20  23
ENDBRANCH   3  19
TORSDOF 6
