REMARK  Name = ZINC12342441
REMARK  17 active torsions:
REMARK  status: ('A' for Active; 'I' for Inactive)
REMARK    1  A    between atoms: C_1  and  C_2
REMARK    2  A    between atoms: C_2  and  C_3
REMARK    3  A    between atoms: C_2  and  C_4
REMARK    4  A    between atoms: C_4  and  C_5
REMARK    5  A    between atoms: C_5  and  C_7
REMARK    6  A    between atoms: C_5  and  N_18
REMARK    7  A    between atoms: C_13  and  C_15
REMARK    8  A    between atoms: C_19  and  C_21
REMARK    9  A    between atoms: C_21  and  C_23
REMARK   10  A    between atoms: C_21  and  N_26
REMARK   11  A    between atoms: C_23  and  C_24
REMARK   12  A    between atoms: C_23  and  C_25
REMARK   13  A    between atoms: C_27  and  O_29
REMARK   14  A    between atoms: O_29  and  C_30
REMARK   15  A    between atoms: C_30  and  C_31
REMARK   16  A    between atoms: C_30  and  C_32
REMARK   17  A    between atoms: C_30  and  C_33
REMARK                            x       y       z     vdW  Elec       q    Type
REMARK                         _______ _______ _______ _____ _____    ______ ____
ROOT
ATOM      1  C   UNL     1       1.321  -0.016   1.622  0.00  0.00    +0.159 C 
ENDROOT
BRANCH   1   2
ATOM      2  C   UNL     1       1.317  -1.433   1.110  0.00  0.00    +0.237 C 
ATOM      3  O   UNL     1       1.081  -2.351   1.867  0.00  0.00    -0.274 OA
ATOM      4  N   UNL     1       1.576  -1.681  -0.190  0.00  0.00    -0.288 N 
ATOM      5  C   UNL     1       1.954  -0.677  -1.194  0.00  0.00    +0.109 C 
ATOM      6  C   UNL     1       2.123  -1.415  -2.539  0.00  0.00    +0.021 C 
ATOM      7  C   UNL     1       1.280  -2.702  -2.337  0.00  0.00    +0.033 C 
ATOM      8  C   UNL     1       1.532  -3.005  -0.837  0.00  0.00    +0.162 C 
BRANCH   8   9
ATOM      9  C   UNL     1       0.404  -3.828  -0.271  0.00  0.00    +0.231 C 
ATOM     10  O   UNL     1      -0.573  -3.281   0.193  0.00  0.00    -0.274 OA
ATOM     11  N   UNL     1       0.482  -5.174  -0.281  0.00  0.00    -0.328 N 
ATOM     12  H   UNL     1       1.264  -5.612  -0.652  0.00  0.00    +0.145 HD
ATOM     13  H   UNL     1      -0.244  -5.704   0.083  0.00  0.00    +0.145 HD
ENDBRANCH   8   9
ENDBRANCH   1   2
BRANCH   1  14
ATOM     14  N   UNL     1       1.157  -0.022   3.078  0.00  0.00    -0.302 N 
ATOM     15  C   UNL     1       1.616   1.011   3.812  0.00  0.00    +0.234 C 
ATOM     16  O   UNL     1       2.100   1.977   3.263  0.00  0.00    -0.274 OA
ATOM     17  H   UNL     1       0.718  -0.769   3.513  0.00  0.00    +0.150 HD
BRANCH  15  18
ATOM     18  C   UNL     1       1.528   0.964   5.316  0.00  0.00    +0.165 C 
BRANCH  18  19
ATOM     19  N   UNL     1       2.577   1.808   5.893  0.00  0.00    -0.270 N 
ATOM     20  C   UNL     1       3.033   1.559   7.137  0.00  0.00    +0.401 C 
ATOM     21  O   UNL     1       2.574   0.636   7.779  0.00  0.00    -0.226 OA
ATOM     22  H   UNL     1       2.944   2.545   5.380  0.00  0.00    +0.153 HD
BRANCH  20  23
ATOM     23  O   UNL     1       3.998   2.334   7.667  0.00  0.00    -0.445 OA
BRANCH  23  24
ATOM     24  C   UNL     1       4.441   2.009   9.011  0.00  0.00    +0.107 C 
ATOM     25  C   UNL     1       4.999   0.585   9.033  0.00  0.00    +0.055 C 
ATOM     26  C   UNL     1       5.532   2.991   9.441  0.00  0.00    +0.055 C 
ATOM     27  C   UNL     1       3.257   2.108   9.976  0.00  0.00    +0.055 C 
ENDBRANCH  23  24
ENDBRANCH  20  23
ENDBRANCH  18  19
BRANCH  18  28
ATOM     28  C   UNL     1       0.158   1.478   5.762  0.00  0.00    +0.012 C 
ATOM     29  C   UNL     1      -0.934   0.542   5.238  0.00  0.00    +0.009 C 
ATOM     30  C   UNL     1       0.102   1.521   7.291  0.00  0.00    +0.009 C 
ENDBRANCH  18  28
ENDBRANCH  15  18
ENDBRANCH   1  14
BRANCH   1  31
ATOM     31  C   UNL     1       0.168   0.761   0.982  0.00  0.00    +0.034 C 
BRANCH  31  33
ATOM     32  C   UNL     1       1.541   2.838   0.778  0.00  0.00    +0.007 C 
ATOM     33  C   UNL     1       0.268   2.236   1.375  0.00  0.00    -0.015 C 
ATOM     34  C   UNL     1      -0.952   2.990   0.839  0.00  0.00    +0.007 C 
ENDBRANCH  31  33
ENDBRANCH   1  31
TORSDOF 10
