REMARK  Name = ZINC65360330
REMARK  11 active torsions:
REMARK  status: ('A' for Active; 'I' for Inactive)
REMARK    1  A    between atoms: C_1  and  C_2
REMARK    2  A    between atoms: C_4  and  C_8
REMARK    3  A    between atoms: C_5  and  C_7
REMARK    4  A    between atoms: C_8  and  C_9
REMARK    5  A    between atoms: C_8  and  N_10
REMARK    6  A    between atoms: N_13  and  C_14
REMARK    7  A    between atoms: C_18  and  N_20
REMARK    8  A    between atoms: C_21  and  C_23
REMARK    9  A    between atoms: C_23  and  C_24
REMARK   10  A    between atoms: C_23  and  C_25
REMARK   11  A    between atoms: C_23  and  C_26
REMARK                            x       y       z     vdW  Elec       q    Type
REMARK                         _______ _______ _______ _____ _____    ______ ____
ROOT
ATOM      1  N   UNL     1      -4.164  -1.529   1.296  0.00  0.00    -0.292 N 
ATOM      2  C   UNL     1      -4.920  -2.493   1.859  0.00  0.00    +0.304 C 
ATOM      3  O   UNL     1      -5.728  -2.207   2.721  0.00  0.00    -0.252 OA
ATOM      4  N   UNL     1      -4.779  -3.775   1.467  0.00  0.00    -0.269 N 
ATOM      5  H   UNL     1      -3.519  -1.758   0.609  0.00  0.00    +0.151 HD
ATOM      6  H   UNL     1      -4.183  -3.995   0.734  0.00  0.00    +0.156 HD
ENDROOT
BRANCH   4   7
ATOM      7  C   UNL     1      -5.492  -4.788   2.117  0.00  0.00    +0.037 A 
ATOM      8  C   UNL     1      -4.914  -6.039   2.298  0.00  0.00    +0.023 A 
ATOM      9  C   UNL     1      -5.618  -7.040   2.940  0.00  0.00    +0.004 A 
ATOM     10  C   UNL     1      -6.897  -6.801   3.403  0.00  0.00    +0.023 A 
ATOM     11  C   UNL     1      -7.480  -5.553   3.226  0.00  0.00    +0.035 A 
ATOM     12  C   UNL     1      -6.774  -4.543   2.587  0.00  0.00    +0.046 A 
BRANCH  11  13
ATOM     13  N   UNL     1      -8.776  -5.312   3.695  0.00  0.00    -0.285 N 
ATOM     14  C   UNL     1      -9.198  -5.891   4.837  0.00  0.00    +0.223 C 
ATOM     15  O   UNL     1      -8.486  -6.686   5.413  0.00  0.00    -0.275 OA
ATOM     16  H   UNL     1      -9.371  -4.728   3.199  0.00  0.00    +0.155 HD
BRANCH  14  17
ATOM     17  C   UNL     1     -10.555  -5.551   5.397  0.00  0.00    +0.039 C 
ATOM     18  C   UNL     1     -10.785  -6.339   6.688  0.00  0.00    +0.020 C 
ATOM     19  C   UNL     1     -10.622  -4.052   5.697  0.00  0.00    +0.020 C 
ATOM     20  C   UNL     1     -11.634  -5.916   4.377  0.00  0.00    +0.020 C 
ENDBRANCH  14  17
ENDBRANCH  11  13
ENDBRANCH   4   7
BRANCH   1  21
ATOM     21  C   UNL     1      -4.317  -0.136   1.723  0.00  0.00    +0.105 C 
ATOM     22  C   UNL     1      -3.455   0.116   2.961  0.00  0.00    +0.033 C 
BRANCH  21  26
ATOM     23  C   UNL     1      -2.107   1.672  -2.496  0.00  0.00    +0.086 C 
ATOM     24  C   UNL     1      -2.912   1.554  -1.227  0.00  0.00    +0.103 A 
ATOM     25  C   UNL     1      -3.044   0.444  -0.480  0.00  0.00    +0.050 A 
ATOM     26  C   UNL     1      -3.879   0.781   0.610  0.00  0.00    +0.013 A 
ATOM     27  C   UNL     1      -4.207   2.077   0.464  0.00  0.00    +0.107 A 
ATOM     28  O   UNL     1      -3.614   2.542  -0.648  0.00  0.00    -0.465 OA
ATOM     29  C   UNL     1      -5.087   2.874   1.392  0.00  0.00    +0.086 C 
ENDBRANCH  21  26
ENDBRANCH   1  21
TORSDOF 5
