REMARK  Name = ZINC02190583
REMARK  6 active torsions:
REMARK  status: ('A' for Active; 'I' for Inactive)
REMARK    1  A    between atoms: C_1  and  C_2
REMARK    2  A    between atoms: C_2  and  C_3
REMARK    3  A    between atoms: C_3  and  C_4
REMARK    4  A    between atoms: C_4  and  C_5
REMARK    5  A    between atoms: C_5  and  C_12
REMARK    6  A    between atoms: N_9  and  C_11
REMARK                            x       y       z     vdW  Elec       q    Type
REMARK                         _______ _______ _______ _____ _____    ______ ____
ROOT
ATOM      1  C   UNL     1      -1.486   5.132   2.542  0.00  0.00    +0.097 C 
ATOM      2  N   UNL     1      -2.323   5.642   1.444  0.00  0.00    -0.307 N 
ATOM      3  C   UNL     1      -3.325   6.341   2.009  0.00  0.00    +0.148 C 
ATOM      4  S   UNL     1      -4.562   7.129   1.127  0.00  0.00    -0.017 S 
ATOM      5  N   UNL     1      -3.234   6.344   3.345  0.00  0.00    -0.250 N 
ATOM      6  N   UNL     1      -2.146   5.633   3.765  0.00  0.00    -0.216 NA
ATOM      7  C   UNL     1      -4.178   7.020   4.239  0.00  0.00    +0.152 C 
ATOM      8  C   UNL     1      -0.064   5.686   2.433  0.00  0.00    +0.050 C 
ATOM      9  H   UNL     1      -2.180   5.501   0.495  0.00  0.00    +0.150 HD
ATOM     10  H   UNL     1      -2.422   4.871   4.365  0.00  0.00    +0.147 HD
ENDROOT
BRANCH   1  11
ATOM     11  C   UNL     1      -1.466   3.603   2.534  0.00  0.00    +0.043 C 
BRANCH  11  12
ATOM     12  C   UNL     1      -0.750   3.109   1.275  0.00  0.00    +0.003 C 
BRANCH  12  14
ATOM     13  C   UNL     1      -0.013   1.086   0.008  0.00  0.00    +0.004 C 
ATOM     14  C   UNL     1      -0.729   1.579   1.267  0.00  0.00    -0.003 C 
ENDBRANCH  12  14
ENDBRANCH  11  12
ENDBRANCH   1  11
TORSDOF 3
