REMARK  Name = ZINC40376790
REMARK  7 active torsions:
REMARK  status: ('A' for Active; 'I' for Inactive)
REMARK    1  A    between atoms: C_1  and  C_2
REMARK    2  A    between atoms: C_2  and  C_3
REMARK    3  A    between atoms: C_3  and  C_5
REMARK    4  A    between atoms: C_3  and  N_9
REMARK    5  A    between atoms: N_6  and  O_7
REMARK    6  A    between atoms: N_9  and  S_10
REMARK    7  A    between atoms: S_10  and  C_13
REMARK                            x       y       z     vdW  Elec       q    Type
REMARK                         _______ _______ _______ _____ _____    ______ ____
ROOT
ATOM      1  N   UNL     1       2.216  -0.001   1.042  0.00  0.00    -0.179 NA
ATOM      2  H   UNL     1       2.604   0.120   0.162  0.00  0.00    +0.149 HD
ENDROOT
BRANCH   1   3
ATOM      3  S   UNL     1       3.127   0.280   2.396  0.00  0.00    +0.065 S 
ATOM      4  O   UNL     1       4.431   0.621   1.944  0.00  0.00    -0.153 OA
ATOM      5  O   UNL     1       2.361   1.137   3.231  0.00  0.00    -0.153 OA
BRANCH   3   6
ATOM      6  C   UNL     1       3.276  -1.254   3.251  0.00  0.00    +0.143 A 
ATOM      7  C   UNL     1       4.226  -2.212   3.125  0.00  0.00    +0.037 A 
ATOM      8  C   UNL     1       4.141  -3.348   3.909  0.00  0.00    +0.025 A 
ATOM      9  C   UNL     1       3.110  -3.469   4.781  0.00  0.00    +0.057 A 
ATOM     10  S   UNL     1       2.220  -1.944   4.513  0.00  0.00    -0.062 S 
ATOM     11 BR   UNL     1       2.719  -4.882   5.975  0.00  0.00    -0.043 Br
ENDBRANCH   3   6
ENDBRANCH   1   3
BRANCH   1  12
ATOM     12  C   UNL     1       0.822  -0.434   1.175  0.00  0.00    +0.142 C 
BRANCH  12  13
ATOM     13  C   UNL     1       0.750  -1.935   1.073  0.00  0.00    +0.150 C 
ATOM     14  N   UNL     1      -0.231  -2.574   1.619  0.00  0.00    -0.075 NA
ATOM     15  N   UNL     1       1.731  -2.628   0.397  0.00  0.00    -0.343 N 
ATOM     16  H   UNL     1       2.468  -2.148  -0.013  0.00  0.00    +0.144 HD
ATOM     17  H   UNL     1       1.685  -3.594   0.332  0.00  0.00    +0.144 HD
BRANCH  14  18
ATOM     18  O   UNL     1      -0.299  -3.985   1.523  0.00  0.00    -0.408 OA
ATOM     19  H   UNL     1      -1.069  -4.373   1.962  0.00  0.00    +0.328 HD
ENDBRANCH  14  18
ENDBRANCH  12  13
BRANCH  12  21
ATOM     20  C   UNL     1      -0.053   1.712   0.241  0.00  0.00    +0.006 C 
ATOM     21  C   UNL     1      -0.015   0.194   0.058  0.00  0.00    +0.025 C 
ENDBRANCH  12  21
ENDBRANCH   1  12
TORSDOF 6
