REMARK  Name = ZINC08708279
REMARK  6 active torsions:
REMARK  status: ('A' for Active; 'I' for Inactive)
REMARK    1  A    between atoms: C_1  and  C_2
REMARK    2  A    between atoms: N_10  and  N_14
REMARK    3  A    between atoms: C_15  and  C_17
REMARK    4  A    between atoms: C_17  and  C_19
REMARK    5  A    between atoms: C_17  and  O_20
REMARK    6  A    between atoms: O_20  and  C_21
REMARK                            x       y       z     vdW  Elec       q    Type
REMARK                         _______ _______ _______ _____ _____    ______ ____
ROOT
ATOM      1  C   UNL     1      -7.791  -2.854   0.637  0.00  0.00    +0.007 C 
ATOM      2  C   UNL     1      -6.644  -2.012   1.199  0.00  0.00    -0.014 C 
ATOM      3  C   UNL     1      -5.307  -2.658   0.828  0.00  0.00    +0.006 C 
ATOM      4  C   UNL     1      -4.161  -1.821   1.401  0.00  0.00    +0.035 C 
ATOM      5  C   UNL     1      -4.232  -0.405   0.840  0.00  0.00    +0.114 C 
ATOM      6  C   UNL     1      -5.569   0.244   1.180  0.00  0.00    +0.035 C 
ATOM      7  C   UNL     1      -6.710  -0.602   0.608  0.00  0.00    +0.006 C 
ATOM      8  C   UNL     1      -3.090   0.430   1.373  0.00  0.00    +0.263 C 
ATOM      9  O   UNL     1      -2.863   0.710   2.530  0.00  0.00    -0.271 OA
ATOM     10  N   UNL     1      -2.378   0.800   0.288  0.00  0.00    -0.137 N 
ATOM     11  C   UNL     1      -2.914   0.321  -0.841  0.00  0.00    +0.326 C 
ATOM     12  O   UNL     1      -2.453   0.523  -1.947  0.00  0.00    -0.251 OA
ATOM     13  N   UNL     1      -4.019  -0.415  -0.613  0.00  0.00    -0.284 N 
ATOM     14  H   UNL     1      -4.568  -0.860  -1.278  0.00  0.00    +0.151 HD
ENDROOT
BRANCH  10  15
ATOM     15  N   UNL     1      -1.224   1.593   0.337  0.00  0.00    -0.221 N 
ATOM     16  C   UNL     1      -0.012   1.031   0.159  0.00  0.00    +0.270 C 
ATOM     17  O   UNL     1       0.080  -0.161  -0.043  0.00  0.00    -0.270 OA
ATOM     18  H   UNL     1      -1.297   2.547   0.499  0.00  0.00    +0.174 HD
BRANCH  16  19
ATOM     19  C   UNL     1       1.229   1.885   0.206  0.00  0.00    +0.257 C 
ATOM     20  C   UNL     1       1.150   2.958  -0.882  0.00  0.00    +0.062 C 
BRANCH  19  21
ATOM     21  O   UNL     1       2.379   1.066  -0.015  0.00  0.00    -0.480 OA
BRANCH  21  22
ATOM     22  C   UNL     1       3.560   1.513   0.488  0.00  0.00    +0.122 A 
ATOM     23  C   UNL     1       4.692   0.714   0.415  0.00  0.00    +0.048 A 
ATOM     24  C   UNL     1       5.893   1.172   0.921  0.00  0.00    +0.042 A 
ATOM     25  C   UNL     1       5.965   2.422   1.512  0.00  0.00    +0.124 A 
ATOM     26  C   UNL     1       4.835   3.218   1.591  0.00  0.00    +0.042 A 
ATOM     27  C   UNL     1       3.634   2.765   1.080  0.00  0.00    +0.048 A 
ATOM     28  F   UNL     1       7.139   2.866   2.011  0.00  0.00    -0.205 F 
ENDBRANCH  21  22
ENDBRANCH  19  21
ENDBRANCH  16  19
ENDBRANCH  10  15
TORSDOF 4
