REMARK  Name = ZINC09357517
REMARK  8 active torsions:
REMARK  status: ('A' for Active; 'I' for Inactive)
REMARK    1  A    between atoms: C_1  and  C_2
REMARK    2  A    between atoms: C_2  and  C_3
REMARK    3  A    between atoms: C_9  and  C_10
REMARK    4  A    between atoms: C_9  and  N_61
REMARK    5  A    between atoms: C_11  and  O_34
REMARK    6  A    between atoms: C_20  and  C_21
REMARK    7  A    between atoms: C_27  and  O_32
REMARK    8  A    between atoms: O_32  and  C_33
REMARK                            x       y       z     vdW  Elec       q    Type
REMARK                         _______ _______ _______ _____ _____    ______ ____
ROOT
ATOM      1  C   UNL     1      -0.079   0.037   0.106  0.00  0.00    +0.020 A 
ATOM      2  C   UNL     1       1.152  -0.599   0.103  0.00  0.00    +0.122 A 
ATOM      3  C   UNL     1       2.330   0.143   0.136  0.00  0.00    +0.046 A 
ATOM      4  C   UNL     1       2.287   1.508   0.169  0.00  0.00    +0.016 A 
ATOM      5  C   UNL     1       1.054   2.163   0.171  0.00  0.00    +0.026 A 
ATOM      6  C   UNL     1      -0.140   1.422   0.139  0.00  0.00    +0.144 A 
ATOM      7  O   UNL     1      -1.331   2.059   0.137  0.00  0.00    -0.422 OA
ATOM      8  C   UNL     1      -1.420   3.398   0.174  0.00  0.00    +0.338 A 
ATOM      9  O   UNL     1      -2.522   3.919   0.175  0.00  0.00    -0.245 OA
ATOM     10  C   UNL     1      -0.280   4.216   0.207  0.00  0.00    +0.101 A 
ATOM     11  C   UNL     1       0.977   3.634   0.207  0.00  0.00    +0.006 A 
ENDROOT
BRANCH  11  12
ATOM     12  C   UNL     1       2.198   4.460   0.240  0.00  0.00    +0.068 A 
ATOM     13  C   UNL     1       2.488   5.244   1.342  0.00  0.00    +0.027 A 
ATOM     14  C   UNL     1       3.673   6.023   1.332  0.00  0.00    +0.022 A 
ATOM     15  C   UNL     1       3.996   6.830   2.434  0.00  0.00    +0.012 A 
ATOM     16  C   UNL     1       5.138   7.578   2.421  0.00  0.00    +0.004 A 
ATOM     17  C   UNL     1       5.986   7.549   1.323  0.00  0.00    +0.049 A 
ATOM     18  C   UNL     1       5.690   6.762   0.225  0.00  0.00    +0.163 A 
ATOM     19  C   UNL     1       4.528   5.989   0.217  0.00  0.00    +0.180 A 
ATOM     20  O   UNL     1       4.238   5.220  -0.855  0.00  0.00    -0.418 OA
ATOM     21  C   UNL     1       3.132   4.460  -0.893  0.00  0.00    +0.345 A 
ATOM     22  O   UNL     1       2.900   3.774  -1.870  0.00  0.00    -0.245 OA
BRANCH  18  23
ATOM     23  O   UNL     1       6.528   6.742  -0.845  0.00  0.00    -0.491 OA
ATOM     24  C   UNL     1       7.699   7.559  -0.767  0.00  0.00    +0.277 C 
ENDBRANCH  18  23
ENDBRANCH  11  12
BRANCH   2  25
ATOM     25  O   UNL     1       1.210  -1.955   0.070  0.00  0.00    -0.506 OA
ATOM     26  H   UNL     1       1.236  -2.325  -0.822  0.00  0.00    +0.292 HD
ENDBRANCH   2  25
BRANCH   1  27
ATOM     27  C   UNL     1      -1.349  -0.774   0.071  0.00  0.00    -0.035 C 
BRANCH  27  33
ATOM     28  C   UNL     1      -2.768  -2.054  -1.416  0.00  0.00    -0.068 C 
ATOM     29  C   UNL     1      -3.050  -2.366  -2.887  0.00  0.00    -0.015 C 
ATOM     30  C   UNL     1      -3.534  -1.095  -3.591  0.00  0.00    -0.003 C 
ATOM     31  C   UNL     1      -2.472  -0.003  -3.440  0.00  0.00    -0.019 C 
ATOM     32  C   UNL     1      -2.206   0.242  -1.952  0.00  0.00    -0.078 C 
ATOM     33  N   UNL     1      -1.721  -1.013  -1.339  0.00  0.00    +0.384 N 
ATOM     34  H   UNL     1      -0.892  -1.335  -1.853  0.00  0.00    -0.081 HD
BRANCH  28  36
ATOM     35  C   UNL     1      -3.349  -4.395  -0.766  0.00  0.00    +0.002 C 
ATOM     36  C   UNL     1      -2.265  -3.317  -0.714  0.00  0.00    -0.019 C 
ENDBRANCH  28  36
ENDBRANCH  27  33
ENDBRANCH   1  27
TORSDOF 6
