REMARK  Name = ZINC36028024
REMARK  12 active torsions:
REMARK  status: ('A' for Active; 'I' for Inactive)
REMARK    1  A    between atoms: C_1  and  C_2
REMARK    2  A    between atoms: C_2  and  C_3
REMARK    3  A    between atoms: C_3  and  N_4
REMARK    4  A    between atoms: C_7  and  C_22
REMARK    5  A    between atoms: N_13  and  C_16
REMARK    6  A    between atoms: C_16  and  N_18
REMARK    7  A    between atoms: N_18  and  C_19
REMARK    8  A    between atoms: C_19  and  C_20
REMARK    9  A    between atoms: C_19  and  C_21
REMARK   10  A    between atoms: C_22  and  C_24
REMARK   11  A    between atoms: C_22  and  C_25
REMARK   12  A    between atoms: C_25  and  C_26
REMARK                            x       y       z     vdW  Elec       q    Type
REMARK                         _______ _______ _______ _____ _____    ______ ____
ROOT
ATOM      1  N   UNL     1       0.867  -1.974   1.170  0.00  0.00    -0.314 N 
ATOM      2  C   UNL     1      -0.044  -2.857   1.628  0.00  0.00    +0.201 C 
ATOM      3  O   UNL     1      -1.098  -2.577   2.160  0.00  0.00    -0.277 OA
ATOM      4  C   UNL     1       0.469  -4.257   1.367  0.00  0.00    +0.022 C 
ATOM      5  N   UNL     1       1.917  -4.084   1.099  0.00  0.00    +0.401 N 
ATOM      6  C   UNL     1       1.998  -2.699   0.585  0.00  0.00    +0.006 C 
ATOM      7  C   UNL     1       1.892  -2.703  -0.939  0.00  0.00    +0.025 C 
ATOM      8  C   UNL     1       1.939  -1.262  -1.456  0.00  0.00    +0.107 C 
ATOM      9  N   UNL     1       3.145  -0.610  -0.929  0.00  0.00    -0.313 N 
ATOM     10  C   UNL     1       3.376  -0.617   0.522  0.00  0.00    +0.107 C 
ATOM     11  C   UNL     1       3.317  -2.064   1.023  0.00  0.00    +0.025 C 
ATOM     12  H   UNL     1       2.452  -4.185   1.949  0.00  0.00    -0.082 HD
ATOM     13  H   UNL     1       2.231  -4.741   0.399  0.00  0.00    -0.082 HD
ENDROOT
BRANCH   9  14
ATOM     14  C   UNL     1       4.024  -0.016  -1.761  0.00  0.00    +0.133 C 
ATOM     15  S   UNL     1       3.677   0.097  -3.433  0.00  0.00    -0.019 S 
BRANCH  14  16
ATOM     16  N   UNL     1       5.176   0.488  -1.276  0.00  0.00    -0.324 N 
ATOM     17  H   UNL     1       5.340   0.490  -0.320  0.00  0.00    +0.148 HD
BRANCH  16  18
ATOM     18  C   UNL     1       6.181   1.033  -2.192  0.00  0.00    +0.066 C 
ATOM     19  C   UNL     1       7.044   2.057  -1.453  0.00  0.00    +0.027 C 
ATOM     20  C   UNL     1       7.066  -0.102  -2.711  0.00  0.00    +0.027 C 
ENDBRANCH  16  18
ENDBRANCH  14  16
ENDBRANCH   9  14
BRANCH   4  21
ATOM     21  C   UNL     1       0.254  -5.141   2.597  0.00  0.00    -0.020 C 
ATOM     22  C   UNL     1       0.813  -6.539   2.324  0.00  0.00    +0.006 C 
BRANCH  21  23
ATOM     23  C   UNL     1      -1.242  -5.240   2.899  0.00  0.00    -0.001 C 
ATOM     24  C   UNL     1      -1.450  -6.020   4.199  0.00  0.00    +0.004 C 
ENDBRANCH  21  23
ENDBRANCH   4  21
BRANCH   1  25
ATOM     25  C   UNL     1       0.742  -0.517   1.241  0.00  0.00    +0.106 C 
BRANCH  25  27
ATOM     26  C   UNL     1       1.315   1.511   2.584  0.00  0.00    +0.005 C 
ATOM     27  C   UNL     1       1.321  -0.019   2.567  0.00  0.00    +0.015 C 
ENDBRANCH  25  27
ENDBRANCH   1  25
TORSDOF 7
