REMARK  Name = ZINC58880695
REMARK  8 active torsions:
REMARK  status: ('A' for Active; 'I' for Inactive)
REMARK    1  A    between atoms: C_3  and  O_21
REMARK    2  A    between atoms: C_6  and  C_7
REMARK    3  A    between atoms: N_8  and  N_9
REMARK    4  A    between atoms: C_10  and  C_12
REMARK    5  A    between atoms: O_21  and  C_22
REMARK    6  A    between atoms: C_22  and  C_23
REMARK    7  A    between atoms: N_25  and  C_26
REMARK    8  A    between atoms: C_26  and  C_27
REMARK                            x       y       z     vdW  Elec       q    Type
REMARK                         _______ _______ _______ _____ _____    ______ ____
ROOT
ATOM      1  C   UNL     1       0.024   1.341   0.607  0.00  0.00    +0.013 A 
ATOM      2  C   UNL     1       1.208   2.046   0.579  0.00  0.00    +0.046 A 
ATOM      3  C   UNL     1       2.403   1.389   0.315  0.00  0.00    +0.121 A 
ATOM      4  C   UNL     1       2.412   0.020   0.079  0.00  0.00    +0.046 A 
ATOM      5  C   UNL     1       1.233  -0.693   0.106  0.00  0.00    +0.013 A 
ATOM      6  C   UNL     1       0.028  -0.037   0.371  0.00  0.00    -0.005 A 
ENDROOT
BRANCH   6   7
ATOM      7  C   UNL     1      -1.235  -0.795   0.401  0.00  0.00    +0.138 C 
ATOM      8  N   UNL     1      -1.230  -2.075   0.181  0.00  0.00    -0.187 NA
BRANCH   8   9
ATOM      9  N   UNL     1      -2.431  -2.796   0.210  0.00  0.00    -0.199 N 
ATOM     10  C   UNL     1      -2.425  -4.124  -0.018  0.00  0.00    +0.318 C 
ATOM     11  O   UNL     1      -1.379  -4.697  -0.249  0.00  0.00    -0.263 OA
ATOM     12  H   UNL     1      -3.267  -2.339   0.394  0.00  0.00    +0.178 HD
BRANCH  10  13
ATOM     13  C   UNL     1      -3.704  -4.892   0.013  0.00  0.00    +0.303 C 
ATOM     14  O   UNL     1      -4.761  -4.307   0.136  0.00  0.00    -0.265 OA
ATOM     15  N   UNL     1      -3.687  -6.235  -0.097  0.00  0.00    -0.294 N 
ATOM     16  C   UNL     1      -2.410  -6.913  -0.104  0.00  0.00    +0.108 C 
ATOM     17  C   UNL     1      -1.888  -7.022  -1.558  0.00  0.00    +0.019 C 
ATOM     18  C   UNL     1      -2.688  -7.996  -2.317  0.00  0.00    +0.002 C 
ATOM     19  C   UNL     1      -4.159  -7.617  -2.470  0.00  0.00    +0.002 C 
ATOM     20  C   UNL     1      -4.923  -8.077  -1.254  0.00  0.00    +0.019 C 
ATOM     21  C   UNL     1      -4.972  -6.954  -0.197  0.00  0.00    +0.108 C 
ENDBRANCH  10  13
ENDBRANCH   8   9
ENDBRANCH   6   7
BRANCH   3  22
ATOM     22  O   UNL     1       3.568   2.088   0.287  0.00  0.00    -0.483 OA
BRANCH  22  23
ATOM     23  C   UNL     1       4.760   1.351   0.009  0.00  0.00    +0.324 C 
BRANCH  23  24
ATOM     24  C   UNL     1       5.942   2.285   0.019  0.00  0.00    +0.251 C 
ATOM     25  O   UNL     1       5.780   3.466   0.242  0.00  0.00    -0.272 OA
ATOM     26  N   UNL     1       7.180   1.809  -0.219  0.00  0.00    -0.310 N 
ATOM     27  H   UNL     1       7.310   0.864  -0.397  0.00  0.00    +0.149 HD
BRANCH  26  28
ATOM     28  C   UNL     1       8.329   2.717  -0.209  0.00  0.00    +0.135 C 
BRANCH  28  29
ATOM     29  C   UNL     1       9.606   1.928  -0.506  0.00  0.00    +0.135 C 
ATOM     30  C   UNL     1      10.835   2.854  -0.379  0.00  0.00    +0.035 C 
ATOM     31  C   UNL     1      11.729   2.379  -1.557  0.00  0.00    +0.031 C 
ATOM     32  C   UNL     1      10.654   2.002  -2.608  0.00  0.00    +0.160 C 
ATOM     33  O   UNL     1       9.571   1.435  -1.850  0.00  0.00    -0.375 OA
ENDBRANCH  28  29
ENDBRANCH  26  28
ENDBRANCH  23  24
ENDBRANCH  22  23
ENDBRANCH   3  22
TORSDOF 8
