REMARK  Name = ZINC06743289
REMARK  7 active torsions:
REMARK  status: ('A' for Active; 'I' for Inactive)
REMARK    1  A    between atoms: C_1  and  C_2
REMARK    2  A    between atoms: C_4  and  C_30
REMARK    3  A    between atoms: C_5  and  C_9
REMARK    4  A    between atoms: C_6  and  O_8
REMARK    5  A    between atoms: N_17  and  C_27
REMARK    6  A    between atoms: C_18  and  C_20
REMARK    7  A    between atoms: C_27  and  C_28
REMARK                            x       y       z     vdW  Elec       q    Type
REMARK                         _______ _______ _______ _____ _____    ______ ____
ROOT
ATOM      1  C   UNL     1      -0.273  -4.789  -0.116  0.00  0.00    +0.102 A 
ATOM      2  C   UNL     1       0.025  -5.390   1.111  0.00  0.00    +0.035 A 
ATOM      3  C   UNL     1       0.099  -6.746   0.858  0.00  0.00    +0.126 A 
ATOM      4  N   UNL     1      -0.150  -6.897  -0.477  0.00  0.00    -0.272 N 
ATOM      5  H   UNL     1      -0.166  -7.745  -0.948  0.00  0.00    +0.189 HD
ATOM      6  N   UNL     1      -0.368  -5.750  -1.014  0.00  0.00    -0.173 NA
ATOM      7  C   UNL     1       0.411  -7.439   2.113  0.00  0.00    +0.266 C 
ATOM      8  O   UNL     1       0.544  -8.643   2.227  0.00  0.00    -0.268 OA
ATOM      9  N   UNL     1       0.528  -6.555   3.120  0.00  0.00    -0.281 N 
ATOM     10  C   UNL     1       0.298  -5.208   2.579  0.00  0.00    +0.144 C 
ENDROOT
BRANCH   1  15
ATOM     11  C   UNL     1      -0.986   0.850  -1.070  0.00  0.00    +0.044 C 
ATOM     12  C   UNL     1      -0.797  -0.624  -0.820  0.00  0.00    -0.047 A 
ATOM     13  C   UNL     1      -1.789  -1.517  -1.182  0.00  0.00    +0.007 A 
ATOM     14  C   UNL     1      -1.624  -2.869  -0.956  0.00  0.00    -0.037 A 
ATOM     15  C   UNL     1      -0.455  -3.336  -0.362  0.00  0.00    +0.047 A 
ATOM     16  C   UNL     1       0.546  -2.432   0.003  0.00  0.00    +0.127 A 
ATOM     17  C   UNL     1       0.370  -1.078  -0.234  0.00  0.00    +0.049 A 
ATOM     18  C   UNL     1      -2.709  -3.837  -1.352  0.00  0.00    +0.044 C 
BRANCH  16  19
ATOM     19  O   UNL     1       1.690  -2.879   0.584  0.00  0.00    -0.506 OA
ATOM     20  H   UNL     1       2.416  -3.024  -0.038  0.00  0.00    +0.292 HD
ENDBRANCH  16  19
ENDBRANCH   1  15
BRANCH  10  21
ATOM     21  C   UNL     1      -0.891  -4.575   3.254  0.00  0.00    +0.013 A 
ATOM     22  C   UNL     1      -1.869  -5.371   3.820  0.00  0.00    +0.008 A 
ATOM     23  C   UNL     1      -2.961  -4.791   4.439  0.00  0.00    +0.001 A 
ATOM     24  C   UNL     1      -3.075  -3.414   4.493  0.00  0.00    +0.003 A 
ATOM     25  C   UNL     1      -2.098  -2.616   3.928  0.00  0.00    +0.039 A 
ATOM     26  C   UNL     1      -1.002  -3.197   3.312  0.00  0.00    +0.129 A 
ATOM     27  F   UNL     1      -0.044  -2.418   2.764  0.00  0.00    -0.205 F 
ENDBRANCH  10  21
BRANCH   9  28
ATOM     28  C   UNL     1       0.832  -6.879   4.516  0.00  0.00    +0.135 C 
BRANCH  28  29
ATOM     29  C   UNL     1       2.325  -6.862   4.722  0.00  0.00    -0.016 C 
ATOM     30  C   UNL     1       2.849  -6.108   5.655  0.00  0.00    +0.005 C 
ENDBRANCH  28  29
ENDBRANCH   9  28
TORSDOF 5
