REMARK  Name = ZINC62778361
REMARK  5 active torsions:
REMARK  status: ('A' for Active; 'I' for Inactive)
REMARK    1  A    between atoms: C_1  and  C_2
REMARK    2  A    between atoms: C_5  and  C_9
REMARK    3  A    between atoms: C_7  and  C_8
REMARK    4  A    between atoms: C_9  and  C_11
REMARK    5  A    between atoms: C_9  and  O_17
REMARK                            x       y       z     vdW  Elec       q    Type
REMARK                         _______ _______ _______ _____ _____    ______ ____
ROOT
ATOM      1  C   UNL     1       0.059  -4.275  -0.021  0.00  0.00    +0.178 C 
ENDROOT
BRANCH   1   6
ATOM      2  C   UNL     1      -0.018   1.503   0.010  0.00  0.00    +0.044 C 
ATOM      3  C   UNL     1       0.002  -0.004   0.002  0.00  0.00    -0.048 A 
ATOM      4  C   UNL     1       0.006  -0.689  -1.199  0.00  0.00    +0.004 A 
ATOM      5  C   UNL     1       0.025  -2.071  -1.207  0.00  0.00    +0.007 A 
ATOM      6  C   UNL     1       0.040  -2.768  -0.013  0.00  0.00    -0.014 A 
ATOM      7  C   UNL     1       0.037  -2.084   1.188  0.00  0.00    +0.010 A 
ATOM      8  C   UNL     1       0.023  -0.702   1.195  0.00  0.00    -0.047 A 
ATOM      9  C   UNL     1       0.025   0.045   2.504  0.00  0.00    +0.044 C 
ENDBRANCH   1   6
BRANCH   1  10
ATOM     10  C   UNL     1       1.480  -4.759  -0.156  0.00  0.00    +0.022 A 
ATOM     11  C   UNL     1       2.269  -5.204   0.850  0.00  0.00    +0.111 A 
ATOM     12  N   UNL     1       3.462  -5.541   0.319  0.00  0.00    -0.284 N 
ATOM     13  H   UNL     1       4.225  -5.892   0.805  0.00  0.00    +0.188 HD
ATOM     14  N   UNL     1       3.406  -5.295  -1.059  0.00  0.00    -0.182 NA
ATOM     15  C   UNL     1       2.216  -4.832  -1.343  0.00  0.00    +0.140 A 
ENDBRANCH   1  10
BRANCH   1  16
ATOM     16  O   UNL     1      -0.713  -4.756  -1.123  0.00  0.00    -0.382 OA
ATOM     17  H   UNL     1      -0.392  -4.461  -1.987  0.00  0.00    +0.211 HD
ENDBRANCH   1  16
TORSDOF 3
