REMARK  Name = ZINC64424957
REMARK  7 active torsions:
REMARK  status: ('A' for Active; 'I' for Inactive)
REMARK    1  A    between atoms: C_1  and  C_2
REMARK    2  A    between atoms: C_2  and  C_3
REMARK    3  A    between atoms: C_3  and  C_4
REMARK    4  A    between atoms: C_4  and  N_5
REMARK    5  A    between atoms: N_8  and  N_9
REMARK    6  A    between atoms: C_10  and  C_12
REMARK    7  A    between atoms: C_16  and  C_21
REMARK                            x       y       z     vdW  Elec       q    Type
REMARK                         _______ _______ _______ _____ _____    ______ ____
ROOT
ATOM      1  N   UNL     1       2.706  -3.334  -4.723  0.00  0.00    -0.227 N 
ATOM      2  C   UNL     1       3.337  -3.769  -5.832  0.00  0.00    +0.295 C 
ATOM      3  O   UNL     1       3.462  -4.962  -6.032  0.00  0.00    -0.265 OA
ATOM      4  H   UNL     1       2.606  -2.382  -4.564  0.00  0.00    +0.173 HD
ENDROOT
BRANCH   2   5
ATOM      5  C   UNL     1       3.873  -2.801  -6.800  0.00  0.00    +0.192 A 
ATOM      6  C   UNL     1       4.520  -3.122  -7.950  0.00  0.00    +0.063 A 
ATOM      7  C   UNL     1       4.869  -1.853  -8.586  0.00  0.00    +0.021 A 
ATOM      8  C   UNL     1       5.529  -1.505  -9.767  0.00  0.00    +0.015 A 
ATOM      9  C   UNL     1       5.699  -0.187 -10.085  0.00  0.00    -0.050 A 
ATOM     10  C   UNL     1       5.221   0.807  -9.242  0.00  0.00    +0.007 A 
ATOM     11  C   UNL     1       4.567   0.485  -8.073  0.00  0.00    +0.047 A 
ATOM     12  C   UNL     1       4.381  -0.849  -7.729  0.00  0.00    +0.136 A 
ATOM     13  O   UNL     1       3.792  -1.459  -6.682  0.00  0.00    -0.450 OA
ATOM     14  C   UNL     1       6.412   0.190 -11.358  0.00  0.00    +0.044 C 
ENDBRANCH   2   5
BRANCH   1  18
ATOM     15  N   UNL     1       1.425  -2.500  -2.470  0.00  0.00    -0.298 N 
ATOM     16  C   UNL     1       1.564  -3.822  -2.692  0.00  0.00    +0.316 C 
ATOM     17  O   UNL     1       1.120  -4.622  -1.892  0.00  0.00    -0.251 OA
ATOM     18  N   UNL     1       2.195  -4.256  -3.801  0.00  0.00    -0.218 N 
ATOM     19  H   UNL     1       1.779  -1.861  -3.109  0.00  0.00    +0.150 HD
ATOM     20  H   UNL     1       2.295  -5.208  -3.961  0.00  0.00    +0.174 HD
BRANCH  15  21
ATOM     21  C   UNL     1       0.739  -2.027  -1.265  0.00  0.00    +0.106 C 
BRANCH  21  22
ATOM     22  C   UNL     1       0.718  -0.497  -1.257  0.00  0.00    +0.018 C 
BRANCH  22  24
ATOM     23  C   UNL     1      -0.019   1.526   0.010  0.00  0.00    +0.004 C 
ATOM     24  C   UNL     1       0.002  -0.004   0.002  0.00  0.00    -0.002 C 
ENDBRANCH  22  24
ENDBRANCH  21  22
ENDBRANCH  15  21
ENDBRANCH   1  18
TORSDOF 5
