REMARK  Name = ZINC14607739
REMARK  6 active torsions:
REMARK  status: ('A' for Active; 'I' for Inactive)
REMARK    1  A    between atoms: C_1  and  O_2
REMARK    2  A    between atoms: O_2  and  C_3
REMARK    3  A    between atoms: C_3  and  C_4
REMARK    4  A    between atoms: C_5  and  C_26
REMARK    5  A    between atoms: C_14  and  C_19
REMARK    6  A    between atoms: C_24  and  O_25
REMARK                            x       y       z     vdW  Elec       q    Type
REMARK                         _______ _______ _______ _____ _____    ______ ____
ROOT
ATOM      1  C   UNL     1      -0.742   1.585  -1.213  0.00  0.00    +0.099 A 
ATOM      2  C   UNL     1      -1.777   0.913  -1.875  0.00  0.00    +0.053 A 
ATOM      3  C   UNL     1      -2.174   1.716  -2.947  0.00  0.00    +0.186 A 
ATOM      4  N   UNL     1      -3.105   1.577  -3.897  0.00  0.00    -0.128 NA
ATOM      5  N   UNL     1      -3.279   2.478  -4.798  0.00  0.00    -0.142 NA
ATOM      6  C   UNL     1      -2.530   3.597  -4.822  0.00  0.00    +0.150 A 
ATOM      7  C   UNL     1      -1.550   3.794  -3.872  0.00  0.00    +0.076 A 
ATOM      8  N   UNL     1      -1.376   2.835  -2.918  0.00  0.00    -0.214 N 
ATOM      9  N   UNL     1      -0.506   2.717  -1.832  0.00  0.00    -0.167 NA
ATOM     10  C   UNL     1      -0.678   5.017  -3.865  0.00  0.00    +0.066 C 
ATOM     11  C   UNL     1      -1.343   6.175  -4.606  0.00  0.00    +0.036 C 
ATOM     12  C   UNL     1      -1.736   5.715  -6.016  0.00  0.00    +0.090 C 
ATOM     13  C   UNL     1      -2.764   4.613  -5.863  0.00  0.00    +0.185 C 
ATOM     14  O   UNL     1      -3.747   4.569  -6.573  0.00  0.00    -0.290 OA
ENDROOT
BRANCH  11  15
ATOM     15  C   UNL     1      -0.379   7.329  -4.704  0.00  0.00    -0.002 A 
ATOM     16  C   UNL     1       0.831   7.167  -5.351  0.00  0.00    +0.007 A 
ATOM     17  C   UNL     1       1.716   8.225  -5.440  0.00  0.00    +0.001 A 
ATOM     18  C   UNL     1       1.392   9.449  -4.884  0.00  0.00    +0.004 A 
ATOM     19  C   UNL     1       0.184   9.617  -4.236  0.00  0.00    +0.046 A 
ATOM     20  C   UNL     1      -0.708   8.557  -4.149  0.00  0.00    +0.120 A 
BRANCH  20  21
ATOM     21  O   UNL     1      -1.900   8.721  -3.518  0.00  0.00    -0.506 OA
ATOM     22  H   UNL     1      -1.874   8.524  -2.571  0.00  0.00    +0.292 HD
ENDBRANCH  20  21
ENDBRANCH  11  15
BRANCH   2  23
ATOM     23  C   UNL     1      -2.348  -0.404  -1.505  0.00  0.00    -0.012 A 
ATOM     24  C   UNL     1      -1.563  -1.554  -1.583  0.00  0.00    +0.009 A 
ATOM     25  C   UNL     1      -2.098  -2.776  -1.231  0.00  0.00    +0.001 A 
ATOM     26  C   UNL     1      -3.414  -2.863  -0.813  0.00  0.00    +0.000 A 
ATOM     27  C   UNL     1      -4.199  -1.726  -0.739  0.00  0.00    +0.001 A 
ATOM     28  C   UNL     1      -3.673  -0.498  -1.082  0.00  0.00    +0.009 A 
ENDBRANCH   2  23
BRANCH   1  29
ATOM     29  C   UNL     1      -0.013   1.086   0.008  0.00  0.00    +0.217 C 
BRANCH  29  31
ATOM     30  C   UNL     1      -0.068   1.127   2.404  0.00  0.00    +0.194 C 
ATOM     31  O   UNL     1      -0.682   1.547   1.184  0.00  0.00    -0.377 OA
ENDBRANCH  29  31
ENDBRANCH   1  29
TORSDOF 5
