REMARK  Name = ZINC64012528
REMARK  7 active torsions:
REMARK  status: ('A' for Active; 'I' for Inactive)
REMARK    1  A    between atoms: C_1  and  C_2
REMARK    2  A    between atoms: C_5  and  C_7
REMARK    3  A    between atoms: C_10  and  C_12
REMARK    4  A    between atoms: C_12  and  N_13
REMARK    5  A    between atoms: N_13  and  C_14
REMARK    6  A    between atoms: N_13  and  S_15
REMARK    7  A    between atoms: S_15  and  C_18
REMARK                            x       y       z     vdW  Elec       q    Type
REMARK                         _______ _______ _______ _____ _____    ______ ____
ROOT
ATOM      1  S   UNL     1      -3.536  -5.967   1.637  0.00  0.00    +0.061 S 
ATOM      2  O   UNL     1      -4.564  -6.438   0.776  0.00  0.00    -0.153 OA
ATOM      3  O   UNL     1      -2.984  -6.768   2.674  0.00  0.00    -0.153 OA
ENDROOT
BRANCH   1   4
ATOM      4  C   UNL     1      -4.151  -4.504   2.403  0.00  0.00    +0.107 A 
ATOM      5  C   UNL     1      -3.604  -4.096   3.636  0.00  0.00    +0.030 A 
ATOM      6  C   UNL     1      -4.032  -2.984   4.275  0.00  0.00    +0.027 A 
ATOM      7  C   UNL     1      -5.061  -2.196   3.697  0.00  0.00    +0.055 A 
ATOM      8  N   UNL     1      -5.497  -1.108   4.296  0.00  0.00    -0.276 N 
ATOM      9  C   UNL     1      -6.476  -0.374   3.727  0.00  0.00    +0.304 C 
ATOM     10  O   UNL     1      -6.883   0.630   4.274  0.00  0.00    -0.265 OA
ATOM     11  C   UNL     1      -7.056  -0.807   2.418  0.00  0.00    +0.304 C 
ATOM     12  O   UNL     1      -7.938  -0.157   1.895  0.00  0.00    -0.265 OA
ATOM     13  N   UNL     1      -6.593  -1.926   1.823  0.00  0.00    -0.276 N 
ATOM     14  C   UNL     1      -5.637  -2.626   2.397  0.00  0.00    +0.057 A 
ATOM     15  C   UNL     1      -5.130  -3.803   1.788  0.00  0.00    +0.053 A 
ATOM     16  H   UNL     1      -6.964  -2.214   0.974  0.00  0.00    +0.155 HD
ATOM     17  H   UNL     1      -5.115  -0.834   5.145  0.00  0.00    +0.155 HD
ENDBRANCH   1   4
BRANCH   1  18
ATOM     18  N   UNL     1      -2.274  -5.518   0.664  0.00  0.00    -0.172 NA
ATOM     19  C   UNL     1      -2.520  -5.151  -0.733  0.00  0.00    +0.132 C 
BRANCH  18  20
ATOM     20  C   UNL     1      -0.911  -5.486   1.200  0.00  0.00    +0.183 C 
BRANCH  20  24
ATOM     21  C   UNL     1       0.118  -2.011   1.645  0.00  0.00    +0.109 A 
ATOM     22  C   UNL     1      -0.345  -2.257   2.884  0.00  0.00    +0.045 A 
ATOM     23  C   UNL     1      -0.798  -3.596   2.893  0.00  0.00    +0.046 A 
ATOM     24  C   UNL     1      -0.584  -4.089   1.660  0.00  0.00    +0.121 A 
ATOM     25  O   UNL     1      -0.034  -3.122   0.906  0.00  0.00    -0.463 OA
BRANCH  21  29
ATOM     26  C   UNL     1      -0.019   1.526   0.010  0.00  0.00    +0.008 C 
ATOM     27  C   UNL     1       0.002  -0.004   0.002  0.00  0.00    -0.003 C 
ATOM     28  C   UNL     1       1.351  -0.691  -0.221  0.00  0.00    +0.015 C 
ATOM     29  C   UNL     1       0.703  -0.708   1.166  0.00  0.00    +0.058 C 
ENDBRANCH  21  29
ENDBRANCH  20  24
ENDBRANCH  18  20
ENDBRANCH   1  18
TORSDOF 5
