REMARK  Name = ZINC67514049
REMARK  7 active torsions:
REMARK  status: ('A' for Active; 'I' for Inactive)
REMARK    1  A    between atoms: C_1  and  C_2
REMARK    2  A    between atoms: C_2  and  C_4
REMARK    3  A    between atoms: C_2  and  N_7
REMARK    4  A    between atoms: C_8  and  C_10
REMARK    5  A    between atoms: C_13  and  C_15
REMARK    6  A    between atoms: C_15  and  O_16
REMARK    7  A    between atoms: O_16  and  C_17
REMARK                            x       y       z     vdW  Elec       q    Type
REMARK                         _______ _______ _______ _____ _____    ______ ____
ROOT
ATOM      1  C   UNL     1      -3.434  -1.153  -1.134  0.00  0.00    +0.164 A 
ATOM      2  C   UNL     1      -4.234  -1.343  -2.219  0.00  0.00    +0.230 A 
ATOM      3  O   UNL     1      -5.404  -1.818  -1.763  0.00  0.00    -0.444 OA
ATOM      4  C   UNL     1      -5.325  -1.919  -0.429  0.00  0.00    +0.234 A 
ATOM      5  N   UNL     1      -4.149  -1.529  -0.039  0.00  0.00    -0.206 NA
ENDROOT
BRANCH   1   7
ATOM      6  N   UNL     1      -1.372  -0.511   0.012  0.00  0.00    -0.299 N 
ATOM      7  C   UNL     1      -2.051  -0.643  -1.145  0.00  0.00    +0.266 C 
ATOM      8  O   UNL     1      -1.522  -0.341  -2.197  0.00  0.00    -0.268 OA
ATOM      9  H   UNL     1      -1.794  -0.752   0.852  0.00  0.00    +0.150 HD
BRANCH   6  11
ATOM     10  C   UNL     1      -0.019   1.526   0.010  0.00  0.00    +0.038 C 
ATOM     11  C   UNL     1       0.002  -0.004   0.002  0.00  0.00    +0.156 C 
BRANCH  11  12
ATOM     12  C   UNL     1       0.731  -0.503   1.223  0.00  0.00    +0.231 C 
ATOM     13  O   UNL     1       0.159  -1.213   2.023  0.00  0.00    -0.274 OA
ATOM     14  N   UNL     1       2.019  -0.161   1.426  0.00  0.00    -0.328 N 
ATOM     15  H   UNL     1       2.476   0.406   0.786  0.00  0.00    +0.145 HD
ATOM     16  H   UNL     1       2.488  -0.483   2.212  0.00  0.00    +0.145 HD
ENDBRANCH  11  12
ENDBRANCH   6  11
ENDBRANCH   1   7
BRANCH   4  17
ATOM     17  C   UNL     1      -6.425  -2.412   0.475  0.00  0.00    +0.324 C 
BRANCH  17  18
ATOM     18  O   UNL     1      -7.237  -1.308   0.883  0.00  0.00    -0.480 OA
BRANCH  18  19
ATOM     19  C   UNL     1      -8.281  -1.583   1.708  0.00  0.00    +0.147 A 
ATOM     20  C   UNL     1      -8.515  -2.865   2.116  0.00  0.00    +0.048 A 
ATOM     21  C   UNL     1      -9.580  -3.165   2.961  0.00  0.00    +0.004 A 
ATOM     22  C   UNL     1     -10.419  -2.188   3.404  0.00  0.00    +0.010 A 
ATOM     23  C   UNL     1     -10.211  -0.858   3.006  0.00  0.00    +0.004 A 
ATOM     24  C   UNL     1      -9.126  -0.544   2.151  0.00  0.00    +0.112 A 
ATOM     25  N   UNL     1      -8.920   0.721   1.774  0.00  0.00    -0.251 NA
ATOM     26  C   UNL     1      -9.702   1.690   2.183  0.00  0.00    +0.111 A 
ATOM     27  C   UNL     1     -10.784   1.452   3.029  0.00  0.00    +0.020 A 
ATOM     28  C   UNL     1     -11.057   0.179   3.443  0.00  0.00    +0.011 A 
ENDBRANCH  18  19
ENDBRANCH  17  18
ENDBRANCH   4  17
TORSDOF 6
