REMARK  Name = ZINC51127321
REMARK  4 active torsions:
REMARK  status: ('A' for Active; 'I' for Inactive)
REMARK    1  A    between atoms: C_1  and  N_2
REMARK    2  A    between atoms: N_2  and  C_3
REMARK    3  A    between atoms: C_9  and  C_11
REMARK    4  A    between atoms: N_17  and  N_18
REMARK                            x       y       z     vdW  Elec       q    Type
REMARK                         _______ _______ _______ _____ _____    ______ ____
ROOT
ATOM      1  C   UNL     1      -0.124   0.069  -2.442  0.00  0.00    +0.148 A 
ATOM      2  C   UNL     1      -0.342  -0.613  -3.646  0.00  0.00    +0.038 A 
ATOM      3  C   UNL     1      -0.355   0.124  -4.816  0.00  0.00    +0.049 A 
ATOM      4  C   UNL     1      -0.150   1.502  -4.726  0.00  0.00    +0.155 A 
ATOM      5  N   UNL     1       0.050   2.065  -3.540  0.00  0.00    -0.132 NA
ATOM      6  N   UNL     1       0.057   1.384  -2.452  0.00  0.00    -0.143 NA
ATOM      7  N   UNL     1      -0.154   2.280  -5.872  0.00  0.00    -0.266 N 
ATOM      8  H   UNL     1      -0.299   1.867  -6.738  0.00  0.00    +0.167 HD
ENDROOT
BRANCH   1  11
ATOM      9  C   UNL     1      -0.080   1.461   0.012  0.00  0.00    +0.132 C 
ATOM     10  N   UNL     1      -0.022  -0.003   0.003  0.00  0.00    -0.295 N 
ATOM     11  C   UNL     1      -0.102  -0.673  -1.163  0.00  0.00    +0.267 C 
ATOM     12  O   UNL     1      -0.155  -1.887  -1.164  0.00  0.00    -0.268 OA
BRANCH  10  13
ATOM     13  C   UNL     1       0.121  -0.738   1.262  0.00  0.00    +0.087 C 
ATOM     14  C   UNL     1       1.456  -0.357   1.902  0.00  0.00    +0.034 C 
ATOM     15  C   UNL     1       1.272   0.865   2.845  0.00  0.00    +0.071 C 
ATOM     16  S   UNL     1      -0.353   0.426   3.603  0.00  0.00    -0.159 S 
ATOM     17  C   UNL     1      -1.095  -0.429   2.156  0.00  0.00    +0.091 C 
ENDBRANCH  10  13
ENDBRANCH   1  11
BRANCH   7  18
ATOM     18  N   UNL     1       0.048   3.628  -5.783  0.00  0.00    -0.255 NA
ATOM     19  H   UNL     1       0.917   3.833  -5.314  0.00  0.00    +0.140 HD
ATOM     20  H   UNL     1       0.018   4.059  -6.695  0.00  0.00    +0.140 HD
ENDBRANCH   7  18
TORSDOF 3
