REMARK  Name = ZINC21981361
REMARK  8 active torsions:
REMARK  status: ('A' for Active; 'I' for Inactive)
REMARK    1  A    between atoms: C_1  and  N_2
REMARK    2  A    between atoms: N_2  and  C_3
REMARK    3  A    between atoms: C_3  and  C_4
REMARK    4  A    between atoms: C_4  and  O_5
REMARK    5  A    between atoms: O_5  and  C_6
REMARK    6  A    between atoms: C_9  and  C_12
REMARK    7  A    between atoms: C_12  and  C_13
REMARK    8  A    between atoms: C_24  and  O_27
REMARK                            x       y       z     vdW  Elec       q    Type
REMARK                         _______ _______ _______ _____ _____    ______ ____
ROOT
ATOM      1  C   UNL     1      -0.481   1.945   3.633  0.00  0.00    +0.121 A 
ATOM      2  C   UNL     1      -1.672   2.653   3.706  0.00  0.00    +0.046 A 
ATOM      3  C   UNL     1      -2.183   3.017   4.937  0.00  0.00    +0.007 A 
ATOM      4  C   UNL     1      -1.502   2.687   6.095  0.00  0.00    -0.046 A 
ATOM      5  C   UNL     1      -0.312   1.986   6.024  0.00  0.00    +0.007 A 
ATOM      6  C   UNL     1       0.199   1.614   4.796  0.00  0.00    +0.046 A 
ENDROOT
BRANCH   1   7
ATOM      7  O   UNL     1       0.020   1.580   2.424  0.00  0.00    -0.490 OA
BRANCH   7   8
ATOM      8  C   UNL     1      -0.734   1.954   1.269  0.00  0.00    +0.248 C 
BRANCH   8   9
ATOM      9  C   UNL     1      -0.018   1.461   0.010  0.00  0.00    +0.147 C 
BRANCH   9  11
ATOM     10  C   UNL     1       1.117  -0.725   0.622  0.00  0.00    +0.130 C 
ATOM     11  N   UNL     1       0.002  -0.004   0.002  0.00  0.00    -0.316 N 
ATOM     12  C   UNL     1      -1.038  -0.711  -0.595  0.00  0.00    +0.099 A 
ATOM     13  C   UNL     1      -2.039  -0.022  -1.272  0.00  0.00    +0.045 A 
ATOM     14  C   UNL     1      -3.068  -0.735  -1.861  0.00  0.00    +0.050 A 
ATOM     15  C   UNL     1      -3.061  -2.123  -1.752  0.00  0.00    +0.133 A 
ATOM     16  C   UNL     1      -2.032  -2.742  -1.063  0.00  0.00    +0.129 A 
ATOM     17  N   UNL     1      -1.062  -2.032  -0.516  0.00  0.00    -0.346 N 
ATOM     18  H   UNL     1      -0.260  -2.566   0.014  0.00  0.00    +0.167 HD
BRANCH  15  19
ATOM     19  O   UNL     1      -4.053  -2.862  -2.317  0.00  0.00    -0.505 OA
ATOM     20  H   UNL     1      -4.041  -3.959  -2.227  0.00  0.00    +0.292 HD
ENDBRANCH  15  19
ENDBRANCH   9  11
ENDBRANCH   8   9
ENDBRANCH   7   8
ENDBRANCH   1   7
BRANCH   4  21
ATOM     21  C   UNL     1      -2.058   3.091   7.436  0.00  0.00    +0.059 C 
BRANCH  21  22
ATOM     22  C   UNL     1      -1.518   4.471   7.816  0.00  0.00    +0.146 C 
ATOM     23  C   UNL     1      -2.148   4.976   9.107  0.00  0.00    +0.234 C 
ATOM     24  O   UNL     1      -3.338   5.184   9.209  0.00  0.00    -0.274 OA
ATOM     25  N   UNL     1      -1.308   5.171  10.109  0.00  0.00    -0.246 N 
ATOM     26  C   UNL     1       0.016   4.948  10.019  0.00  0.00    +0.279 C 
ATOM     27  O   UNL     1       0.862   5.097  10.879  0.00  0.00    -0.263 OA
ATOM     28  S   UNL     1       0.240   4.379   8.340  0.00  0.00    -0.054 S 
ATOM     29  H   UNL     1      -1.682   5.535  11.078  0.00  0.00    +0.158 HD
ENDBRANCH  21  22
ENDBRANCH   4  21
TORSDOF 7
