REMARK  Name = ZINC51840056
REMARK  9 active torsions:
REMARK  status: ('A' for Active; 'I' for Inactive)
REMARK    1  A    between atoms: C_1  and  C_2
REMARK    2  A    between atoms: C_2  and  C_4
REMARK    3  A    between atoms: C_2  and  O_18
REMARK    4  A    between atoms: C_4  and  N_5
REMARK    5  A    between atoms: N_5  and  C_6
REMARK    6  A    between atoms: N_5  and  S_7
REMARK    7  A    between atoms: S_7  and  C_10
REMARK    8  A    between atoms: C_15  and  N_16
REMARK    9  A    between atoms: N_16  and  N_17
REMARK                            x       y       z     vdW  Elec       q    Type
REMARK                         _______ _______ _______ _____ _____    ______ ____
ROOT
ATOM      1  C   UNL     1       1.547  -3.380   0.859  0.00  0.00    +0.127 A 
ATOM      2  C   UNL     1       1.338  -4.670   1.306  0.00  0.00    +0.030 A 
ATOM      3  C   UNL     1       1.305  -4.936   2.662  0.00  0.00    +0.002 A 
ATOM      4  C   UNL     1       1.481  -3.913   3.576  0.00  0.00    +0.002 A 
ATOM      5  C   UNL     1       1.691  -2.621   3.136  0.00  0.00    +0.026 A 
ATOM      6  C   UNL     1       1.730  -2.350   1.774  0.00  0.00    +0.067 A 
ENDROOT
BRANCH   1   7
ATOM      7  S   UNL     1       1.588  -3.041  -0.869  0.00  0.00    +0.062 S 
ATOM      8  O   UNL     1       1.348  -4.275  -1.531  0.00  0.00    -0.153 OA
ATOM      9  O   UNL     1       2.756  -2.266  -1.103  0.00  0.00    -0.153 OA
BRANCH   7  10
ATOM     10  N   UNL     1       0.296  -2.062  -1.208  0.00  0.00    -0.177 NA
ATOM     11  C   UNL     1       0.471  -0.609  -1.257  0.00  0.00    +0.131 C 
BRANCH  10  12
ATOM     12  C   UNL     1      -1.022  -2.650  -1.457  0.00  0.00    +0.140 C 
BRANCH  12  14
ATOM     13  C   UNL     1      -2.676  -3.259  -3.229  0.00  0.00    +0.039 C 
ATOM     14  C   UNL     1      -1.249  -2.773  -2.965  0.00  0.00    +0.127 C 
BRANCH  14  15
ATOM     15  O   UNL     1      -0.318  -3.711  -3.512  0.00  0.00    -0.391 OA
ATOM     16  H   UNL     1      -0.347  -3.776  -4.476  0.00  0.00    +0.210 HD
ENDBRANCH  14  15
ENDBRANCH  12  14
ENDBRANCH  10  12
ENDBRANCH   7  10
ENDBRANCH   1   7
BRANCH   6  17
ATOM     17  N   UNL     1       1.947  -1.046   1.326  0.00  0.00    -0.281 N 
ATOM     18  H   UNL     1       1.998  -0.862   0.375  0.00  0.00    +0.166 HD
BRANCH  17  19
ATOM     19  N   UNL     1       2.088  -0.028   2.227  0.00  0.00    -0.256 NA
ATOM     20  H   UNL     1       2.833  -0.223   2.878  0.00  0.00    +0.140 HD
ATOM     21  H   UNL     1       2.238   0.852   1.757  0.00  0.00    +0.140 HD
ENDBRANCH  17  19
ENDBRANCH   6  17
TORSDOF 7
