REMARK  Name = ZINC45145573
REMARK  9 active torsions:
REMARK  status: ('A' for Active; 'I' for Inactive)
REMARK    1  A    between atoms: C_1  and  C_2
REMARK    2  A    between atoms: C_2  and  C_4
REMARK    3  A    between atoms: C_2  and  N_8
REMARK    4  A    between atoms: N_5  and  O_6
REMARK    5  A    between atoms: N_8  and  C_9
REMARK    6  A    between atoms: N_12  and  C_13
REMARK    7  A    between atoms: C_13  and  C_14
REMARK    8  A    between atoms: C_13  and  C_15
REMARK    9  A    between atoms: C_13  and  C_16
REMARK                            x       y       z     vdW  Elec       q    Type
REMARK                         _______ _______ _______ _____ _____    ______ ____
ROOT
ATOM      1  N   UNL     1      -1.353  -0.615   0.038  0.00  0.00    -0.279 N 
ATOM      2  C   UNL     1      -2.296  -0.474  -1.074  0.00  0.00    +0.134 C 
ATOM      3  C   UNL     1      -1.614  -1.481   1.038  0.00  0.00    +0.303 C 
ATOM      4  O   UNL     1      -0.831  -1.597   1.961  0.00  0.00    -0.253 OA
ATOM      5  N   UNL     1      -2.743  -2.217   1.014  0.00  0.00    -0.294 N 
ATOM      6  H   UNL     1      -3.367  -2.124   0.278  0.00  0.00    +0.151 HD
ENDROOT
BRANCH   5   7
ATOM      7  C   UNL     1      -3.026  -3.158   2.100  0.00  0.00    +0.028 C 
ATOM      8  C   UNL     1      -3.109  -2.397   3.425  0.00  0.00    +0.031 C 
ATOM      9  C   UNL     1      -4.359  -3.860   1.832  0.00  0.00    +0.031 C 
ATOM     10  C   UNL     1      -1.908  -4.199   2.179  0.00  0.00    +0.031 C 
ENDBRANCH   5   7
BRANCH   1  12
ATOM     11  C   UNL     1      -0.484   1.671  -0.015  0.00  0.00    +0.036 C 
ATOM     12  C   UNL     1      -0.126   0.185   0.064  0.00  0.00    +0.141 C 
BRANCH  12  13
ATOM     13  C   UNL     1       0.741  -0.186  -1.112  0.00  0.00    +0.152 C 
ATOM     14  N   UNL     1       0.394  -1.158  -1.889  0.00  0.00    -0.075 NA
ATOM     15  N   UNL     1       1.903   0.511  -1.358  0.00  0.00    -0.342 N 
ATOM     16  H   UNL     1       2.207   1.185  -0.729  0.00  0.00    +0.144 HD
ATOM     17  H   UNL     1       2.417   0.329  -2.160  0.00  0.00    +0.144 HD
BRANCH  14  18
ATOM     18  O   UNL     1       1.208  -1.506  -2.994  0.00  0.00    -0.408 OA
ATOM     19  H   UNL     1       0.867  -2.245  -3.516  0.00  0.00    +0.328 HD
ENDBRANCH  14  18
ENDBRANCH  12  13
ENDBRANCH   1  12
TORSDOF 4
