REMARK  Name = ZINC16975639
REMARK  2 active torsions:
REMARK  status: ('A' for Active; 'I' for Inactive)
REMARK    1  A    between atoms: C_1  and  C_2
REMARK    2  A    between atoms: C_7  and  C_22
REMARK                            x       y       z     vdW  Elec       q    Type
REMARK                         _______ _______ _______ _____ _____    ______ ____
ROOT
ATOM      1  C   UNL     1      -4.944   0.801  -0.111  0.00  0.00    +0.008 C 
ATOM      2  C   UNL     1      -3.661   1.494   0.353  0.00  0.00    -0.001 C 
ATOM      3  C   UNL     1      -2.459   0.912  -0.394  0.00  0.00    +0.055 C 
ATOM      4  C   UNL     1      -1.206   1.637   0.017  0.00  0.00    +0.020 C 
ATOM      5  C   UNL     1      -1.240   2.933   0.404  0.00  0.00    +0.041 C 
ATOM      6  C   UNL     1       0.028   3.638   0.814  0.00  0.00    +0.173 C 
ATOM      7  N   UNL     1       1.209   2.914   0.366  0.00  0.00    -0.243 NA
ATOM      8  C   UNL     1       1.171   1.673  -0.000  0.00  0.00    +0.186 C 
ATOM      9  N   UNL     1      -0.011   0.966   0.007  0.00  0.00    -0.290 N 
ATOM     10  N   UNL     1       2.331   1.050  -0.405  0.00  0.00    -0.266 N 
ATOM     11  C   UNL     1       3.525   1.750  -0.417  0.00  0.00    +0.165 A 
ATOM     12  N   UNL     1       4.720   1.333  -0.766  0.00  0.00    -0.225 NA
ATOM     13  C   UNL     1       5.807   2.134  -0.727  0.00  0.00    +0.080 A 
ATOM     14  C   UNL     1       7.140   1.814  -1.073  0.00  0.00    +0.029 A 
ATOM     15  C   UNL     1       8.134   2.752  -0.976  0.00  0.00    +0.002 A 
ATOM     16  C   UNL     1       7.872   4.043  -0.538  0.00  0.00    +0.001 A 
ATOM     17  C   UNL     1       6.580   4.391  -0.192  0.00  0.00    +0.017 A 
ATOM     18  C   UNL     1       5.578   3.457  -0.285  0.00  0.00    +0.041 A 
ATOM     19  S   UNL     1       3.830   3.453   0.031  0.00  0.00    -0.052 S 
ATOM     20  C   UNL     1      -2.448   3.648   0.430  0.00  0.00    +0.163 C 
ATOM     21  O   UNL     1      -2.444   4.815   0.769  0.00  0.00    -0.292 OA
ATOM     22  C   UNL     1      -3.747   2.993   0.045  0.00  0.00    +0.083 C 
ATOM     23  H   UNL     1       0.002  -0.134   0.006  0.00  0.00    +0.154 HD
ATOM     24  H   UNL     1       2.309  -0.004  -0.719  0.00  0.00    +0.157 HD
ENDROOT
BRANCH   6  25
ATOM     25  C   UNL     1       0.039   5.020   0.213  0.00  0.00    -0.013 A 
ATOM     26  C   UNL     1       0.449   5.200  -1.095  0.00  0.00    +0.044 A 
ATOM     27  C   UNL     1       0.455   6.469  -1.650  0.00  0.00    +0.126 A 
ATOM     28  C   UNL     1       0.062   7.558  -0.891  0.00  0.00    +0.076 A 
ATOM     29  C   UNL     1      -0.343   7.376   0.420  0.00  0.00    +0.126 A 
ATOM     30  C   UNL     1      -0.354   6.106   0.972  0.00  0.00    +0.044 A 
ATOM     31  F   UNL     1      -0.726   8.438   1.163  0.00  0.00    -0.205 F 
ATOM     32  F   UNL     1       0.851   6.645  -2.929  0.00  0.00    -0.205 F 
ENDBRANCH   6  25
TORSDOF 1
