REMARK  Name = ZINC39664755
REMARK  9 active torsions:
REMARK  status: ('A' for Active; 'I' for Inactive)
REMARK    1  A    between atoms: C_1  and  N_2
REMARK    2  A    between atoms: C_6  and  C_7
REMARK    3  A    between atoms: C_11  and  C_20
REMARK    4  A    between atoms: N_22  and  C_23
REMARK    5  A    between atoms: C_23  and  C_25
REMARK    6  A    between atoms: C_23  and  C_29
REMARK    7  A    between atoms: C_25  and  N_26
REMARK    8  A    between atoms: N_26  and  C_27
REMARK    9  A    between atoms: N_26  and  C_28
REMARK                            x       y       z     vdW  Elec       q    Type
REMARK                         _______ _______ _______ _____ _____    ______ ____
ROOT
ATOM      1  C   UNL     1      -0.768  -0.631   2.096  0.00  0.00    +0.263 C 
ATOM      2  O   UNL     1      -0.733  -1.480   2.967  0.00  0.00    -0.268 OA
ATOM      3  N   UNL     1      -0.821   0.674   2.429  0.00  0.00    -0.295 N 
ATOM      4  C   UNL     1      -1.013   1.834   1.527  0.00  0.00    +0.121 C 
ATOM      5  C   UNL     1      -1.943   2.788   2.310  0.00  0.00    +0.100 C 
ATOM      6  C   UNL     1      -1.732   2.416   3.787  0.00  0.00    -0.004 C 
ATOM      7  C   UNL     1      -0.707   1.272   3.780  0.00  0.00    +0.115 C 
ATOM      8  C   UNL     1      -3.043   1.938   4.404  0.00  0.00    -0.010 C 
ATOM      9  C   UNL     1      -2.821   1.628   5.887  0.00  0.00    -0.082 C 
ATOM     10  N   UNL     1      -2.345   2.834   6.575  0.00  0.00    +0.379 N 
ATOM     11  C   UNL     1      -1.039   3.234   6.038  0.00  0.00    -0.082 C 
ATOM     12  C   UNL     1      -1.185   3.612   4.561  0.00  0.00    -0.010 C 
ATOM     13  H   UNL     1      -3.008   3.582   6.436  0.00  0.00    -0.086 HD
ATOM     14  H   UNL     1      -2.258   2.645   7.562  0.00  0.00    -0.086 HD
ENDROOT
BRANCH   1  20
ATOM     15  C   UNL     1      -1.000  -3.523   1.010  0.00  0.00    +0.149 C 
ATOM     16  N   UNL     1      -0.856  -2.312   0.198  0.00  0.00    -0.346 N 
ATOM     17  C   UNL     1      -0.808  -2.268  -1.156  0.00  0.00    +0.086 A 
ATOM     18  C   UNL     1      -0.671  -0.979  -1.548  0.00  0.00    +0.020 A 
ATOM     19  C   UNL     1      -0.631  -0.183  -0.399  0.00  0.00    +0.032 A 
ATOM     20  C   UNL     1      -0.754  -1.028   0.684  0.00  0.00    +0.104 A 
ENDBRANCH   1  20
BRANCH   5  21
ATOM     21  C   UNL     1      -1.549   4.222   2.067  0.00  0.00    +0.219 C 
ATOM     22  O   UNL     1      -0.382   4.512   1.906  0.00  0.00    -0.275 OA
ATOM     23  N   UNL     1      -2.493   5.183   2.027  0.00  0.00    -0.310 N 
ATOM     24  H   UNL     1      -3.417   4.964   2.228  0.00  0.00    +0.149 HD
BRANCH  23  25
ATOM     25  C   UNL     1      -2.125   6.558   1.682  0.00  0.00    +0.087 C 
BRANCH  25  26
ATOM     26  C   UNL     1      -3.076   7.516   2.353  0.00  0.00    -0.029 A 
ATOM     27  C   UNL     1      -4.423   7.216   2.425  0.00  0.00    +0.005 A 
ATOM     28  C   UNL     1      -5.295   8.095   3.040  0.00  0.00    +0.000 A 
ATOM     29  C   UNL     1      -4.820   9.273   3.583  0.00  0.00    +0.000 A 
ATOM     30  C   UNL     1      -3.472   9.573   3.512  0.00  0.00    +0.000 A 
ATOM     31  C   UNL     1      -2.600   8.693   2.901  0.00  0.00    +0.005 A 
ENDBRANCH  25  26
BRANCH  25  32
ATOM     32  C   UNL     1      -2.202   6.742   0.165  0.00  0.00    -0.052 C 
BRANCH  32  33
ATOM     33  N   UNL     1      -1.717   8.082  -0.191  0.00  0.00    +0.377 N 
ATOM     34  C   UNL     1      -0.282   8.179   0.107  0.00  0.00    -0.097 C 
ATOM     35  C   UNL     1      -1.937   8.316  -1.625  0.00  0.00    -0.097 C 
ATOM     36  H   UNL     1      -2.220   8.774   0.344  0.00  0.00    -0.083 HD
ENDBRANCH  32  33
ENDBRANCH  25  32
ENDBRANCH  23  25
ENDBRANCH   5  21
TORSDOF 6
