REMARK  Name = ZINC41585982
REMARK  11 active torsions:
REMARK  status: ('A' for Active; 'I' for Inactive)
REMARK    1  A    between atoms: C_1  and  C_2
REMARK    2  A    between atoms: C_2  and  C_3
REMARK    3  A    between atoms: C_3  and  O_4
REMARK    4  A    between atoms: O_4  and  C_5
REMARK    5  A    between atoms: C_5  and  C_7
REMARK    6  A    between atoms: C_10  and  O_13
REMARK    7  A    between atoms: O_13  and  C_14
REMARK    8  A    between atoms: C_15  and  C_39
REMARK    9  A    between atoms: C_23  and  O_38
REMARK   10  A    between atoms: C_24  and  C_25
REMARK   11  A    between atoms: C_25  and  N_26
REMARK                            x       y       z     vdW  Elec       q    Type
REMARK                         _______ _______ _______ _____ _____    ______ ____
ROOT
ATOM      1  C   UNL     1       2.172  -8.812   3.533  0.00  0.00    +0.213 A 
ATOM      2  C   UNL     1       2.664  -8.114   4.576  0.00  0.00    +0.148 A 
ATOM      3  O   UNL     1       3.244  -8.700   5.632  0.00  0.00    -0.456 OA
ATOM      4  C   UNL     1       3.380 -10.038   5.731  0.00  0.00    +0.147 A 
ATOM      5  C   UNL     1       2.902 -10.867   4.701  0.00  0.00    +0.068 A 
ATOM      6  C   UNL     1       2.258 -10.234   3.537  0.00  0.00    +0.235 A 
ATOM      7  O   UNL     1       1.819 -10.899   2.614  0.00  0.00    -0.283 OA
ATOM      8  C   UNL     1       3.036 -12.253   4.793  0.00  0.00    +0.019 A 
ATOM      9  C   UNL     1       3.634 -12.803   5.891  0.00  0.00    +0.046 A 
ATOM     10  C   UNL     1       4.110 -11.990   6.917  0.00  0.00    +0.125 A 
ATOM     11  C   UNL     1       3.985 -10.613   6.840  0.00  0.00    +0.051 A 
ATOM     12  C   UNL     1       2.558  -6.611   4.553  0.00  0.00    +0.090 C 
ENDROOT
BRANCH  10  13
ATOM     13  O   UNL     1       4.702 -12.552   8.001  0.00  0.00    -0.506 OA
ATOM     14  H   UNL     1       5.659 -12.666   7.912  0.00  0.00    +0.292 HD
ENDBRANCH  10  13
BRANCH   1  15
ATOM     15  O   UNL     1       1.593  -8.163   2.487  0.00  0.00    -0.449 OA
BRANCH  15  19
ATOM     16  C   UNL     1       3.493  -8.309  -1.175  0.00  0.00    +0.059 A 
ATOM     17  C   UNL     1       2.236  -7.708  -1.061  0.00  0.00    +0.018 A 
ATOM     18  C   UNL     1       1.605  -7.662   0.162  0.00  0.00    +0.047 A 
ATOM     19  C   UNL     1       2.217  -8.211   1.283  0.00  0.00    +0.129 A 
ATOM     20  C   UNL     1       3.468  -8.810   1.174  0.00  0.00    +0.047 A 
ATOM     21  C   UNL     1       4.102  -8.866  -0.046  0.00  0.00    +0.018 A 
BRANCH  16  22
ATOM     22  C   UNL     1       4.171  -8.362  -2.483  0.00  0.00    +0.339 C 
ATOM     23  O   UNL     1       5.262  -8.889  -2.581  0.00  0.00    -0.245 OA
BRANCH  22  24
ATOM     24  O   UNL     1       3.583  -7.824  -3.569  0.00  0.00    -0.461 OA
BRANCH  24  25
ATOM     25  C   UNL     1       4.297  -7.911  -4.804  0.00  0.00    +0.232 C 
BRANCH  25  27
ATOM     26  C   UNL     1       4.242  -7.344  -7.237  0.00  0.00    +0.007 C 
ATOM     27  C   UNL     1       3.477  -7.252  -5.915  0.00  0.00    +0.038 C 
ENDBRANCH  25  27
ENDBRANCH  24  25
ENDBRANCH  22  24
ENDBRANCH  16  22
ENDBRANCH  15  19
ENDBRANCH   1  15
BRANCH  11  28
ATOM     28  C   UNL     1       4.505  -9.742   7.955  0.00  0.00    +0.127 C 
BRANCH  28  29
ATOM     29  N   UNL     1       3.444  -9.536   8.950  0.00  0.00    -0.295 NA
ATOM     30  C   UNL     1       3.094 -10.798   9.615  0.00  0.00    +0.103 C 
ATOM     31  C   UNL     1       1.868 -10.578  10.508  0.00  0.00    +0.122 C 
ATOM     32  N   UNL     1       2.146  -9.453  11.414  0.00  0.00    -0.314 N 
ATOM     33  C   UNL     1       2.634  -8.194  10.831  0.00  0.00    +0.122 C 
ATOM     34  C   UNL     1       3.829  -8.508   9.925  0.00  0.00    +0.103 C 
ATOM     35  C   UNL     1       1.953  -9.577  12.785  0.00  0.00    +0.099 A 
ATOM     36  C   UNL     1       2.332  -8.539  13.631  0.00  0.00    +0.042 A 
ATOM     37  C   UNL     1       2.135  -8.675  14.993  0.00  0.00    +0.005 A 
ATOM     38  C   UNL     1       1.563  -9.850  15.466  0.00  0.00    +0.018 A 
ATOM     39  C   UNL     1       1.211 -10.838  14.570  0.00  0.00    +0.084 A 
ATOM     40  N   UNL     1       1.406 -10.679  13.274  0.00  0.00    -0.350 N 
ATOM     41  H   UNL     1       1.146 -11.388  12.666  0.00  0.00    +0.166 HD
ENDBRANCH  28  29
ENDBRANCH  11  28
TORSDOF 9
