REMARK  Name = ZINC13522222
REMARK  5 active torsions:
REMARK  status: ('A' for Active; 'I' for Inactive)
REMARK    1  A    between atoms: C_1  and  C_2
REMARK    2  A    between atoms: C_2  and  C_3
REMARK    3  A    between atoms: C_3  and  S_4
REMARK    4  A    between atoms: S_4  and  C_5
REMARK    5  A    between atoms: C_16  and  C_19
REMARK                            x       y       z     vdW  Elec       q    Type
REMARK                         _______ _______ _______ _____ _____    ______ ____
ROOT
ATOM      1  C   UNL     1       1.589  -2.718  -2.758  0.00  0.00    +0.171 A 
ATOM      2  N   UNL     1       2.025  -1.749  -3.536  0.00  0.00    -0.185 NA
ATOM      3  C   UNL     1       2.674  -1.986  -4.679  0.00  0.00    +0.282 A 
ATOM      4  C   UNL     1       2.917  -3.387  -5.098  0.00  0.00    +0.075 A 
ATOM      5  C   UNL     1       3.597  -3.877  -6.297  0.00  0.00    -0.022 A 
ATOM      6  C   UNL     1       3.688  -5.215  -6.445  0.00  0.00    -0.004 A 
ATOM      7  S   UNL     1       2.884  -5.886  -5.014  0.00  0.00    -0.075 S 
ATOM      8  C   UNL     1       2.431  -4.363  -4.228  0.00  0.00    +0.092 A 
ATOM      9  N   UNL     1       1.784  -4.029  -3.078  0.00  0.00    -0.328 N 
ATOM     10  C   UNL     1       4.328  -5.963  -7.574  0.00  0.00    +0.043 C 
ATOM     11  C   UNL     1       4.548  -4.987  -8.738  0.00  0.00    +0.009 C 
ATOM     12  C   UNL     1       5.195  -3.710  -8.193  0.00  0.00    -0.009 C 
ATOM     13  C   UNL     1       4.185  -2.936  -7.346  0.00  0.00    +0.040 C 
ATOM     14  C   UNL     1       5.654  -2.834  -9.361  0.00  0.00    +0.008 C 
ATOM     15  O   UNL     1       3.061  -1.058  -5.372  0.00  0.00    -0.265 OA
ATOM     16  H   UNL     1       1.457  -4.725  -2.486  0.00  0.00    +0.168 HD
ENDROOT
BRANCH   1  17
ATOM     17  S   UNL     1       0.743  -2.311  -1.267  0.00  0.00    -0.088 S 
BRANCH  17  18
ATOM     18  C   UNL     1       0.718  -0.497  -1.257  0.00  0.00    +0.077 C 
BRANCH  18  20
ATOM     19  C   UNL     1      -0.019   1.526   0.010  0.00  0.00    +0.004 C 
ATOM     20  C   UNL     1       0.002  -0.004   0.002  0.00  0.00    +0.008 C 
ENDBRANCH  18  20
ENDBRANCH  17  18
ENDBRANCH   1  17
TORSDOF 3
