REMARK  Name = ZINC39918640
REMARK  13 active torsions:
REMARK  status: ('A' for Active; 'I' for Inactive)
REMARK    1  A    between atoms: C_1  and  C_2
REMARK    2  A    between atoms: C_2  and  C_3
REMARK    3  A    between atoms: C_3  and  C_4
REMARK    4  A    between atoms: C_4  and  N_5
REMARK    5  A    between atoms: C_18  and  C_31
REMARK    6  A    between atoms: N_19  and  C_22
REMARK    7  A    between atoms: C_22  and  C_23
REMARK    8  A    between atoms: C_28  and  O_29
REMARK    9  A    between atoms: O_29  and  C_30
REMARK   10  A    between atoms: C_33  and  N_39
REMARK   11  A    between atoms: C_34  and  C_35
REMARK   12  A    between atoms: C_35  and  O_37
REMARK   13  A    between atoms: O_37  and  C_38
REMARK                            x       y       z     vdW  Elec       q    Type
REMARK                         _______ _______ _______ _____ _____    ______ ____
ROOT
ATOM      1  N   UNL     1       1.816  -2.522  -2.063  0.00  0.00    -0.270 N 
ATOM      2  C   UNL     1       0.998  -2.795  -3.145  0.00  0.00    +0.041 A 
ATOM      3  C   UNL     1      -0.389  -2.693  -3.255  0.00  0.00    +0.024 A 
ATOM      4  C   UNL     1      -0.955  -3.036  -4.473  0.00  0.00    +0.002 A 
ATOM      5  C   UNL     1      -0.191  -3.462  -5.540  0.00  0.00    +0.000 A 
ATOM      6  C   UNL     1       1.192  -3.568  -5.443  0.00  0.00    +0.007 A 
ATOM      7  C   UNL     1       1.762  -3.227  -4.236  0.00  0.00    -0.002 A 
ATOM      8  C   UNL     1       3.188  -3.216  -3.781  0.00  0.00    +0.144 C 
ATOM      9  C   UNL     1       3.118  -2.736  -2.345  0.00  0.00    +0.240 C 
ATOM     10  O   UNL     1       4.055  -2.577  -1.591  0.00  0.00    -0.274 OA
ATOM     11  C   UNL     1       3.781  -4.595  -3.837  0.00  0.00    +0.083 A 
ATOM     12  C   UNL     1       4.710  -4.919  -4.805  0.00  0.00    +0.142 A 
ATOM     13  C   UNL     1       5.248  -6.223  -4.824  0.00  0.00    +0.068 A 
ATOM     14  C   UNL     1       4.847  -7.128  -3.906  0.00  0.00    +0.023 A 
ATOM     15  N   UNL     1       3.929  -6.802  -2.959  0.00  0.00    -0.308 N 
ATOM     16  C   UNL     1       3.396  -5.567  -2.905  0.00  0.00    +0.260 A 
ATOM     17  O   UNL     1       2.575  -5.294  -2.044  0.00  0.00    -0.267 OA
ATOM     18  C   UNL     1       5.424  -8.520  -3.933  0.00  0.00    +0.064 C 
ATOM     19  O   UNL     1       5.105  -4.013  -5.724  0.00  0.00    -0.441 OA
ATOM     20  C   UNL     1       4.905  -2.703  -5.510  0.00  0.00    +0.196 C 
ATOM     21  C   UNL     1       4.004  -2.255  -4.597  0.00  0.00    +0.117 C 
ENDROOT
BRANCH  20  22
ATOM     22  N   UNL     1       5.628  -1.792  -6.233  0.00  0.00    -0.329 N 
ATOM     23  H   UNL     1       6.334  -2.095  -6.826  0.00  0.00    +0.145 HD
ATOM     24  H   UNL     1       5.435  -0.845  -6.152  0.00  0.00    +0.145 HD
ENDBRANCH  20  22
BRANCH  21  25
ATOM     25  C   UNL     1       3.832  -0.874  -4.414  0.00  0.00    +0.341 C 
ATOM     26  O   UNL     1       2.881  -0.307  -4.920  0.00  0.00    -0.245 OA
BRANCH  25  27
ATOM     27  O   UNL     1       4.722  -0.175  -3.678  0.00  0.00    -0.465 OA
ATOM     28  C   UNL     1       4.486   1.227  -3.534  0.00  0.00    +0.280 C 
ENDBRANCH  25  27
ENDBRANCH  21  25
BRANCH   1  29
ATOM     29  C   UNL     1       1.327  -2.051  -0.765  0.00  0.00    +0.114 C 
BRANCH  29  30
ATOM     30  C   UNL     1       1.284  -0.521  -0.761  0.00  0.00    +0.019 C 
BRANCH  30  32
ATOM     31  C   UNL     1       0.730   1.500   0.599  0.00  0.00    +0.004 C 
ATOM     32  C   UNL     1       0.773  -0.029   0.595  0.00  0.00    -0.002 C 
ENDBRANCH  30  32
ENDBRANCH  29  30
ENDBRANCH   1  29
BRANCH  15  33
ATOM     33  C   UNL     1       3.513  -7.809  -1.980  0.00  0.00    +0.164 C 
BRANCH  33  34
ATOM     34  C   UNL     1       4.416  -7.742  -0.775  0.00  0.00    +0.014 A 
ATOM     35  C   UNL     1       5.452  -8.645  -0.635  0.00  0.00    +0.009 A 
ATOM     36  C   UNL     1       6.279  -8.583   0.470  0.00  0.00    +0.001 A 
ATOM     37  C   UNL     1       6.073  -7.618   1.438  0.00  0.00    +0.004 A 
ATOM     38  C   UNL     1       5.039  -6.712   1.303  0.00  0.00    +0.046 A 
ATOM     39  C   UNL     1       4.210  -6.768   0.192  0.00  0.00    +0.125 A 
BRANCH  39  40
ATOM     40  O   UNL     1       3.196  -5.875   0.053  0.00  0.00    -0.495 OA
ATOM     41  C   UNL     1       3.044  -4.901   1.088  0.00  0.00    +0.277 C 
ENDBRANCH  39  40
ENDBRANCH  33  34
ENDBRANCH  15  33
TORSDOF 9
