REMARK  Name = ZINC55329715
REMARK  5 active torsions:
REMARK  status: ('A' for Active; 'I' for Inactive)
REMARK    1  A    between atoms: C_1  and  C_2
REMARK    2  A    between atoms: C_2  and  N_7
REMARK    3  A    between atoms: N_7  and  S_8
REMARK    4  A    between atoms: S_8  and  C_11
REMARK    5  A    between atoms: C_13  and  C_17
REMARK                            x       y       z     vdW  Elec       q    Type
REMARK                         _______ _______ _______ _____ _____    ______ ____
ROOT
ATOM      1  S   UNL     1      -2.421  -0.029  -1.199  0.00  0.00    +0.063 S 
ATOM      2  O   UNL     1      -1.894  -0.277  -2.495  0.00  0.00    -0.153 OA
ATOM      3  O   UNL     1      -3.648  -0.592  -0.754  0.00  0.00    -0.153 OA
ENDROOT
BRANCH   1   4
ATOM      4  C   UNL     1      -2.586   1.719  -1.048  0.00  0.00    +0.158 A 
ATOM      5  C   UNL     1      -2.282   2.670  -2.031  0.00  0.00    +0.086 A 
ATOM      6  C   UNL     1      -2.563   3.904  -1.484  0.00  0.00    +0.219 A 
ATOM      7  O   UNL     1      -3.017   3.705  -0.227  0.00  0.00    -0.439 OA
ATOM      8  C   UNL     1      -3.037   2.393   0.036  0.00  0.00    +0.197 A 
ATOM      9 BR   UNL     1      -3.600   1.608   1.661  0.00  0.00    -0.006 Br
BRANCH   6  10
ATOM     10  C   UNL     1      -2.404   5.158  -2.125  0.00  0.00    +0.421 C 
ATOM     11  O   UNL     1      -1.981   5.209  -3.274  0.00  0.00    -0.237 OA
ATOM     12  O   UNL     1      -2.689   6.191  -1.532  0.00  0.00    -0.237 OA
ENDBRANCH   6  10
ENDBRANCH   1   4
BRANCH   1  13
ATOM     13  N   UNL     1      -1.262  -0.506  -0.117  0.00  0.00    -0.184 NA
ATOM     14  H   UNL     1      -1.508  -1.040   0.654  0.00  0.00    +0.149 HD
BRANCH  13  16
ATOM     15  C   UNL     1       0.243   1.396  -0.490  0.00  0.00    +0.029 C 
ATOM     16  C   UNL     1       0.137  -0.121  -0.325  0.00  0.00    +0.037 C 
ATOM     17  C   UNL     1       0.699  -0.827  -1.571  0.00  0.00    +0.023 C 
ATOM     18  C   UNL     1       1.880  -1.695  -1.089  0.00  0.00    +0.002 C 
ATOM     19  C   UNL     1       1.585  -1.941   0.411  0.00  0.00    +0.002 C 
ATOM     20  C   UNL     1       0.996  -0.584   0.870  0.00  0.00    +0.023 C 
ENDBRANCH  13  16
ENDBRANCH   1  13
TORSDOF 4
