REMARK  Name = ZINC39609600
REMARK  10 active torsions:
REMARK  status: ('A' for Active; 'I' for Inactive)
REMARK    1  A    between atoms: C_1  and  C_2
REMARK    2  A    between atoms: C_2  and  O_3
REMARK    3  A    between atoms: O_3  and  C_4
REMARK    4  A    between atoms: C_8  and  C_10
REMARK    5  A    between atoms: C_10  and  C_11
REMARK    6  A    between atoms: C_11  and  N_12
REMARK    7  A    between atoms: C_13  and  C_15
REMARK    8  A    between atoms: C_26  and  C_28
REMARK    9  A    between atoms: C_29  and  C_39
REMARK   10  A    between atoms: C_32  and  C_33
REMARK                            x       y       z     vdW  Elec       q    Type
REMARK                         _______ _______ _______ _____ _____    ______ ____
ROOT
ATOM      1  C   UNL     1       6.486  -5.843   5.744  0.00  0.00    +0.100 C 
ATOM      2  C   UNL     1       6.511  -4.816   6.898  0.00  0.00    +0.121 C 
ATOM      3  N   UNL     1       7.839  -4.997   7.531  0.00  0.00    -0.296 N 
ATOM      4  C   UNL     1       8.763  -5.220   6.394  0.00  0.00    +0.115 C 
ATOM      5  C   UNL     1       7.965  -6.105   5.415  0.00  0.00    -0.004 C 
ATOM      6  C   UNL     1       8.303  -7.576   5.639  0.00  0.00    -0.010 C 
ATOM      7  C   UNL     1       9.764  -7.823   5.252  0.00  0.00    -0.082 C 
ATOM      8  N   UNL     1       9.967  -7.462   3.843  0.00  0.00    +0.379 N 
ATOM      9  C   UNL     1       9.729  -6.026   3.655  0.00  0.00    -0.082 C 
ATOM     10  C   UNL     1       8.266  -5.703   3.975  0.00  0.00    -0.010 C 
ATOM     11  C   UNL     1       8.138  -4.967   8.845  0.00  0.00    +0.252 C 
ATOM     12  O   UNL     1       9.286  -5.135   9.211  0.00  0.00    -0.270 OA
ATOM     13  H   UNL     1      10.914  -7.683   3.574  0.00  0.00    -0.086 HD
ATOM     14  H   UNL     1       9.325  -7.986   3.268  0.00  0.00    -0.086 HD
ENDROOT
BRANCH  11  15
ATOM     15  C   UNL     1       7.076  -4.731   9.837  0.00  0.00    +0.106 A 
ATOM     16  C   UNL     1       6.314  -5.679  10.455  0.00  0.00    +0.147 A 
ATOM     17  O   UNL     1       5.467  -5.062  11.283  0.00  0.00    -0.359 OA
ATOM     18  N   UNL     1       5.672  -3.666  11.212  0.00  0.00    -0.077 NA
ATOM     19  C   UNL     1       6.635  -3.428  10.358  0.00  0.00    +0.126 A 
ATOM     20  C   UNL     1       6.413  -7.168  10.241  0.00  0.00    +0.090 C 
BRANCH  19  21
ATOM     21  C   UNL     1       7.176  -2.099   9.983  0.00  0.00    +0.004 A 
ATOM     22  C   UNL     1       8.531  -1.952   9.691  0.00  0.00    +0.010 A 
ATOM     23  C   UNL     1       9.028  -0.713   9.343  0.00  0.00    +0.001 A 
ATOM     24  C   UNL     1       8.185   0.383   9.284  0.00  0.00    +0.000 A 
ATOM     25  C   UNL     1       6.840   0.243   9.574  0.00  0.00    +0.001 A 
ATOM     26  C   UNL     1       6.330  -0.993   9.917  0.00  0.00    +0.010 A 
ENDBRANCH  19  21
ENDBRANCH  11  15
BRANCH   1  28
ATOM     27  N   UNL     1       5.136  -6.085   3.685  0.00  0.00    -0.315 N 
ATOM     28  C   UNL     1       5.776  -5.268   4.545  0.00  0.00    +0.218 C 
ATOM     29  O   UNL     1       5.780  -4.070   4.355  0.00  0.00    -0.275 OA
ATOM     30  H   UNL     1       5.133  -7.043   3.837  0.00  0.00    +0.149 HD
BRANCH  27  31
ATOM     31  C   UNL     1       4.446  -5.526   2.520  0.00  0.00    +0.109 C 
BRANCH  31  32
ATOM     32  C   UNL     1       3.808  -6.658   1.713  0.00  0.00    +0.054 C 
BRANCH  32  37
ATOM     33  C   UNL     1       1.118  -5.184  -0.493  0.00  0.00    +0.121 A 
ATOM     34  C   UNL     1       1.800  -5.028  -1.691  0.00  0.00    +0.045 A 
ATOM     35  C   UNL     1       3.128  -5.399  -1.782  0.00  0.00    +0.004 A 
ATOM     36  C   UNL     1       3.776  -5.926  -0.680  0.00  0.00    +0.004 A 
ATOM     37  C   UNL     1       3.098  -6.083   0.515  0.00  0.00    -0.042 A 
ATOM     38  C   UNL     1       1.772  -5.708   0.612  0.00  0.00    +0.049 A 
BRANCH  33  39
ATOM     39  O   UNL     1      -0.188  -4.819  -0.402  0.00  0.00    -0.492 OA
BRANCH  39  41
ATOM     40  C   UNL     1      -2.257  -3.937  -1.285  0.00  0.00    +0.048 C 
ATOM     41  C   UNL     1      -0.798  -4.287  -1.580  0.00  0.00    +0.225 C 
ENDBRANCH  39  41
ENDBRANCH  33  39
ENDBRANCH  32  37
ENDBRANCH  31  32
ENDBRANCH  27  31
ENDBRANCH   1  28
TORSDOF 8
