REMARK  Name = ZINC01718893
REMARK  1 active torsions:
REMARK  status: ('A' for Active; 'I' for Inactive)
REMARK    1  A    between atoms: C_4  and  C_7
REMARK                            x       y       z     vdW  Elec       q    Type
REMARK                         _______ _______ _______ _____ _____    ______ ____
ROOT
ATOM      1  C   UNL     1       1.423   1.615  -0.003  0.00  0.00    +0.025 C 
ATOM      2  C   UNL     1       2.124   1.214   1.297  0.00  0.00    +0.006 C 
ATOM      3  C   UNL     1       3.566   1.726   1.276  0.00  0.00    +0.000 C 
ATOM      4  C   UNL     1       4.312   1.108   0.092  0.00  0.00    +0.003 C 
ATOM      5  C   UNL     1       3.619   1.510  -1.212  0.00  0.00    +0.035 C 
ATOM      6  C   UNL     1       2.173   1.024  -1.191  0.00  0.00    +0.115 C 
ATOM      7  C   UNL     1       1.478   1.379  -2.485  0.00  0.00    +0.244 C 
ATOM      8  O   UNL     1       1.284   2.489  -2.933  0.00  0.00    -0.273 OA
ATOM      9  N   UNL     1       1.118   0.202  -3.036  0.00  0.00    -0.238 N 
ATOM     10  C   UNL     1       1.489  -0.834  -2.272  0.00  0.00    +0.307 C 
ATOM     11  O   UNL     1       1.275  -1.995  -2.558  0.00  0.00    -0.252 OA
ATOM     12  N   UNL     1       2.125  -0.443  -1.151  0.00  0.00    -0.285 N 
ATOM     13  H   UNL     1       0.587   0.184  -3.999  0.00  0.00    +0.159 HD
ATOM     14  H   UNL     1       2.566  -0.985  -0.302  0.00  0.00    +0.151 HD
ENDROOT
BRANCH   1  18
ATOM     15  C   UNL     1      -2.261  -0.159   1.415  0.00  0.00    +0.000 C 
ATOM     16  C   UNL     1      -2.268   1.328   1.054  0.00  0.00    +0.000 C 
ATOM     17  C   UNL     1      -0.833   1.857   1.044  0.00  0.00    +0.004 C 
ATOM     18  C   UNL     1      -0.013   1.086   0.008  0.00  0.00    -0.005 C 
ATOM     19  C   UNL     1      -0.005  -0.401   0.368  0.00  0.00    +0.004 C 
ATOM     20  C   UNL     1      -1.440  -0.931   0.379  0.00  0.00    +0.000 C 
ENDBRANCH   1  18
TORSDOF 1
