REMARK  Name = ZINC09613424
REMARK  3 active torsions:
REMARK  status: ('A' for Active; 'I' for Inactive)
REMARK    1  A    between atoms: C_4  and  N_7
REMARK    2  A    between atoms: C_9  and  C_23
REMARK    3  A    between atoms: C_10  and  C_12
REMARK                            x       y       z     vdW  Elec       q    Type
REMARK                         _______ _______ _______ _____ _____    ______ ____
ROOT
ATOM      1  N   UNL     1       6.553  -0.321  -0.039  0.00  0.00    -0.239 N 
ATOM      2  C   UNL     1       7.156   0.889  -0.177  0.00  0.00    +0.122 A 
ATOM      3  C   UNL     1       6.194   1.837  -0.150  0.00  0.00    +0.041 A 
ATOM      4  C   UNL     1       4.953   1.190   0.021  0.00  0.00    +0.107 A 
ATOM      5  N   UNL     1       5.174  -0.108   0.083  0.00  0.00    -0.166 NA
ENDROOT
BRANCH   3   6
ATOM      6  C   UNL     1       6.409   3.323  -0.275  0.00  0.00    +0.221 C 
ATOM      7  C   UNL     1       7.145   4.795   1.524  0.00  0.00    +0.159 C 
ATOM      8  N   UNL     1       8.267   5.215   0.833  0.00  0.00    -0.259 N 
ATOM      9  C   UNL     1       8.611   4.490  -0.300  0.00  0.00    +0.205 A 
ATOM     10  N   UNL     1       7.734   3.575  -0.842  0.00  0.00    -0.286 N 
ATOM     11  C   UNL     1       8.349   3.025  -1.929  0.00  0.00    +0.072 A 
ATOM     12  C   UNL     1       7.956   2.062  -2.850  0.00  0.00    +0.028 A 
ATOM     13  C   UNL     1       8.858   1.741  -3.852  0.00  0.00    +0.002 A 
ATOM     14  C   UNL     1      10.100   2.345  -3.942  0.00  0.00    +0.002 A 
ATOM     15  C   UNL     1      10.515   3.306  -3.038  0.00  0.00    +0.030 A 
ATOM     16  C   UNL     1       9.620   3.647  -2.017  0.00  0.00    +0.091 A 
ATOM     17  N   UNL     1       9.711   4.525  -0.998  0.00  0.00    -0.214 NA
ATOM     18  N   UNL     1       6.914   5.311   2.778  0.00  0.00    -0.332 N 
ATOM     19  H   UNL     1       8.787   5.979   1.126  0.00  0.00    +0.158 HD
ATOM     20  H   UNL     1       6.133   5.031   3.281  0.00  0.00    +0.145 HD
ATOM     21  H   UNL     1       7.532   5.954   3.159  0.00  0.00    +0.145 HD
ATOM     22  N   UNL     1       6.225   3.916   1.105  0.00  0.00    -0.337 N 
ATOM     23  H   UNL     1       5.428   3.655   1.696  0.00  0.00    +0.164 HD
ENDBRANCH   3   6
BRANCH   4  24
ATOM     24  C   UNL     1       3.631   1.852   0.108  0.00  0.00    +0.088 A 
ATOM     25  C   UNL     1       3.272   2.810  -0.802  0.00  0.00    +0.028 A 
ATOM     26  C   UNL     1       1.954   3.433  -0.670  0.00  0.00    +0.018 A 
ATOM     27  C   UNL     1       1.538   4.418  -1.575  0.00  0.00    +0.011 A 
ATOM     28  C   UNL     1       0.307   4.992  -1.434  0.00  0.00    +0.001 A 
ATOM     29  C   UNL     1      -0.539   4.601  -0.406  0.00  0.00    +0.004 A 
ATOM     30  C   UNL     1      -0.149   3.633   0.495  0.00  0.00    +0.047 A 
ATOM     31  C   UNL     1       1.101   3.037   0.375  0.00  0.00    +0.139 A 
ATOM     32  O   UNL     1       1.488   2.088   1.255  0.00  0.00    -0.422 OA
ATOM     33  C   UNL     1       2.687   1.492   1.169  0.00  0.00    +0.347 A 
ATOM     34  O   UNL     1       2.994   0.642   1.984  0.00  0.00    -0.244 OA
ENDBRANCH   4  24
BRANCH   1  38
ATOM     35  C   UNL     1       8.472  -4.021   0.009  0.00  0.00    +0.000 A 
ATOM     36  C   UNL     1       7.097  -3.955   0.142  0.00  0.00    +0.002 A 
ATOM     37  C   UNL     1       6.458  -2.730   0.126  0.00  0.00    +0.028 A 
ATOM     38  C   UNL     1       7.198  -1.565  -0.022  0.00  0.00    +0.065 A 
ATOM     39  C   UNL     1       8.578  -1.635  -0.160  0.00  0.00    +0.028 A 
ATOM     40  C   UNL     1       9.211  -2.862  -0.138  0.00  0.00    +0.002 A 
ENDBRANCH   1  38
TORSDOF 3
