REMARK  Name = ZINC11783143
REMARK  10 active torsions:
REMARK  status: ('A' for Active; 'I' for Inactive)
REMARK    1  A    between atoms: C_1  and  O_2
REMARK    2  A    between atoms: O_2  and  C_3
REMARK    3  A    between atoms: C_3  and  C_5
REMARK    4  A    between atoms: C_6  and  O_24
REMARK    5  A    between atoms: C_16  and  C_17
REMARK    6  A    between atoms: C_16  and  N_61
REMARK    7  A    between atoms: C_21  and  O_23
REMARK    8  A    between atoms: O_24  and  C_25
REMARK    9  A    between atoms: C_25  and  C_26
REMARK   10  A    between atoms: C_26  and  C_27
REMARK                            x       y       z     vdW  Elec       q    Type
REMARK                         _______ _______ _______ _____ _____    ______ ____
ROOT
ATOM      1  C   UNL     1       4.510   8.450  -1.388  0.00  0.00    +0.120 A 
ATOM      2  C   UNL     1       4.258   9.594  -2.266  0.00  0.00    +0.141 A 
ATOM      3  C   UNL     1       3.446   9.395  -3.364  0.00  0.00    +0.116 A 
ATOM      4  C   UNL     1       2.919   8.123  -3.595  0.00  0.00    +0.255 A 
ATOM      5  O   UNL     1       2.193   7.953  -4.560  0.00  0.00    -0.268 OA
ATOM      6  N   UNL     1       3.187   7.074  -2.784  0.00  0.00    -0.313 N 
ATOM      7  C   UNL     1       3.939   7.221  -1.686  0.00  0.00    +0.038 A 
ATOM      8  C   UNL     1       4.193   6.101  -0.706  0.00  0.00    +0.036 C 
ATOM      9  C   UNL     1       4.166   4.739  -1.397  0.00  0.00    -0.072 C 
ATOM     10  C   UNL     1       1.865   5.130  -2.019  0.00  0.00    -0.056 C 
ATOM     11  C   UNL     1       2.617   5.782  -3.181  0.00  0.00    +0.106 C 
ATOM     12  N   UNL     1       2.792   4.197  -1.352  0.00  0.00    +0.384 N 
ATOM     13  H   UNL     1       2.772   3.296  -1.845  0.00  0.00    -0.081 HD
ENDROOT
BRANCH   1  14
ATOM     14  C   UNL     1       5.362   8.603  -0.197  0.00  0.00    +0.344 C 
ATOM     15  O   UNL     1       6.572   8.614  -0.313  0.00  0.00    -0.245 OA
BRANCH  14  17
ATOM     16  C   UNL     1       5.701   8.877   2.150  0.00  0.00    +0.280 C 
ATOM     17  O   UNL     1       4.800   8.730   1.021  0.00  0.00    -0.464 OA
ENDBRANCH  14  17
ENDBRANCH   1  14
BRANCH  12  18
ATOM     18  C   UNL     1       2.376   3.986   0.051  0.00  0.00    -0.043 C 
BRANCH  18  19
ATOM     19  C   UNL     1       1.066   3.242   0.065  0.00  0.00    -0.061 A 
ATOM     20  C   UNL     1       1.058   1.859   0.075  0.00  0.00    +0.002 A 
ATOM     21  C   UNL     1      -0.142   1.173   0.088  0.00  0.00    +0.004 A 
ATOM     22  C   UNL     1      -1.337   1.867   0.086  0.00  0.00    +0.045 A 
ATOM     23  C   UNL     1      -1.331   3.255   0.082  0.00  0.00    +0.117 A 
ATOM     24  C   UNL     1      -0.125   3.941   0.069  0.00  0.00    +0.047 A 
BRANCH  23  25
ATOM     25  O   UNL     1      -2.504   3.940   0.086  0.00  0.00    -0.507 OA
ATOM     26  H   UNL     1      -2.850   4.133  -0.796  0.00  0.00    +0.292 HD
ENDBRANCH  23  25
ENDBRANCH  18  19
ENDBRANCH  12  18
BRANCH   2  27
ATOM     27  O   UNL     1       4.804  10.805  -2.010  0.00  0.00    -0.491 OA
BRANCH  27  28
ATOM     28  C   UNL     1       4.500  11.860  -2.924  0.00  0.00    +0.234 C 
BRANCH  28  29
ATOM     29  C   UNL     1       5.200  13.144  -2.474  0.00  0.00    +0.079 C 
BRANCH  29  30
ATOM     30  C   UNL     1       4.879  14.256  -3.438  0.00  0.00    -0.009 A 
ATOM     31  C   UNL     1       5.747  14.545  -4.474  0.00  0.00    +0.006 A 
ATOM     32  C   UNL     1       5.451  15.561  -5.363  0.00  0.00    +0.000 A 
ATOM     33  C   UNL     1       4.291  16.298  -5.209  0.00  0.00    +0.003 A 
ATOM     34  C   UNL     1       3.424  16.015  -4.171  0.00  0.00    +0.038 A 
ATOM     35  C   UNL     1       3.718  14.993  -3.284  0.00  0.00    +0.127 A 
ATOM     36  F   UNL     1       2.872  14.716  -2.268  0.00  0.00    -0.205 F 
ENDBRANCH  29  30
ENDBRANCH  28  29
ENDBRANCH  27  28
ENDBRANCH   2  27
TORSDOF 9
