REMARK  Name = ZINC48290650
REMARK  4 active torsions:
REMARK  status: ('A' for Active; 'I' for Inactive)
REMARK    1  A    between atoms: C_6  and  C_7
REMARK    2  A    between atoms: C_7  and  C_9
REMARK    3  A    between atoms: C_7  and  O_22
REMARK    4  A    between atoms: C_9  and  N_10
REMARK                            x       y       z     vdW  Elec       q    Type
REMARK                         _______ _______ _______ _____ _____    ______ ____
ROOT
ATOM      1  N   UNL     1      -2.932  -1.889  -1.422  0.00  0.00    -0.296 N 
ATOM      2  C   UNL     1      -3.029  -3.225  -1.196  0.00  0.00    +0.202 A 
ATOM      3  N   UNL     1      -4.156  -3.868  -1.190  0.00  0.00    -0.237 NA
ATOM      4  C   UNL     1      -5.336  -3.237  -1.415  0.00  0.00    +0.079 A 
ATOM      5  C   UNL     1      -6.549  -3.927  -1.410  0.00  0.00    +0.048 A 
ATOM      6  C   UNL     1      -7.722  -3.241  -1.643  0.00  0.00    +0.043 A 
ATOM      7  C   UNL     1      -7.709  -1.873  -1.885  0.00  0.00    +0.021 A 
ATOM      8  C   UNL     1      -6.533  -1.176  -1.895  0.00  0.00    +0.017 A 
ATOM      9  C   UNL     1      -5.333  -1.846  -1.661  0.00  0.00    +0.065 A 
ATOM     10  C   UNL     1      -4.040  -1.147  -1.655  0.00  0.00    +0.262 A 
ATOM     11  O   UNL     1      -3.969   0.052  -1.855  0.00  0.00    -0.267 OA
ATOM     12 CL   UNL     1      -9.232  -4.097  -1.637  0.00  0.00    -0.083 Cl
ENDROOT
BRANCH   1  13
ATOM     13  C   UNL     1      -1.617  -1.243  -1.409  0.00  0.00    +0.162 C 
BRANCH  13  14
ATOM     14  C   UNL     1      -1.293  -0.775   0.011  0.00  0.00    +0.164 C 
BRANCH  14  20
ATOM     15  C   UNL     1      -0.017   1.378   0.010  0.00  0.00    +0.007 A 
ATOM     16  C   UNL     1       1.171   2.086   0.002  0.00  0.00    +0.020 A 
ATOM     17  C   UNL     1       2.378   1.410  -0.013  0.00  0.00    +0.041 A 
ATOM     18  C   UNL     1       2.396   0.027  -0.021  0.00  0.00    +0.020 A 
ATOM     19  C   UNL     1       1.208  -0.679  -0.013  0.00  0.00    +0.007 A 
ATOM     20  C   UNL     1       0.002  -0.004   0.002  0.00  0.00    -0.017 A 
ATOM     21 CL   UNL     1       3.870   2.298  -0.023  0.00  0.00    -0.084 Cl
ENDBRANCH  14  20
BRANCH  14  22
ATOM     22  O   UNL     1      -1.166  -1.910   0.869  0.00  0.00    -0.385 OA
ATOM     23  H   UNL     1      -0.469  -2.526   0.606  0.00  0.00    +0.210 HD
ENDBRANCH  14  22
ENDBRANCH  13  14
ENDBRANCH   1  13
TORSDOF 4
