REMARK  Name = ZINC48648760
REMARK  5 active torsions:
REMARK  status: ('A' for Active; 'I' for Inactive)
REMARK    1  A    between atoms: C_1  and  C_2
REMARK    2  A    between atoms: C_5  and  N_13
REMARK    3  A    between atoms: C_7  and  N_8
REMARK    4  A    between atoms: C_14  and  C_16
REMARK    5  A    between atoms: N_18  and  C_19
REMARK                            x       y       z     vdW  Elec       q    Type
REMARK                         _______ _______ _______ _____ _____    ______ ____
ROOT
ATOM      1  N   UNL     1      -0.036  -4.358  -0.443  0.00  0.00    -0.278 N 
ATOM      2  C   UNL     1      -0.141  -4.894  -1.675  0.00  0.00    +0.303 C 
ATOM      3  O   UNL     1      -0.289  -4.173  -2.640  0.00  0.00    -0.265 OA
ATOM      4  H   UNL     1       0.008  -4.935   0.335  0.00  0.00    +0.155 HD
ENDROOT
BRANCH   1   9
ATOM      5  C   UNL     1       0.143   1.278   0.205  0.00  0.00    +0.046 C 
ATOM      6  C   UNL     1       0.096  -0.218   0.032  0.00  0.00    -0.025 A 
ATOM      7  C   UNL     1      -0.509  -1.006   0.993  0.00  0.00    +0.007 A 
ATOM      8  C   UNL     1      -0.554  -2.378   0.838  0.00  0.00    +0.024 A 
ATOM      9  C   UNL     1       0.009  -2.970  -0.286  0.00  0.00    +0.036 A 
ATOM     10  C   UNL     1       0.616  -2.181  -1.254  0.00  0.00    +0.051 A 
ATOM     11  C   UNL     1       0.655  -0.803  -1.097  0.00  0.00    +0.073 A 
BRANCH  11  12
ATOM     12  N   UNL     1       1.263  -0.002  -2.075  0.00  0.00    -0.200 N 
ATOM     13  C   UNL     1       2.459  -0.201  -2.669  0.00  0.00    +0.250 A 
ATOM     14  N   UNL     1       2.639   0.780  -3.515  0.00  0.00    -0.116 NA
ATOM     15  N   UNL     1       1.639   1.584  -3.496  0.00  0.00    -0.023 NA
ATOM     16  N   UNL     1       0.755   1.176  -2.650  0.00  0.00    -0.039 NA
ENDBRANCH  11  12
ENDBRANCH   1   9
BRANCH   2  17
ATOM     17  C   UNL     1      -0.074  -6.375  -1.853  0.00  0.00    +0.300 C 
ATOM     18  O   UNL     1       0.074  -7.096  -0.888  0.00  0.00    -0.265 OA
ATOM     19  N   UNL     1      -0.179  -6.912  -3.085  0.00  0.00    -0.301 N 
ATOM     20  H   UNL     1      -0.297  -6.335  -3.856  0.00  0.00    +0.150 HD
BRANCH  19  21
ATOM     21  C   UNL     1      -0.113  -8.365  -3.259  0.00  0.00    +0.104 C 
ATOM     22  C   UNL     1      -0.858  -8.753  -4.535  0.00  0.00    +0.027 C 
ATOM     23  C   UNL     1      -0.595 -10.237  -4.816  0.00  0.00    +0.007 C 
ATOM     24  C   UNL     1       0.865 -10.397  -5.236  0.00  0.00    +0.035 C 
ATOM     25  C   UNL     1       1.778  -9.727  -4.242  0.00  0.00    -0.042 A 
ATOM     26  C   UNL     1       1.329  -8.791  -3.338  0.00  0.00    -0.024 A 
ATOM     27  C   UNL     1       2.225  -8.206  -2.453  0.00  0.00    +0.006 A 
ATOM     28  C   UNL     1       3.560  -8.558  -2.471  0.00  0.00    +0.000 A 
ATOM     29  C   UNL     1       4.008  -9.500  -3.377  0.00  0.00    +0.000 A 
ATOM     30  C   UNL     1       3.120 -10.081  -4.257  0.00  0.00    +0.004 A 
ENDBRANCH  19  21
ENDBRANCH   2  17
TORSDOF 4
