REMARK  Name = ZINC04481441
REMARK  7 active torsions:
REMARK  status: ('A' for Active; 'I' for Inactive)
REMARK    1  A    between atoms: C_3  and  C_10
REMARK    2  A    between atoms: C_5  and  N_7
REMARK    3  A    between atoms: C_10  and  C_12
REMARK    4  A    between atoms: C_12  and  C_13
REMARK    5  A    between atoms: C_13  and  O_30
REMARK    6  A    between atoms: N_20  and  C_23
REMARK    7  A    between atoms: C_23  and  N_51
REMARK                            x       y       z     vdW  Elec       q    Type
REMARK                         _______ _______ _______ _____ _____    ______ ____
ROOT
ATOM      1  C   UNL     1      -4.985   4.088   0.069  0.00  0.00    +0.175 C 
ATOM      2  C   UNL     1      -6.292   3.351   0.248  0.00  0.00    +0.016 A 
ATOM      3  C   UNL     1      -6.941   2.396  -0.497  0.00  0.00    +0.024 A 
ATOM      4  C   UNL     1      -8.157   1.892  -0.070  0.00  0.00    +0.018 A 
ATOM      5  C   UNL     1      -8.716   2.352   1.110  0.00  0.00    +0.017 A 
ATOM      6  C   UNL     1      -8.068   3.309   1.862  0.00  0.00    +0.025 A 
ATOM      7  C   UNL     1      -6.843   3.821   1.437  0.00  0.00    +0.041 A 
ATOM      8  N   UNL     1      -6.006   4.779   2.012  0.00  0.00    -0.285 N 
ATOM      9  C   UNL     1      -4.901   4.995   1.278  0.00  0.00    +0.255 C 
ATOM     10  O   UNL     1      -4.004   5.769   1.537  0.00  0.00    -0.272 OA
ATOM     11 BR   UNL     1      -9.053   0.579  -1.094  0.00  0.00    -0.050 Br
ENDROOT
BRANCH   1  12
ATOM     12  O   UNL     1      -5.005   4.859  -1.134  0.00  0.00    -0.374 OA
ATOM     13  H   UNL     1      -4.202   5.375  -1.284  0.00  0.00    +0.211 HD
ENDBRANCH   1  12
BRANCH   1  14
ATOM     14  C   UNL     1      -3.813   3.104   0.054  0.00  0.00    +0.129 C 
BRANCH  14  15
ATOM     15  C   UNL     1      -2.515   3.870   0.045  0.00  0.00    +0.167 C 
ATOM     16  O   UNL     1      -2.526   5.082   0.050  0.00  0.00    -0.292 OA
BRANCH  15  19
ATOM     17  C   UNL     1      -0.013   1.076   0.008  0.00  0.00    +0.003 A 
ATOM     18  C   UNL     1      -1.217   1.747   0.017  0.00  0.00    +0.011 A 
ATOM     19  C   UNL     1      -1.234   3.145   0.030  0.00  0.00    +0.020 A 
ATOM     20  C   UNL     1      -0.027   3.852   0.022  0.00  0.00    +0.044 A 
ATOM     21  C   UNL     1       1.169   3.166   0.007  0.00  0.00    +0.127 A 
ATOM     22  C   UNL     1       1.177   1.782   0.000  0.00  0.00    +0.033 A 
BRANCH  21  23
ATOM     23  N   UNL     1       2.447   3.912  -0.002  0.00  0.00    +0.056 N 
ATOM     24  O   UNL     1       3.505   3.308  -0.015  0.00  0.00    -0.126 OA
ATOM     25  O   UNL     1       2.442   5.130   0.004  0.00  0.00    -0.126 OA
ENDBRANCH  21  23
ENDBRANCH  15  19
ENDBRANCH  14  15
ENDBRANCH   1  14
BRANCH   8  26
ATOM     26  C   UNL     1      -6.299   5.471   3.270  0.00  0.00    +0.038 C 
BRANCH  26  32
ATOM     27  C   UNL     1      -6.159   7.787   2.577  0.00  0.00    -0.048 C 
ATOM     28  C   UNL     1      -6.992   9.026   2.238  0.00  0.00    +0.141 C 
ATOM     29  O   UNL     1      -7.792   9.382   3.369  0.00  0.00    -0.383 OA
ATOM     30  C   UNL     1      -8.678   8.343   3.797  0.00  0.00    +0.141 C 
ATOM     31  C   UNL     1      -7.862   7.098   4.152  0.00  0.00    -0.048 C 
ATOM     32  N   UNL     1      -7.073   6.694   2.968  0.00  0.00    +0.393 N 
ATOM     33  H   UNL     1      -7.714   6.500   2.190  0.00  0.00    -0.079 HD
ENDBRANCH  26  32
ENDBRANCH   8  26
TORSDOF 7
