REMARK  Name = ZINC12250294
REMARK  12 active torsions:
REMARK  status: ('A' for Active; 'I' for Inactive)
REMARK    1  A    between atoms: C_1  and  C_2
REMARK    2  A    between atoms: C_3  and  C_30
REMARK    3  A    between atoms: C_4  and  C_21
REMARK    4  A    between atoms: C_6  and  C_19
REMARK    5  A    between atoms: C_7  and  S_9
REMARK    6  A    between atoms: S_9  and  C_10
REMARK    7  A    between atoms: C_10  and  C_11
REMARK    8  A    between atoms: C_11  and  C_13
REMARK    9  A    between atoms: C_24  and  O_29
REMARK   10  A    between atoms: C_25  and  O_27
REMARK   11  A    between atoms: O_27  and  C_28
REMARK   12  A    between atoms: N_32  and  C_33
REMARK                            x       y       z     vdW  Elec       q    Type
REMARK                         _______ _______ _______ _____ _____    ______ ____
ROOT
ATOM      1  C   UNL     1       7.151   1.307   0.119  0.00  0.00    +0.061 C 
ATOM      2  C   UNL     1       7.103  -0.198   0.064  0.00  0.00    +0.014 C 
ATOM      3  C   UNL     1       5.915  -0.820   0.007  0.00  0.00    +0.044 C 
ATOM      4  C   UNL     1       5.808  -2.317  -0.035  0.00  0.00    +0.098 C 
ATOM      5  C   UNL     1       7.127  -2.936  -0.409  0.00  0.00    +0.069 C 
ATOM      6  C   UNL     1       8.284  -2.225  -0.337  0.00  0.00    +0.080 C 
ATOM      7  N   UNL     1       8.272  -0.910   0.072  0.00  0.00    -0.312 N 
ATOM      8  H   UNL     1       9.205  -0.432   0.406  0.00  0.00    +0.152 HD
ENDROOT
BRANCH   4   9
ATOM      9  C   UNL     1       5.385  -2.823   1.320  0.00  0.00    -0.031 A 
ATOM     10  C   UNL     1       6.174  -2.570   2.427  0.00  0.00    +0.008 A 
ATOM     11  C   UNL     1       5.790  -3.031   3.673  0.00  0.00    +0.049 A 
ATOM     12  C   UNL     1       4.612  -3.748   3.813  0.00  0.00    +0.158 A 
ATOM     13  C   UNL     1       3.818  -4.002   2.699  0.00  0.00    +0.162 A 
ATOM     14  C   UNL     1       4.206  -3.533   1.454  0.00  0.00    +0.054 A 
BRANCH  13  15
ATOM     15  O   UNL     1       2.662  -4.705   2.832  0.00  0.00    -0.491 OA
ATOM     16  C   UNL     1       1.898  -4.928   1.645  0.00  0.00    +0.277 C 
ENDBRANCH  13  15
BRANCH  12  17
ATOM     17  O   UNL     1       4.232  -4.201   5.038  0.00  0.00    -0.503 OA
ATOM     18  H   UNL     1       3.297  -4.770   5.149  0.00  0.00    +0.292 HD
ENDBRANCH  12  17
ENDBRANCH   4   9
BRANCH   3  19
ATOM     19  C   UNL     1       4.731  -0.044  -0.008  0.00  0.00    +0.247 C 
ATOM     20  O   UNL     1       4.101   0.085  -1.042  0.00  0.00    -0.270 OA
ATOM     21  N   UNL     1       4.301   0.551   1.122  0.00  0.00    -0.282 N 
ATOM     22  H   UNL     1       4.913   0.506   2.035  0.00  0.00    +0.155 HD
BRANCH  21  23
ATOM     23  C   UNL     1       3.077   1.227   1.135  0.00  0.00    +0.034 A 
ATOM     24  C   UNL     1       2.023   0.771   0.353  0.00  0.00    +0.023 A 
ATOM     25  C   UNL     1       0.815   1.441   0.368  0.00  0.00    +0.002 A 
ATOM     26  C   UNL     1       0.654   2.564   1.158  0.00  0.00    +0.000 A 
ATOM     27  C   UNL     1       1.702   3.020   1.937  0.00  0.00    +0.002 A 
ATOM     28  C   UNL     1       2.912   2.355   1.928  0.00  0.00    +0.023 A 
ENDBRANCH  21  23
ENDBRANCH   3  19
BRANCH   5  29
ATOM     29  C   UNL     1       7.167  -4.299  -0.845  0.00  0.00    +0.098 C 
ATOM     30  N   UNL     1       7.198  -5.381  -1.191  0.00  0.00    -0.191 NA
ENDBRANCH   5  29
BRANCH   6  31
ATOM     31  S   UNL     1       9.811  -2.992  -0.768  0.00  0.00    -0.101 S 
BRANCH  31  32
ATOM     32  C   UNL     1      10.947  -1.612  -0.486  0.00  0.00    +0.155 C 
BRANCH  32  33
ATOM     33  C   UNL     1      12.355  -2.048  -0.800  0.00  0.00    +0.173 C 
ATOM     34  O   UNL     1      12.569  -3.180  -1.178  0.00  0.00    -0.291 OA
BRANCH  33  35
ATOM     35  C   UNL     1      13.470  -1.100  -0.648  0.00  0.00    +0.018 A 
ATOM     36  C   UNL     1      13.227   0.208  -0.218  0.00  0.00    +0.011 A 
ATOM     37  C   UNL     1      14.278   1.089  -0.073  0.00  0.00    +0.001 A 
ATOM     38  C   UNL     1      15.569   0.685  -0.362  0.00  0.00    +0.000 A 
ATOM     39  C   UNL     1      15.818  -0.607  -0.794  0.00  0.00    +0.001 A 
ATOM     40  C   UNL     1      14.778  -1.501  -0.938  0.00  0.00    +0.011 A 
ENDBRANCH  33  35
ENDBRANCH  32  33
ENDBRANCH  31  32
ENDBRANCH   6  31
TORSDOF 10
