REMARK  Name = ZINC46168804
REMARK  10 active torsions:
REMARK  status: ('A' for Active; 'I' for Inactive)
REMARK    1  A    between atoms: C_1  and  C_2
REMARK    2  A    between atoms: C_2  and  N_3
REMARK    3  A    between atoms: C_5  and  C_10
REMARK    4  A    between atoms: N_12  and  C_13
REMARK    5  A    between atoms: C_13  and  C_15
REMARK    6  A    between atoms: C_13  and  C_23
REMARK    7  A    between atoms: C_18  and  O_21
REMARK    8  A    between atoms: O_21  and  C_22
REMARK    9  A    between atoms: C_23  and  C_24
REMARK   10  A    between atoms: C_23  and  C_25
REMARK                            x       y       z     vdW  Elec       q    Type
REMARK                         _______ _______ _______ _____ _____    ______ ____
ROOT
ATOM      1  C   UNL     1       0.873  -1.833  -4.585  0.00  0.00    +0.219 C 
ATOM      2  O   UNL     1      -0.136  -2.504  -4.521  0.00  0.00    -0.275 OA
ATOM      3  N   UNL     1       1.745  -2.022  -5.595  0.00  0.00    -0.308 N 
ATOM      4  H   UNL     1       2.551  -1.486  -5.646  0.00  0.00    +0.149 HD
ENDROOT
BRANCH   1   7
ATOM      5  N   UNL     1       0.688  -0.476  -1.203  0.00  0.00    -0.301 N 
ATOM      6  C   UNL     1       0.021  -0.749  -2.482  0.00  0.00    +0.121 C 
ATOM      7  C   UNL     1       1.151  -0.789  -3.535  0.00  0.00    +0.101 C 
ATOM      8  C   UNL     1       2.373  -1.181  -2.673  0.00  0.00    +0.110 C 
ATOM      9  C   UNL     1       2.009  -0.711  -1.282  0.00  0.00    +0.216 C 
ATOM     10  O   UNL     1       2.795  -0.568  -0.369  0.00  0.00    -0.276 OA
BRANCH   5  12
ATOM     11  C   UNL     1      -0.019   1.526   0.010  0.00  0.00    +0.024 C 
ATOM     12  C   UNL     1       0.002  -0.004   0.002  0.00  0.00    +0.104 C 
ENDBRANCH   5  12
ENDBRANCH   1   7
BRANCH   3  13
ATOM     13  C   UNL     1       1.475  -3.038  -6.616  0.00  0.00    +0.106 C 
BRANCH  13  14
ATOM     14  C   UNL     1       2.189  -2.671  -7.891  0.00  0.00    -0.027 A 
ATOM     15  C   UNL     1       3.469  -2.152  -7.840  0.00  0.00    +0.009 A 
ATOM     16  C   UNL     1       4.126  -1.814  -9.008  0.00  0.00    +0.046 A 
ATOM     17  C   UNL     1       3.500  -1.997 -10.232  0.00  0.00    +0.120 A 
ATOM     18  C   UNL     1       2.215  -2.519 -10.281  0.00  0.00    +0.046 A 
ATOM     19  C   UNL     1       1.565  -2.860  -9.110  0.00  0.00    +0.009 A 
BRANCH  17  20
ATOM     20  O   UNL     1       4.143  -1.665 -11.382  0.00  0.00    -0.495 OA
ATOM     21  C   UNL     1       3.438  -1.881 -12.606  0.00  0.00    +0.277 C 
ENDBRANCH  17  20
ENDBRANCH  13  14
BRANCH  13  22
ATOM     22  C   UNL     1       1.973  -4.399  -6.126  0.00  0.00    +0.008 C 
ATOM     23  C   UNL     1       1.248  -4.772  -4.831  0.00  0.00    +0.009 C 
ATOM     24  C   UNL     1       1.691  -5.460  -7.191  0.00  0.00    +0.009 C 
ENDBRANCH  13  22
ENDBRANCH   3  13
TORSDOF 6
