REMARK  Name = ZINC46418442
REMARK  7 active torsions:
REMARK  status: ('A' for Active; 'I' for Inactive)
REMARK    1  A    between atoms: C_1  and  C_2
REMARK    2  A    between atoms: C_2  and  C_28
REMARK    3  A    between atoms: C_4  and  N_10
REMARK    4  A    between atoms: C_6  and  C_8
REMARK    5  A    between atoms: C_6  and  C_9
REMARK    6  A    between atoms: C_11  and  C_13
REMARK    7  A    between atoms: N_18  and  C_20
REMARK                            x       y       z     vdW  Elec       q    Type
REMARK                         _______ _______ _______ _____ _____    ______ ____
ROOT
ATOM      1  N   UNL     1       2.615  -0.819  -2.626  0.00  0.00    -0.312 N 
ATOM      2  C   UNL     1       3.770  -0.334  -3.123  0.00  0.00    +0.218 C 
ATOM      3  O   UNL     1       4.374   0.530  -2.523  0.00  0.00    -0.275 OA
ATOM      4  H   UNL     1       2.133  -1.510  -3.106  0.00  0.00    +0.149 HD
ENDROOT
BRANCH   1   8
ATOM      5  C   UNL     1      -0.019   1.528   0.010  0.00  0.00    -0.010 C 
ATOM      6  C   UNL     1       0.002  -0.004   0.002  0.00  0.00    -0.072 C 
ATOM      7  C   UNL     1       0.573  -0.505  -1.321  0.00  0.00    +0.009 C 
ATOM      8  C   UNL     1       2.088  -0.301  -1.357  0.00  0.00    +0.070 C 
ATOM      9  C   UNL     1       2.703  -1.086  -0.198  0.00  0.00    +0.009 C 
ATOM     10  C   UNL     1       2.147  -0.590   1.133  0.00  0.00    -0.072 C 
ATOM     11  N   UNL     1       0.697  -0.529   1.164  0.00  0.00    +0.386 N 
ATOM     12  C   UNL     1       2.769   0.766   1.481  0.00  0.00    -0.010 C 
ATOM     13  C   UNL     1       2.600  -1.589   2.223  0.00  0.00    -0.010 C 
ATOM     14  C   UNL     1      -1.468  -0.478   0.079  0.00  0.00    -0.010 C 
ATOM     15  H   UNL     1       0.416   0.021   1.982  0.00  0.00    -0.084 HD
ATOM     16  H   UNL     1       0.341  -1.472   1.351  0.00  0.00    -0.084 HD
ENDBRANCH   1   8
BRANCH   2  17
ATOM     17  C   UNL     1       4.312  -0.866  -4.426  0.00  0.00    +0.101 C 
ATOM     18  C   UNL     1       4.688  -2.360  -4.300  0.00  0.00    +0.110 C 
ATOM     19  C   UNL     1       5.937  -2.501  -5.141  0.00  0.00    +0.221 C 
ATOM     20  O   UNL     1       6.394  -3.552  -5.536  0.00  0.00    -0.275 OA
ATOM     21  N   UNL     1       6.467  -1.290  -5.388  0.00  0.00    -0.268 N 
ATOM     22  C   UNL     1       5.676  -0.224  -4.760  0.00  0.00    +0.127 C 
BRANCH  21  23
ATOM     23  C   UNL     1       7.624  -1.073  -6.147  0.00  0.00    +0.072 A 
ATOM     24  C   UNL     1       7.529  -0.869  -7.517  0.00  0.00    +0.029 A 
ATOM     25  C   UNL     1       8.671  -0.656  -8.264  0.00  0.00    +0.040 A 
ATOM     26  C   UNL     1       9.912  -0.645  -7.649  0.00  0.00    +0.126 A 
ATOM     27  C   UNL     1      10.011  -0.848  -6.283  0.00  0.00    +0.078 A 
ATOM     28  C   UNL     1       8.870  -1.056  -5.529  0.00  0.00    +0.147 A 
ATOM     29  F   UNL     1       8.966  -1.249  -4.196  0.00  0.00    -0.203 F 
ATOM     30  F   UNL     1      11.027  -0.436  -8.382  0.00  0.00    -0.205 F 
ENDBRANCH  21  23
ENDBRANCH   2  17
TORSDOF 3
