REMARK  Name = ZINC07178538
REMARK  11 active torsions:
REMARK  status: ('A' for Active; 'I' for Inactive)
REMARK    1  A    between atoms: C_1  and  C_2
REMARK    2  A    between atoms: C_3  and  C_24
REMARK    3  A    between atoms: N_4  and  C_20
REMARK    4  A    between atoms: C_5  and  S_7
REMARK    5  A    between atoms: S_7  and  C_8
REMARK    6  A    between atoms: C_8  and  C_9
REMARK    7  A    between atoms: N_14  and  C_15
REMARK    8  A    between atoms: C_15  and  C_16
REMARK    9  A    between atoms: C_20  and  C_21
REMARK   10  A    between atoms: C_21  and  C_22
REMARK   11  A    between atoms: C_21  and  C_23
REMARK                            x       y       z     vdW  Elec       q    Type
REMARK                         _______ _______ _______ _____ _____    ______ ____
ROOT
ATOM      1  C   UNL     1       0.057  -2.734   3.441  0.00  0.00    +0.173 C 
ENDROOT
BRANCH   1   2
ATOM      2  C   UNL     1       0.078  -3.839   4.466  0.00  0.00    +0.231 C 
ATOM      3  O   UNL     1       0.092  -4.997   4.108  0.00  0.00    -0.274 OA
ATOM      4  N   UNL     1       0.080  -3.539   5.780  0.00  0.00    -0.240 N 
ATOM      5  C   UNL     1       0.099  -4.527   6.696  0.00  0.00    +0.306 C 
ATOM      6  O   UNL     1       0.113  -5.689   6.337  0.00  0.00    -0.252 OA
ATOM      7  N   UNL     1       0.101  -4.228   8.010  0.00  0.00    -0.291 N 
ATOM      8  H   UNL     1       0.068  -2.613   6.066  0.00  0.00    +0.159 HD
ATOM      9  H   UNL     1       0.089  -3.301   8.297  0.00  0.00    +0.151 HD
BRANCH   7  10
ATOM     10  C   UNL     1       0.121  -5.302   9.006  0.00  0.00    +0.219 C 
BRANCH  10  11
ATOM     11  C   UNL     1       0.119  -4.696  10.411  0.00  0.00    +0.405 C 
ATOM     12  F   UNL     1      -1.034  -3.921  10.583  0.00  0.00    -0.169 F 
ATOM     13  F   UNL     1       0.138  -5.721  11.362  0.00  0.00    -0.169 F 
ATOM     14  F   UNL     1       1.251  -3.889  10.572  0.00  0.00    -0.169 F 
ENDBRANCH  10  11
ENDBRANCH   7  10
ENDBRANCH   1   2
BRANCH   1  15
ATOM     15  S   UNL     1       0.059  -3.453   1.776  0.00  0.00    -0.080 S 
BRANCH  15  20
ATOM     16  C   UNL     1      -0.018   1.503   0.010  0.00  0.00    +0.065 C 
ATOM     17  C   UNL     1       0.002  -0.004   0.002  0.00  0.00    +0.034 A 
ATOM     18  C   UNL     1       0.008  -0.785  -1.092  0.00  0.00    +0.037 A 
ATOM     19  N   UNL     1       0.028  -2.090  -0.654  0.00  0.00    -0.324 N 
ATOM     20  C   UNL     1       0.034  -2.053   0.707  0.00  0.00    +0.148 A 
ATOM     21  N   UNL     1       0.024  -0.796   1.087  0.00  0.00    -0.338 N 
ATOM     22  C   UNL     1      -0.006  -0.320  -2.525  0.00  0.00    +0.065 C 
ATOM     23  H   UNL     1       0.028  -0.488   2.007  0.00  0.00    +0.168 HD
BRANCH  19  24
ATOM     24  C   UNL     1       0.041  -3.291  -1.493  0.00  0.00    +0.127 C 
BRANCH  24  25
ATOM     25  C   UNL     1       1.487  -3.688  -1.792  0.00  0.00    +0.003 C 
ATOM     26  C   UNL     1       1.504  -5.010  -2.563  0.00  0.00    +0.009 C 
ATOM     27  C   UNL     1       2.152  -2.598  -2.636  0.00  0.00    +0.009 C 
ENDBRANCH  24  25
ENDBRANCH  19  24
ENDBRANCH  15  20
ENDBRANCH   1  15
TORSDOF 7
