REMARK  Name = ZINC44785113
REMARK  6 active torsions:
REMARK  status: ('A' for Active; 'I' for Inactive)
REMARK    1  A    between atoms: C_1  and  C_2
REMARK    2  A    between atoms: C_2  and  C_4
REMARK    3  A    between atoms: C_2  and  N_10
REMARK    4  A    between atoms: C_11  and  C_13
REMARK    5  A    between atoms: C_13  and  C_18
REMARK    6  A    between atoms: N_19  and  O_20
REMARK                            x       y       z     vdW  Elec       q    Type
REMARK                         _______ _______ _______ _____ _____    ______ ____
ROOT
ATOM      1  C   UNL     1      -3.416  -1.266  -1.142  0.00  0.00    +0.105 C 
ATOM      2  C   UNL     1      -3.830  -1.355  -2.621  0.00  0.00    +0.024 C 
ATOM      3  C   UNL     1      -5.144  -0.559  -2.759  0.00  0.00    +0.001 C 
ATOM      4  C   UNL     1      -5.116   0.430  -1.567  0.00  0.00    +0.001 C 
ATOM      5  C   UNL     1      -4.493  -0.419  -0.432  0.00  0.00    +0.024 C 
ENDROOT
BRANCH   1   6
ATOM      6  C   UNL     1      -3.361  -2.645  -0.536  0.00  0.00    +0.147 C 
ATOM      7  N   UNL     1      -4.147  -2.952   0.443  0.00  0.00    -0.076 NA
ATOM      8  N   UNL     1      -2.474  -3.578  -1.026  0.00  0.00    -0.343 N 
ATOM      9  H   UNL     1      -1.940  -3.374  -1.810  0.00  0.00    +0.144 HD
ATOM     10  H   UNL     1      -2.384  -4.438  -0.587  0.00  0.00    +0.144 HD
BRANCH   7  11
ATOM     11  O   UNL     1      -4.096  -4.248   1.012  0.00  0.00    -0.408 OA
ATOM     12  H   UNL     1      -4.720  -4.383   1.738  0.00  0.00    +0.328 HD
ENDBRANCH   7  11
ENDBRANCH   1   6
BRANCH   1  14
ATOM     13  N   UNL     1      -1.491  -0.461   0.187  0.00  0.00    -0.309 N 
ATOM     14  C   UNL     1      -2.071  -0.597  -1.022  0.00  0.00    +0.227 C 
ATOM     15  O   UNL     1      -1.510  -0.180  -2.013  0.00  0.00    -0.275 OA
ATOM     16  H   UNL     1      -1.971  -0.724   0.988  0.00  0.00    +0.149 HD
BRANCH  13  18
ATOM     17  C   UNL     1      -0.199   1.612   0.315  0.00  0.00    +0.030 C 
ATOM     18  C   UNL     1      -0.135   0.083   0.292  0.00  0.00    +0.099 C 
BRANCH  18  19
ATOM     19  C   UNL     1       0.518  -0.419   1.582  0.00  0.00    +0.138 C 
ATOM     20  C   UNL     1       1.985   0.072   1.669  0.00  0.00    +0.035 C 
ATOM     21  C   UNL     1       2.215   0.043   3.204  0.00  0.00    +0.031 C 
ATOM     22  C   UNL     1       0.824   0.429   3.752  0.00  0.00    +0.160 C 
ATOM     23  O   UNL     1      -0.138   0.149   2.727  0.00  0.00    -0.375 OA
ENDBRANCH  18  19
ENDBRANCH  13  18
ENDBRANCH   1  14
TORSDOF 5
