REMARK  Name = ZINC66664495
REMARK  13 active torsions:
REMARK  status: ('A' for Active; 'I' for Inactive)
REMARK    1  A    between atoms: C_1  and  C_2
REMARK    2  A    between atoms: C_4  and  S_23
REMARK    3  A    between atoms: C_6  and  C_7
REMARK    4  A    between atoms: N_9  and  C_10
REMARK    5  A    between atoms: C_12  and  C_19
REMARK    6  A    between atoms: N_14  and  C_15
REMARK    7  A    between atoms: C_15  and  C_16
REMARK    8  A    between atoms: C_15  and  C_17
REMARK    9  A    between atoms: C_15  and  C_18
REMARK   10  A    between atoms: C_19  and  C_20
REMARK   11  A    between atoms: C_19  and  C_21
REMARK   12  A    between atoms: C_19  and  C_22
REMARK   13  A    between atoms: S_23  and  N_26
REMARK                            x       y       z     vdW  Elec       q    Type
REMARK                         _______ _______ _______ _____ _____    ______ ____
ROOT
ATOM      1  C   UNL     1       0.030  -0.283   2.562  0.00  0.00    +0.256 C 
ATOM      2  O   UNL     1       0.017   0.909   2.805  0.00  0.00    -0.269 OA
ATOM      3  N   UNL     1       0.052  -1.176   3.571  0.00  0.00    -0.266 N 
ATOM      4  H   UNL     1       0.063  -2.127   3.377  0.00  0.00    +0.157 HD
ENDROOT
BRANCH   1  10
ATOM      5  C   UNL     1      -0.018   1.503   0.010  0.00  0.00    +0.045 C 
ATOM      6  C   UNL     1       0.002  -0.004   0.002  0.00  0.00    -0.029 A 
ATOM      7  C   UNL     1       0.007  -0.729  -1.166  0.00  0.00    +0.040 A 
ATOM      8  C   UNL     1       0.026  -2.083  -1.101  0.00  0.00    +0.143 A 
ATOM      9  S   UNL     1       0.038  -2.417   0.545  0.00  0.00    -0.064 S 
ATOM     10  C   UNL     1       0.023  -0.748   1.172  0.00  0.00    +0.079 A 
BRANCH   8  11
ATOM     11  S   UNL     1       0.035  -3.230  -2.438  0.00  0.00    +0.062 S 
ATOM     12  O   UNL     1      -0.496  -4.447  -1.933  0.00  0.00    -0.153 OA
ATOM     13  O   UNL     1      -0.531  -2.558  -3.555  0.00  0.00    -0.153 OA
BRANCH  11  14
ATOM     14  N   UNL     1       1.619  -3.527  -2.818  0.00  0.00    -0.203 NA
ATOM     15  H   UNL     1       2.328  -3.088  -2.321  0.00  0.00    +0.144 HD
ATOM     16  H   UNL     1       1.839  -4.140  -3.537  0.00  0.00    +0.144 HD
ENDBRANCH  11  14
ENDBRANCH   8  11
ENDBRANCH   1  10
BRANCH   3  17
ATOM     17  C   UNL     1       0.059  -0.735   4.893  0.00  0.00    +0.124 A 
ATOM     18  C   UNL     1       0.039   0.562   5.309  0.00  0.00    +0.069 A 
ATOM     19  C   UNL     1       0.054   0.564   6.706  0.00  0.00    +0.070 A 
ATOM     20  N   UNL     1       0.081  -0.676   7.122  0.00  0.00    -0.174 NA
ATOM     21  N   UNL     1       0.080  -1.518   6.002  0.00  0.00    -0.245 N 
BRANCH  21  22
ATOM     22  C   UNL     1       0.100  -2.983   6.023  0.00  0.00    +0.057 C 
ATOM     23  C   UNL     1       1.349  -3.487   5.298  0.00  0.00    +0.036 C 
ATOM     24  C   UNL     1       0.120  -3.472   7.473  0.00  0.00    +0.036 C 
ATOM     25  C   UNL     1      -1.149  -3.520   5.322  0.00  0.00    +0.036 C 
ENDBRANCH  21  22
BRANCH  19  26
ATOM     26  C   UNL     1       0.041   1.788   7.585  0.00  0.00    +0.006 C 
ATOM     27  C   UNL     1      -1.364   2.394   7.595  0.00  0.00    +0.017 C 
ATOM     28  C   UNL     1       0.437   1.396   9.011  0.00  0.00    +0.017 C 
ATOM     29  C   UNL     1       1.036   2.815   7.044  0.00  0.00    +0.017 C 
ENDBRANCH  19  26
ENDBRANCH   3  17
TORSDOF 6
