REMARK  Name = ZINC48703571
REMARK  6 active torsions:
REMARK  status: ('A' for Active; 'I' for Inactive)
REMARK    1  A    between atoms: C_1  and  C_2
REMARK    2  A    between atoms: C_4  and  C_20
REMARK    3  A    between atoms: C_5  and  C_9
REMARK    4  A    between atoms: C_7  and  C_8
REMARK    5  A    between atoms: C_10  and  C_11
REMARK    6  A    between atoms: N_13  and  C_14
REMARK                            x       y       z     vdW  Elec       q    Type
REMARK                         _______ _______ _______ _____ _____    ______ ____
ROOT
ATOM      1  C   UNL     1       0.060  -4.246  -0.021  0.00  0.00    +0.013 C 
ATOM      2  C   UNL     1       0.076  -4.926   1.142  0.00  0.00    +0.068 C 
ENDROOT
BRANCH   1   7
ATOM      3  C   UNL     1      -0.018   1.503   0.010  0.00  0.00    +0.044 C 
ATOM      4  C   UNL     1       0.002  -0.004   0.002  0.00  0.00    -0.047 A 
ATOM      5  C   UNL     1       0.006  -0.686  -1.203  0.00  0.00    +0.007 A 
ATOM      6  C   UNL     1       0.025  -2.064  -1.218  0.00  0.00    -0.043 A 
ATOM      7  C   UNL     1       0.041  -2.774  -0.013  0.00  0.00    -0.022 A 
ATOM      8  C   UNL     1       0.037  -2.078   1.199  0.00  0.00    +0.011 A 
ATOM      9  C   UNL     1       0.023  -0.699   1.199  0.00  0.00    -0.047 A 
ATOM     10  C   UNL     1       0.025   0.054   2.504  0.00  0.00    +0.044 C 
ATOM     11  C   UNL     1       0.028  -2.805  -2.531  0.00  0.00    +0.044 C 
ENDBRANCH   1   7
BRANCH   2  12
ATOM     12  C   UNL     1       0.096  -6.390   1.134  0.00  0.00    +0.241 C 
ATOM     13  O   UNL     1       0.098  -6.993   0.077  0.00  0.00    -0.270 OA
ATOM     14  N   UNL     1       0.111  -7.070   2.298  0.00  0.00    -0.279 N 
ATOM     15  H   UNL     1       0.108  -6.590   3.140  0.00  0.00    +0.155 HD
BRANCH  14  16
ATOM     16  C   UNL     1       0.130  -8.477   2.290  0.00  0.00    +0.071 A 
ATOM     17  C   UNL     1       0.141  -9.283   3.383  0.00  0.00    +0.128 A 
ATOM     18  N   UNL     1       0.158 -10.568   2.944  0.00  0.00    -0.283 N 
ATOM     19  H   UNL     1       0.168 -11.361   3.502  0.00  0.00    +0.188 HD
ATOM     20  N   UNL     1       0.157 -10.545   1.544  0.00  0.00    -0.180 NA
ATOM     21  C   UNL     1       0.135  -9.297   1.152  0.00  0.00    +0.157 A 
ENDBRANCH  14  16
ENDBRANCH   2  12
TORSDOF 3
