REMARK  Name = ZINC39665277
REMARK  9 active torsions:
REMARK  status: ('A' for Active; 'I' for Inactive)
REMARK    1  A    between atoms: C_1  and  C_2
REMARK    2  A    between atoms: C_2  and  C_4
REMARK    3  A    between atoms: C_2  and  O_30
REMARK    4  A    between atoms: C_4  and  N_5
REMARK    5  A    between atoms: C_6  and  C_8
REMARK    6  A    between atoms: C_19  and  C_21
REMARK    7  A    between atoms: C_23  and  O_28
REMARK    8  A    between atoms: O_28  and  C_29
REMARK    9  A    between atoms: O_30  and  C_31
REMARK                            x       y       z     vdW  Elec       q    Type
REMARK                         _______ _______ _______ _____ _____    ______ ____
ROOT
ATOM      1  C   UNL     1       1.353  -5.815   3.996  0.00  0.00    +0.100 C 
ATOM      2  C   UNL     1      -0.032  -6.494   4.077  0.00  0.00    +0.121 C 
ATOM      3  N   UNL     1       0.013  -7.290   5.326  0.00  0.00    -0.296 N 
ATOM      4  C   UNL     1       0.742  -6.428   6.287  0.00  0.00    +0.115 C 
ATOM      5  C   UNL     1       1.857  -5.773   5.449  0.00  0.00    -0.004 C 
ATOM      6  C   UNL     1       2.071  -4.329   5.892  0.00  0.00    -0.010 C 
ATOM      7  C   UNL     1       2.627  -4.314   7.319  0.00  0.00    -0.082 C 
ATOM      8  N   UNL     1       3.896  -5.052   7.358  0.00  0.00    +0.379 N 
ATOM      9  C   UNL     1       3.666  -6.462   7.021  0.00  0.00    -0.082 C 
ATOM     10  C   UNL     1       3.153  -6.567   5.582  0.00  0.00    -0.010 C 
ATOM     11  C   UNL     1      -0.493  -8.521   5.540  0.00  0.00    +0.248 C 
ATOM     12  O   UNL     1      -0.454  -9.009   6.652  0.00  0.00    -0.270 OA
ATOM     13  H   UNL     1       4.539  -4.649   6.694  0.00  0.00    -0.086 HD
ATOM     14  H   UNL     1       4.291  -4.989   8.285  0.00  0.00    -0.086 HD
ENDROOT
BRANCH  11  15
ATOM     15  C   UNL     1      -1.097  -9.276   4.422  0.00  0.00    +0.054 A 
ATOM     16  C   UNL     1      -1.943  -8.633   3.518  0.00  0.00    +0.059 A 
ATOM     17  C   UNL     1      -2.504  -9.347   2.473  0.00  0.00    +0.121 A 
ATOM     18  C   UNL     1      -2.225 -10.699   2.326  0.00  0.00    +0.047 A 
ATOM     19  C   UNL     1      -1.388 -11.339   3.220  0.00  0.00    +0.019 A 
ATOM     20  C   UNL     1      -0.818 -10.636   4.264  0.00  0.00    +0.030 A 
ATOM     21 BR   UNL     1       0.333 -11.514   5.480  0.00  0.00    -0.050 Br
BRANCH  17  22
ATOM     22  O   UNL     1      -3.329  -8.723   1.591  0.00  0.00    -0.495 OA
ATOM     23  C   UNL     1      -3.873  -9.521   0.537  0.00  0.00    +0.277 C 
ENDBRANCH  17  22
ENDBRANCH  11  15
BRANCH   1  25
ATOM     24  N   UNL     1       2.237  -3.872   2.747  0.00  0.00    -0.312 N 
ATOM     25  C   UNL     1       1.222  -4.419   3.445  0.00  0.00    +0.218 C 
ATOM     26  O   UNL     1       0.204  -3.787   3.631  0.00  0.00    -0.275 OA
ATOM     27  H   UNL     1       3.051  -4.378   2.598  0.00  0.00    +0.149 HD
BRANCH  24  28
ATOM     28  C   UNL     1       2.109  -2.514   2.211  0.00  0.00    +0.148 C 
BRANCH  28  30
ATOM     29  C   UNL     1       3.258  -0.720   0.906  0.00  0.00    +0.053 C 
ATOM     30  C   UNL     1       3.391  -2.138   1.465  0.00  0.00    +0.187 C 
BRANCH  30  31
ATOM     31  O   UNL     1       4.500  -2.193   2.366  0.00  0.00    -0.488 OA
BRANCH  31  32
ATOM     32  C   UNL     1       5.716  -2.474   1.830  0.00  0.00    +0.121 A 
ATOM     33  C   UNL     1       6.817  -2.646   2.657  0.00  0.00    +0.045 A 
ATOM     34  C   UNL     1       8.053  -2.932   2.110  0.00  0.00    +0.004 A 
ATOM     35  C   UNL     1       8.194  -3.046   0.739  0.00  0.00    +0.000 A 
ATOM     36  C   UNL     1       7.099  -2.874  -0.087  0.00  0.00    +0.004 A 
ATOM     37  C   UNL     1       5.859  -2.594   0.455  0.00  0.00    +0.045 A 
ENDBRANCH  31  32
ENDBRANCH  30  31
ENDBRANCH  28  30
ENDBRANCH  24  28
ENDBRANCH   1  25
TORSDOF 7
