REMARK  Name = ZINC16425762
REMARK  4 active torsions:
REMARK  status: ('A' for Active; 'I' for Inactive)
REMARK    1  A    between atoms: C_6  and  C_11
REMARK    2  A    between atoms: C_11  and  O_13
REMARK    3  A    between atoms: O_13  and  N_14
REMARK    4  A    between atoms: C_15  and  C_16
REMARK                            x       y       z     vdW  Elec       q    Type
REMARK                         _______ _______ _______ _____ _____    ______ ____
ROOT
ATOM      1  O   UNL     1       4.999  -4.059  -0.067  0.00  0.00    -0.310 OA
ENDROOT
BRANCH   1   2
ATOM      2  N   UNL     1       6.302  -4.612  -0.083  0.00  0.00    -0.059 NA
ATOM      3  C   UNL     1       6.460  -5.904  -0.091  0.00  0.00    +0.163 C 
ATOM      4  N   UNL     1       5.355  -6.737  -0.084  0.00  0.00    -0.340 N 
ATOM      5  H   UNL     1       4.462  -6.357  -0.073  0.00  0.00    +0.144 HD
ATOM      6  H   UNL     1       5.473  -7.699  -0.090  0.00  0.00    +0.144 HD
BRANCH   3   7
ATOM      7  C   UNL     1       7.822  -6.483  -0.107  0.00  0.00    +0.018 A 
ATOM      8  C   UNL     1       8.938  -5.647  -0.108  0.00  0.00    +0.012 A 
ATOM      9  C   UNL     1      10.206  -6.192  -0.123  0.00  0.00    +0.015 A 
ATOM     10  C   UNL     1      10.370  -7.566  -0.138  0.00  0.00    +0.013 A 
ATOM     11  C   UNL     1       9.267  -8.401  -0.137  0.00  0.00    +0.015 A 
ATOM     12  C   UNL     1       7.995  -7.868  -0.116  0.00  0.00    +0.012 A 
ATOM     13  I   UNL     1      12.298  -8.386  -0.161  0.00  0.00    -0.044 I 
ENDBRANCH   3   7
ENDBRANCH   1   2
BRANCH   1  14
ATOM     14  C   UNL     1       4.976  -2.713  -0.060  0.00  0.00    +0.366 C 
ATOM     15  O   UNL     1       6.018  -2.087  -0.067  0.00  0.00    -0.243 OA
BRANCH  14  21
ATOM     16  C   UNL     1      -0.016   1.357   0.009  0.00  0.00    +0.001 A 
ATOM     17  C   UNL     1       1.168   2.091   0.002  0.00  0.00    +0.001 A 
ATOM     18  C   UNL     1       2.378   1.468  -0.013  0.00  0.00    +0.008 A 
ATOM     19  C   UNL     1       2.437   0.063  -0.021  0.00  0.00    -0.017 A 
ATOM     20  C   UNL     1       3.667  -0.611  -0.036  0.00  0.00    +0.023 A 
ATOM     21  C   UNL     1       3.685  -1.996  -0.043  0.00  0.00    +0.062 A 
ATOM     22  C   UNL     1       2.482  -2.726  -0.036  0.00  0.00    +0.015 A 
ATOM     23  C   UNL     1       1.283  -2.090  -0.021  0.00  0.00    +0.009 A 
ATOM     24  C   UNL     1       1.231  -0.684  -0.013  0.00  0.00    -0.018 A 
ATOM     25  C   UNL     1       0.002  -0.004   0.002  0.00  0.00    +0.008 A 
ENDBRANCH  14  21
ENDBRANCH   1  14
TORSDOF 4
