REMARK  Name = ZINC61886671
REMARK  4 active torsions:
REMARK  status: ('A' for Active; 'I' for Inactive)
REMARK    1  A    between atoms: C_5  and  C_6
REMARK    2  A    between atoms: N_8  and  C_9
REMARK    3  A    between atoms: C_14  and  C_16
REMARK    4  A    between atoms: N_17  and  O_18
REMARK                            x       y       z     vdW  Elec       q    Type
REMARK                         _______ _______ _______ _____ _____    ______ ____
ROOT
ATOM      1  C   UNL     1      -2.096  -3.243   0.026  0.00  0.00    +0.083 C 
ATOM      2  C   UNL     1      -2.505  -3.580   1.471  0.00  0.00    +0.023 C 
ATOM      3  C   UNL     1      -2.222  -5.084   1.669  0.00  0.00    +0.003 C 
ATOM      4  C   UNL     1      -2.252  -5.668   0.234  0.00  0.00    +0.013 C 
ATOM      5  C   UNL     1      -1.580  -4.552  -0.605  0.00  0.00    +0.076 C 
ENDROOT
BRANCH   5   6
ATOM      6  C   UNL     1      -2.005  -4.647  -2.047  0.00  0.00    +0.136 C 
ATOM      7  N   UNL     1      -1.213  -5.174  -2.921  0.00  0.00    -0.076 NA
ATOM      8  N   UNL     1      -3.238  -4.171  -2.434  0.00  0.00    -0.344 N 
ATOM      9  H   UNL     1      -3.833  -3.775  -1.778  0.00  0.00    +0.144 HD
ATOM     10  H   UNL     1      -3.512  -4.232  -3.363  0.00  0.00    +0.144 HD
BRANCH   7  11
ATOM     11  O   UNL     1       0.006  -5.764  -2.507  0.00  0.00    -0.408 OA
ATOM     12  H   UNL     1       0.531  -6.132  -3.231  0.00  0.00    +0.328 HD
ENDBRANCH   7  11
ENDBRANCH   5   6
BRANCH   1  15
ATOM     13  C   UNL     1      -1.350  -0.923   0.058  0.00  0.00    +0.251 C 
ATOM     14  O   UNL     1      -2.517  -0.579   0.084  0.00  0.00    -0.270 OA
ATOM     15  N   UNL     1      -1.035  -2.233   0.028  0.00  0.00    -0.307 N 
ATOM     16  H   UNL     1      -0.104  -2.508   0.007  0.00  0.00    +0.149 HD
BRANCH  13  21
ATOM     17  C   UNL     1      -0.397   1.468   0.088  0.00  0.00    +0.022 A 
ATOM     18  C   UNL     1       0.790   2.160   0.082  0.00  0.00    +0.028 A 
ATOM     19  C   UNL     1       1.957   1.467   0.050  0.00  0.00    +0.079 A 
ATOM     20  S   UNL     1       1.479  -0.143   0.027  0.00  0.00    -0.072 S 
ATOM     21  C   UNL     1      -0.289   0.086   0.060  0.00  0.00    +0.075 A 
ATOM     22 CL   UNL     1       3.573   2.100   0.036  0.00  0.00    -0.076 Cl
ENDBRANCH  13  21
ENDBRANCH   1  15
TORSDOF 4
