REMARK  Name = ZINC00269208
REMARK  6 active torsions:
REMARK  status: ('A' for Active; 'I' for Inactive)
REMARK    1  A    between atoms: C_1  and  C_2
REMARK    2  A    between atoms: C_4  and  C_21
REMARK    3  A    between atoms: C_5  and  S_9
REMARK    4  A    between atoms: C_6  and  C_8
REMARK    5  A    between atoms: S_9  and  N_12
REMARK    6  A    between atoms: C_15  and  C_18
REMARK                            x       y       z     vdW  Elec       q    Type
REMARK                         _______ _______ _______ _____ _____    ______ ____
ROOT
ATOM      1  S   UNL     1      -2.704   3.996  -0.601  0.00  0.00    +0.061 S 
ATOM      2  O   UNL     1      -3.765   3.150  -0.182  0.00  0.00    -0.153 OA
ATOM      3  O   UNL     1      -2.538   5.316  -0.100  0.00  0.00    -0.153 OA
ENDROOT
BRANCH   1   8
ATOM      4  C   UNL     1       2.425   1.044   0.579  0.00  0.00    +0.044 C 
ATOM      5  C   UNL     1       1.144   1.782   0.285  0.00  0.00    -0.050 A 
ATOM      6  C   UNL     1      -0.055   1.094   0.239  0.00  0.00    +0.008 A 
ATOM      7  C   UNL     1      -1.229   1.770  -0.036  0.00  0.00    -0.024 A 
ATOM      8  C   UNL     1      -1.206   3.134  -0.256  0.00  0.00    +0.111 A 
ATOM      9  C   UNL     1      -0.008   3.822  -0.209  0.00  0.00    -0.024 A 
ATOM     10  C   UNL     1       1.167   3.146   0.061  0.00  0.00    +0.008 A 
ATOM     11  C   UNL     1       0.018   5.309  -0.453  0.00  0.00    +0.046 C 
ATOM     12  C   UNL     1      -2.535   1.019  -0.092  0.00  0.00    +0.046 C 
ENDBRANCH   1   8
BRANCH   1  13
ATOM     13  N   UNL     1      -2.825   4.128  -2.247  0.00  0.00    -0.177 NA
ATOM     14  C   UNL     1      -2.262   5.289  -2.949  0.00  0.00    +0.110 C 
ATOM     15  C   UNL     1      -3.349   5.922  -3.816  0.00  0.00    +0.030 C 
ATOM     16  C   UNL     1      -3.946   4.857  -4.739  0.00  0.00    +0.077 C 
ATOM     17  C   UNL     1      -4.581   3.748  -3.898  0.00  0.00    +0.030 C 
ATOM     18  C   UNL     1      -3.502   3.088  -3.033  0.00  0.00    +0.110 C 
BRANCH  16  19
ATOM     19  C   UNL     1      -4.997   5.487  -5.617  0.00  0.00    +0.214 C 
ATOM     20  O   UNL     1      -6.141   5.087  -5.574  0.00  0.00    -0.276 OA
ATOM     21  N   UNL     1      -4.665   6.493  -6.449  0.00  0.00    -0.329 N 
ATOM     22  H   UNL     1      -3.750   6.813  -6.484  0.00  0.00    +0.145 HD
ATOM     23  H   UNL     1      -5.342   6.898  -7.014  0.00  0.00    +0.145 HD
ENDBRANCH  16  19
ENDBRANCH   1  13
TORSDOF 3
