REMARK  Name = ZINC19460609
REMARK  7 active torsions:
REMARK  status: ('A' for Active; 'I' for Inactive)
REMARK    1  A    between atoms: C_1  and  C_2
REMARK    2  A    between atoms: C_2  and  C_29
REMARK    3  A    between atoms: C_7  and  C_10
REMARK    4  A    between atoms: C_13  and  O_16
REMARK    5  A    between atoms: N_19  and  C_22
REMARK    6  A    between atoms: C_29  and  O_31
REMARK    7  A    between atoms: O_31  and  C_32
REMARK                            x       y       z     vdW  Elec       q    Type
REMARK                         _______ _______ _______ _____ _____    ______ ____
ROOT
ATOM      1  C   UNL     1       0.210  -0.543   1.419  0.00  0.00    +0.040 C 
ATOM      2  C   UNL     1       0.002  -0.004   0.002  0.00  0.00    +0.127 C 
ATOM      3  C   UNL     1      -1.246  -0.533  -0.572  0.00  0.00    +0.120 C 
ATOM      4  C   UNL     1      -0.961  -0.490  -2.127  0.00  0.00    +0.111 C 
ATOM      5  C   UNL     1       0.397  -1.200  -2.063  0.00  0.00    +0.097 C 
ATOM      6  N   UNL     1       1.075  -0.509  -0.917  0.00  0.00    -0.294 NA
ATOM      7  C   UNL     1      -2.183  -1.271  -2.526  0.00  0.00    +0.232 C 
ATOM      8  O   UNL     1      -2.278  -2.069  -3.434  0.00  0.00    -0.274 OA
ATOM      9  N   UNL     1      -3.163  -0.895  -1.653  0.00  0.00    -0.207 N 
ATOM     10  C   UNL     1      -2.666  -0.257  -0.550  0.00  0.00    +0.232 C 
ATOM     11  O   UNL     1      -3.282   0.395   0.266  0.00  0.00    -0.274 OA
ATOM     12  H   UNL     1       1.676   0.338  -1.280  0.00  0.00    +0.124 HD
ENDROOT
BRANCH   9  13
ATOM     13  C   UNL     1      -4.530  -1.125  -1.872  0.00  0.00    +0.079 A 
ATOM     14  C   UNL     1      -5.116  -2.302  -1.427  0.00  0.00    +0.027 A 
ATOM     15  C   UNL     1      -6.463  -2.524  -1.640  0.00  0.00    +0.002 A 
ATOM     16  C   UNL     1      -7.226  -1.581  -2.304  0.00  0.00    +0.003 A 
ATOM     17  C   UNL     1      -6.645  -0.409  -2.753  0.00  0.00    +0.040 A 
ATOM     18  C   UNL     1      -5.298  -0.178  -2.539  0.00  0.00    +0.145 A 
ATOM     19  F   UNL     1      -4.730   0.966  -2.978  0.00  0.00    -0.204 F 
ENDBRANCH   9  13
BRANCH   5  20
ATOM     20  C   UNL     1       1.168  -0.995  -3.342  0.00  0.00    -0.029 A 
ATOM     21  C   UNL     1       1.848   0.189  -3.556  0.00  0.00    +0.009 A 
ATOM     22  C   UNL     1       2.560   0.377  -4.724  0.00  0.00    +0.046 A 
ATOM     23  C   UNL     1       2.583  -0.620  -5.689  0.00  0.00    +0.117 A 
ATOM     24  C   UNL     1       1.895  -1.805  -5.475  0.00  0.00    +0.046 A 
ATOM     25  C   UNL     1       1.189  -1.990  -4.302  0.00  0.00    +0.009 A 
BRANCH  23  26
ATOM     26  O   UNL     1       3.277  -0.434  -6.843  0.00  0.00    -0.507 OA
ATOM     27  H   UNL     1       3.295  -1.225  -7.607  0.00  0.00    +0.292 HD
ENDBRANCH  23  26
ENDBRANCH   5  20
BRANCH   2  28
ATOM     28  C   UNL     1      -0.018   1.503   0.010  0.00  0.00    +0.328 C 
ATOM     29  O   UNL     1      -1.073   2.093   0.018  0.00  0.00    -0.249 OA
BRANCH  28  30
ATOM     30  O   UNL     1       1.135   2.190   0.003  0.00  0.00    -0.467 OA
ATOM     31  C   UNL     1       1.039   3.639   0.012  0.00  0.00    +0.280 C 
ENDBRANCH  28  30
ENDBRANCH   2  28
TORSDOF 5
