REMARK  Name = ZINC40794791
REMARK  10 active torsions:
REMARK  status: ('A' for Active; 'I' for Inactive)
REMARK    1  A    between atoms: C_1  and  C_2
REMARK    2  A    between atoms: C_2  and  C_3
REMARK    3  A    between atoms: C_6  and  O_9
REMARK    4  A    between atoms: O_9  and  C_10
REMARK    5  A    between atoms: C_11  and  N_28
REMARK    6  A    between atoms: C_12  and  N_16
REMARK    7  A    between atoms: N_16  and  N_17
REMARK    8  A    between atoms: N_17  and  S_18
REMARK    9  A    between atoms: S_18  and  C_21
REMARK   10  A    between atoms: C_24  and  C_27
REMARK                            x       y       z     vdW  Elec       q    Type
REMARK                         _______ _______ _______ _____ _____    ______ ____
ROOT
ATOM      1  C   UNL     1       2.022  -2.004   5.717  0.00  0.00    +0.246 A 
ATOM      2  C   UNL     1       2.665  -2.356   6.903  0.00  0.00    +0.129 A 
ATOM      3  C   UNL     1       1.893  -2.481   8.060  0.00  0.00    +0.161 A 
ATOM      4  N   UNL     1       0.583  -2.261   7.987  0.00  0.00    -0.218 NA
ATOM      5  C   UNL     1       0.015  -1.930   6.845  0.00  0.00    +0.227 A 
ATOM      6  N   UNL     1       0.709  -1.797   5.733  0.00  0.00    -0.199 NA
ENDROOT
BRANCH   2   7
ATOM      7  N   UNL     1       4.051  -2.579   6.933  0.00  0.00    -0.351 N 
ATOM      8  H   UNL     1       4.574  -2.489   6.121  0.00  0.00    +0.143 HD
ATOM      9  H   UNL     1       4.485  -2.823   7.765  0.00  0.00    +0.143 HD
ENDBRANCH   2   7
BRANCH   3  10
ATOM     10  N   UNL     1       2.484  -2.829   9.268  0.00  0.00    -0.244 N 
ATOM     11  H   UNL     1       3.440  -2.988   9.313  0.00  0.00    +0.169 HD
BRANCH  10  12
ATOM     12  N   UNL     1       1.699  -2.952  10.423  0.00  0.00    -0.109 NA
ATOM     13  H   UNL     1       1.139  -2.213  10.709  0.00  0.00    +0.172 HD
BRANCH  12  14
ATOM     14  S   UNL     1       1.727  -4.357  11.298  0.00  0.00    +0.074 S 
ATOM     15  O   UNL     1       0.955  -4.122  12.468  0.00  0.00    -0.152 OA
ATOM     16  O   UNL     1       1.433  -5.408  10.389  0.00  0.00    -0.152 OA
BRANCH  14  17
ATOM     17  C   UNL     1       3.388  -4.604  11.833  0.00  0.00    +0.107 A 
ATOM     18  C   UNL     1       4.271  -5.314  11.041  0.00  0.00    +0.029 A 
ATOM     19  C   UNL     1       5.574  -5.508  11.460  0.00  0.00    +0.005 A 
ATOM     20  C   UNL     1       5.994  -4.992  12.671  0.00  0.00    -0.050 A 
ATOM     21  C   UNL     1       5.111  -4.281  13.463  0.00  0.00    +0.005 A 
ATOM     22  C   UNL     1       3.810  -4.083  13.042  0.00  0.00    +0.029 A 
ATOM     23  C   UNL     1       7.414  -5.204  13.129  0.00  0.00    +0.044 C 
ENDBRANCH  14  17
ENDBRANCH  12  14
ENDBRANCH  10  12
ENDBRANCH   3  10
BRANCH   1  24
ATOM     24  O   UNL     1       2.726  -1.869   4.565  0.00  0.00    -0.436 OA
BRANCH  24  28
ATOM     25  C   UNL     1       0.730  -0.509   1.221  0.00  0.00    -0.047 A 
ATOM     26  C   UNL     1       1.093   0.379   2.217  0.00  0.00    +0.007 A 
ATOM     27  C   UNL     1       1.762  -0.074   3.338  0.00  0.00    +0.046 A 
ATOM     28  C   UNL     1       2.069  -1.421   3.464  0.00  0.00    +0.130 A 
ATOM     29  C   UNL     1       1.703  -2.310   2.463  0.00  0.00    +0.046 A 
ATOM     30  C   UNL     1       1.030  -1.853   1.347  0.00  0.00    +0.007 A 
BRANCH  25  32
ATOM     31  C   UNL     1      -1.508  -0.063   0.250  0.00  0.00    +0.009 C 
ATOM     32  C   UNL     1       0.001  -0.012  -0.000  0.00  0.00    +0.032 C 
ENDBRANCH  25  32
ENDBRANCH  24  28
ENDBRANCH   1  24
TORSDOF 8
