REMARK  Name = ZINC06715323
REMARK  5 active torsions:
REMARK  status: ('A' for Active; 'I' for Inactive)
REMARK    1  A    between atoms: C_1  and  C_2
REMARK    2  A    between atoms: C_5  and  N_8
REMARK    3  A    between atoms: N_8  and  C_9
REMARK    4  A    between atoms: C_9  and  C_15
REMARK    5  A    between atoms: N_19  and  C_20
REMARK                            x       y       z     vdW  Elec       q    Type
REMARK                         _______ _______ _______ _____ _____    ______ ____
ROOT
ATOM      1  C   UNL     1       3.350   0.157  -0.009  0.00  0.00    +0.094 C 
ATOM      2  C   UNL     1       3.958  -0.955   0.849  0.00  0.00    +0.034 C 
ATOM      3  C   UNL     1       5.482  -0.829   0.842  0.00  0.00    +0.003 C 
ATOM      4  C   UNL     1       5.884   0.532   1.413  0.00  0.00    +0.000 C 
ATOM      5  C   UNL     1       5.277   1.644   0.555  0.00  0.00    +0.003 C 
ATOM      6  C   UNL     1       3.752   1.519   0.562  0.00  0.00    +0.034 C 
ENDROOT
BRANCH   1   7
ATOM      7  C   UNL     1       1.849   0.033  -0.003  0.00  0.00    +0.180 A 
ATOM      8  N   UNL     1       1.108  -0.370   0.997  0.00  0.00    -0.111 NA
ATOM      9  N   UNL     1      -0.134  -0.358   0.673  0.00  0.00    -0.023 NA
ATOM     10  N   UNL     1      -0.274   0.048  -0.543  0.00  0.00    -0.039 NA
ATOM     11  N   UNL     1       1.017   0.319  -1.028  0.00  0.00    -0.195 N 
BRANCH  11  12
ATOM     12  C   UNL     1       1.367   0.785  -2.304  0.00  0.00    +0.069 A 
ATOM     13  C   UNL     1       2.271   1.830  -2.438  0.00  0.00    +0.028 A 
ATOM     14  C   UNL     1       2.618   2.284  -3.696  0.00  0.00    +0.002 A 
ATOM     15  C   UNL     1       2.057   1.706  -4.820  0.00  0.00    +0.000 A 
ATOM     16  C   UNL     1       1.153   0.668  -4.689  0.00  0.00    +0.002 A 
ATOM     17  C   UNL     1       0.806   0.207  -3.434  0.00  0.00    +0.028 A 
ENDBRANCH  11  12
ENDBRANCH   1   7
BRANCH   1  18
ATOM     18  N   UNL     1       3.844   0.039  -1.383  0.00  0.00    -0.332 N 
ATOM     19  H   UNL     1       4.469   0.835  -1.814  0.00  0.00    +0.147 HD
BRANCH  18  24
ATOM     20  C   UNL     1       2.537  -4.527  -4.482  0.00  0.00    +0.044 C 
ATOM     21  C   UNL     1       2.884  -3.314  -3.659  0.00  0.00    -0.050 A 
ATOM     22  C   UNL     1       3.693  -2.327  -4.191  0.00  0.00    +0.005 A 
ATOM     23  C   UNL     1       4.014  -1.214  -3.439  0.00  0.00    +0.023 A 
ATOM     24  C   UNL     1       3.522  -1.086  -2.147  0.00  0.00    +0.028 A 
ATOM     25  C   UNL     1       2.714  -2.082  -1.613  0.00  0.00    +0.023 A 
ATOM     26  C   UNL     1       2.393  -3.190  -2.372  0.00  0.00    +0.005 A 
ENDBRANCH  18  24
ENDBRANCH   1  18
TORSDOF 4
