REMARK  Name = ZINC59515669
REMARK  6 active torsions:
REMARK  status: ('A' for Active; 'I' for Inactive)
REMARK    1  A    between atoms: C_4  and  C_7
REMARK    2  A    between atoms: C_7  and  O_8
REMARK    3  A    between atoms: O_8  and  C_9
REMARK    4  A    between atoms: C_14  and  C_15
REMARK    5  A    between atoms: N_16  and  N_17
REMARK    6  A    between atoms: C_18  and  C_20
REMARK                            x       y       z     vdW  Elec       q    Type
REMARK                         _______ _______ _______ _____ _____    ______ ____
ROOT
ATOM      1  C   UNL     1       5.318  -1.604   1.466  0.00  0.00    +0.130 A 
ATOM      2  C   UNL     1       6.048  -2.007   0.360  0.00  0.00    +0.046 A 
ATOM      3  C   UNL     1       7.245  -2.677   0.526  0.00  0.00    +0.004 A 
ATOM      4  C   UNL     1       7.724  -2.951   1.796  0.00  0.00    +0.001 A 
ATOM      5  C   UNL     1       7.011  -2.558   2.909  0.00  0.00    +0.013 A 
ATOM      6  C   UNL     1       5.802  -1.874   2.754  0.00  0.00    +0.036 A 
ENDROOT
BRANCH   6   7
ATOM      7  C   UNL     1       5.037  -1.445   3.938  0.00  0.00    +0.142 C 
ATOM      8  N   UNL     1       3.910  -0.815   3.790  0.00  0.00    -0.187 NA
BRANCH   8   9
ATOM      9  N   UNL     1       3.183  -0.407   4.916  0.00  0.00    -0.199 N 
ATOM     10  C   UNL     1       2.014   0.246   4.763  0.00  0.00    +0.318 C 
ATOM     11  O   UNL     1       1.592   0.482   3.649  0.00  0.00    -0.263 OA
ATOM     12  H   UNL     1       3.521  -0.595   5.806  0.00  0.00    +0.178 HD
BRANCH  10  13
ATOM     13  C   UNL     1       1.240   0.681   5.962  0.00  0.00    +0.303 C 
ATOM     14  O   UNL     1       1.662   0.446   7.075  0.00  0.00    -0.265 OA
ATOM     15  N   UNL     1       0.071   1.334   5.808  0.00  0.00    -0.294 N 
ATOM     16  C   UNL     1      -0.557   1.677   4.524  0.00  0.00    +0.108 C 
ATOM     17  C   UNL     1      -1.861   2.440   4.840  0.00  0.00    +0.020 C 
ATOM     18  C   UNL     1      -1.609   2.979   6.274  0.00  0.00    +0.020 C 
ATOM     19  C   UNL     1      -0.792   1.818   6.901  0.00  0.00    +0.108 C 
ENDBRANCH  10  13
ENDBRANCH   8   9
ENDBRANCH   6   7
BRANCH   1  20
ATOM     20  O   UNL     1       4.141  -0.946   1.304  0.00  0.00    -0.487 OA
BRANCH  20  21
ATOM     21  C   UNL     1       3.711  -0.707  -0.038  0.00  0.00    +0.264 C 
BRANCH  21  25
ATOM     22  C   UNL     1      -0.017   1.378   0.010  0.00  0.00    +0.000 A 
ATOM     23  C   UNL     1       1.171   2.086   0.002  0.00  0.00    +0.000 A 
ATOM     24  C   UNL     1       2.377   1.411  -0.013  0.00  0.00    +0.007 A 
ATOM     25  C   UNL     1       2.396   0.029  -0.020  0.00  0.00    -0.010 A 
ATOM     26  C   UNL     1       1.208  -0.679  -0.012  0.00  0.00    +0.007 A 
ATOM     27  C   UNL     1       0.002  -0.004   0.002  0.00  0.00    +0.000 A 
ENDBRANCH  21  25
ENDBRANCH  20  21
ENDBRANCH   1  20
TORSDOF 6
