REMARK  Name = ZINC14550537
REMARK  7 active torsions:
REMARK  status: ('A' for Active; 'I' for Inactive)
REMARK    1  A    between atoms: C_1  and  C_2
REMARK    2  A    between atoms: C_2  and  C_3
REMARK    3  A    between atoms: C_2  and  O_4
REMARK    4  A    between atoms: O_4  and  C_5
REMARK    5  A    between atoms: C_12  and  C_21
REMARK    6  A    between atoms: C_25  and  O_27
REMARK    7  A    between atoms: O_27  and  C_28
REMARK                            x       y       z     vdW  Elec       q    Type
REMARK                         _______ _______ _______ _____ _____    ______ ____
ROOT
ATOM      1  C   UNL     1      -1.688  -2.980   1.580  0.00  0.00    +0.142 A 
ATOM      2  C   UNL     1      -3.025  -2.632   1.561  0.00  0.00    +0.047 A 
ATOM      3  C   UNL     1      -3.434  -1.479   0.918  0.00  0.00    +0.004 A 
ATOM      4  C   UNL     1      -2.500  -0.679   0.288  0.00  0.00    +0.006 A 
ATOM      5  C   UNL     1      -1.163  -1.020   0.296  0.00  0.00    -0.016 A 
ATOM      6  C   UNL     1      -0.731  -2.174   0.951  0.00  0.00    +0.074 A 
ATOM      7  N   UNL     1       0.605  -2.569   1.042  0.00  0.00    -0.334 N 
ATOM      8  C   UNL     1       1.586  -1.755   0.307  0.00  0.00    +0.105 C 
ATOM      9  C   UNL     1       1.152  -0.306   0.478  0.00  0.00    +0.029 C 
ATOM     10  C   UNL     1      -0.144  -0.190  -0.383  0.00  0.00    +0.049 C 
ATOM     11  C   UNL     1      -0.295   1.274  -0.568  0.00  0.00    -0.023 C 
ATOM     12  C   UNL     1       0.910   1.832  -0.521  0.00  0.00    -0.030 C 
ATOM     13  C   UNL     1       1.971   0.760  -0.258  0.00  0.00    +0.033 C 
ATOM     14  H   UNL     1       0.882  -2.688   2.005  0.00  0.00    +0.147 HD
ENDROOT
BRANCH   8  15
ATOM     15  C   UNL     1       2.961  -1.954   0.892  0.00  0.00    -0.024 A 
ATOM     16  C   UNL     1       3.121  -2.043   2.263  0.00  0.00    +0.006 A 
ATOM     17  C   UNL     1       4.380  -2.227   2.804  0.00  0.00    +0.004 A 
ATOM     18  C   UNL     1       5.482  -2.321   1.975  0.00  0.00    +0.045 A 
ATOM     19  C   UNL     1       5.324  -2.231   0.600  0.00  0.00    +0.120 A 
ATOM     20  C   UNL     1       4.058  -2.053   0.060  0.00  0.00    +0.051 A 
BRANCH  19  21
ATOM     21  O   UNL     1       6.406  -2.323  -0.217  0.00  0.00    -0.495 OA
ATOM     22  C   UNL     1       7.676  -2.513   0.408  0.00  0.00    +0.277 C 
ENDBRANCH  19  21
ENDBRANCH   8  15
BRANCH   1  23
ATOM     23  O   UNL     1      -1.298  -4.117   2.215  0.00  0.00    -0.488 OA
BRANCH  23  25
ATOM     24  C   UNL     1      -3.054  -5.760   1.982  0.00  0.00    +0.051 C 
ATOM     25  C   UNL     1      -2.301  -4.834   2.938  0.00  0.00    +0.167 C 
ATOM     26  C   UNL     1      -1.640  -5.665   4.039  0.00  0.00    +0.051 C 
ENDBRANCH  23  25
ENDBRANCH   1  23
TORSDOF 4
