REMARK  Name = ZINC63373609
REMARK  6 active torsions:
REMARK  status: ('A' for Active; 'I' for Inactive)
REMARK    1  A    between atoms: C_1  and  O_2
REMARK    2  A    between atoms: O_2  and  C_3
REMARK    3  A    between atoms: C_10  and  C_18
REMARK    4  A    between atoms: C_20  and  O_40
REMARK    5  A    between atoms: N_22  and  C_34
REMARK    6  A    between atoms: N_25  and  C_28
REMARK                            x       y       z     vdW  Elec       q    Type
REMARK                         _______ _______ _______ _____ _____    ______ ____
ROOT
ATOM      1  C   UNL     1       4.858  -3.892  -2.750  0.00  0.00    +0.142 C 
ATOM      2  C   UNL     1       5.301  -5.338  -2.980  0.00  0.00    +0.224 C 
ATOM      3  N   UNL     1       4.483  -6.236  -2.162  0.00  0.00    -0.228 N 
ATOM      4  C   UNL     1       4.071  -5.870  -0.937  0.00  0.00    +0.322 C 
ATOM      5  O   UNL     1       3.483  -6.677  -0.244  0.00  0.00    -0.251 OA
ATOM      6  N   UNL     1       4.292  -4.634  -0.461  0.00  0.00    -0.193 N 
ATOM      7  C   UNL     1       4.718  -3.644  -1.268  0.00  0.00    +0.236 C 
ATOM      8  O   UNL     1       4.990  -2.557  -0.807  0.00  0.00    -0.274 OA
ENDROOT
BRANCH   1  15
ATOM      9  C   UNL     1       7.521  -1.147  -6.682  0.00  0.00    +0.121 A 
ATOM     10  C   UNL     1       7.705  -2.459  -7.153  0.00  0.00    +0.047 A 
ATOM     11  C   UNL     1       6.846  -3.460  -6.864  0.00  0.00    +0.029 A 
ATOM     12  C   UNL     1       5.671  -3.196  -6.030  0.00  0.00    +0.043 A 
ATOM     13  N   UNL     1       4.714  -3.981  -5.591  0.00  0.00    -0.376 N 
ATOM     14  C   UNL     1       3.743  -3.165  -4.869  0.00  0.00    +0.124 C 
ATOM     15  C   UNL     1       3.512  -3.654  -3.437  0.00  0.00    +0.096 C 
ATOM     16  N   UNL     1       2.760  -2.618  -2.710  0.00  0.00    -0.310 NA
ATOM     17  C   UNL     1       3.523  -1.383  -2.508  0.00  0.00    +0.085 C 
ATOM     18  C   UNL     1       3.811  -0.713  -3.865  0.00  0.00    +0.048 C 
ATOM     19  C   UNL     1       4.370  -1.782  -4.776  0.00  0.00    -0.036 C 
ATOM     20  C   UNL     1       5.480  -1.813  -5.523  0.00  0.00    +0.003 A 
ATOM     21  C   UNL     1       6.475  -0.800  -5.897  0.00  0.00    +0.055 A 
ATOM     22  H   UNL     1       1.878  -2.428  -3.162  0.00  0.00    +0.122 HD
ATOM     23  H   UNL     1       4.661  -4.940  -5.725  0.00  0.00    +0.160 HD
BRANCH   9  25
ATOM     24  C   UNL     1       9.519  -0.604  -7.852  0.00  0.00    +0.277 C 
ATOM     25  O   UNL     1       8.430  -0.195  -7.022  0.00  0.00    -0.495 OA
ENDBRANCH   9  25
ENDBRANCH   1  15
BRANCH   6  26
ATOM     26  C   UNL     1       4.075  -4.369   0.899  0.00  0.00    +0.045 A 
ATOM     27  C   UNL     1       2.825  -3.955   1.336  0.00  0.00    +0.024 A 
ATOM     28  C   UNL     1       2.614  -3.695   2.676  0.00  0.00    +0.002 A 
ATOM     29  C   UNL     1       3.648  -3.847   3.582  0.00  0.00    +0.000 A 
ATOM     30  C   UNL     1       4.895  -4.260   3.150  0.00  0.00    +0.002 A 
ATOM     31  C   UNL     1       5.110  -4.526   1.812  0.00  0.00    +0.024 A 
ENDBRANCH   6  26
BRANCH   3  32
ATOM     32  C   UNL     1       4.127  -7.493  -2.663  0.00  0.00    +0.040 A 
ATOM     33  C   UNL     1       4.981  -8.575  -2.500  0.00  0.00    +0.023 A 
ATOM     34  C   UNL     1       4.626  -9.814  -2.996  0.00  0.00    +0.002 A 
ATOM     35  C   UNL     1       3.421  -9.978  -3.655  0.00  0.00    +0.000 A 
ATOM     36  C   UNL     1       2.568  -8.902  -3.819  0.00  0.00    +0.002 A 
ATOM     37  C   UNL     1       2.914  -7.662  -3.319  0.00  0.00    +0.023 A 
ENDBRANCH   3  32
BRANCH   2  38
ATOM     38  O   UNL     1       5.139  -5.672  -4.360  0.00  0.00    -0.373 OA
ATOM     39  H   UNL     1       5.484  -6.544  -4.597  0.00  0.00    +0.212 HD
ENDBRANCH   2  38
TORSDOF 5
