REMARK  Name = ZINC18285610
REMARK  7 active torsions:
REMARK  status: ('A' for Active; 'I' for Inactive)
REMARK    1  A    between atoms: C_6  and  N_7
REMARK    2  A    between atoms: N_7  and  C_8
REMARK    3  A    between atoms: C_8  and  N_10
REMARK    4  A    between atoms: N_10  and  C_11
REMARK    5  A    between atoms: C_11  and  C_12
REMARK    6  A    between atoms: C_12  and  N_13
REMARK    7  A    between atoms: C_17  and  N_20
REMARK                            x       y       z     vdW  Elec       q    Type
REMARK                         _______ _______ _______ _____ _____    ______ ____
ROOT
ATOM      1  N   UNL     1      -8.575   3.703  -0.345  0.00  0.00    -0.325 N 
ATOM      2  H   UNL     1      -8.554   2.769  -0.083  0.00  0.00    +0.148 HD
ENDROOT
BRANCH   1   3
ATOM      3  C   UNL     1      -9.737   4.385  -0.315  0.00  0.00    +0.135 C 
ATOM      4  S   UNL     1      -9.774   6.033  -0.777  0.00  0.00    -0.019 S 
BRANCH   3   5
ATOM      5  N   UNL     1     -10.870   3.770   0.079  0.00  0.00    -0.297 N 
ATOM      6  H   UNL     1     -10.861   2.822   0.283  0.00  0.00    +0.154 HD
BRANCH   5  12
ATOM      7  C   UNL     1     -12.868   4.337   1.312  0.00  0.00    +0.025 A 
ATOM      8  C   UNL     1     -14.037   5.064   1.427  0.00  0.00    +0.022 A 
ATOM      9  C   UNL     1     -14.408   5.944   0.426  0.00  0.00    +0.041 A 
ATOM     10  C   UNL     1     -13.606   6.103  -0.691  0.00  0.00    +0.022 A 
ATOM     11  C   UNL     1     -12.432   5.384  -0.808  0.00  0.00    +0.025 A 
ATOM     12  C   UNL     1     -12.058   4.500   0.196  0.00  0.00    +0.033 A 
ATOM     13 CL   UNL     1     -15.882   6.849   0.570  0.00  0.00    -0.084 Cl
ENDBRANCH   5  12
ENDBRANCH   3   5
ENDBRANCH   1   3
BRANCH   1  14
ATOM     14  C   UNL     1      -7.344   4.371  -0.773  0.00  0.00    +0.122 C 
BRANCH  14  15
ATOM     15  C   UNL     1      -6.179   3.381  -0.716  0.00  0.00    +0.121 C 
BRANCH  15  16
ATOM     16  N   UNL     1      -4.948   4.049  -1.145  0.00  0.00    -0.328 N 
ATOM     17  C   UNL     1      -3.750   3.345  -1.176  0.00  0.00    +0.119 A 
ATOM     18  C   UNL     1      -3.727   2.006  -0.798  0.00  0.00    +0.046 A 
ATOM     19  C   UNL     1      -2.528   1.318  -0.834  0.00  0.00    +0.037 A 
ATOM     20  C   UNL     1      -1.387   1.995  -1.246  0.00  0.00    +0.144 A 
ATOM     21  C   UNL     1      -1.482   3.325  -1.602  0.00  0.00    +0.145 A 
ATOM     22  N   UNL     1      -2.641   3.955  -1.563  0.00  0.00    -0.238 NA
ATOM     23  H   UNL     1      -4.969   4.983  -1.407  0.00  0.00    +0.148 HD
BRANCH  20  24
ATOM     24  N   UNL     1      -0.082   1.298  -1.299  0.00  0.00    +0.058 N 
ATOM     25  O   UNL     1      -0.005   0.125  -0.979  0.00  0.00    -0.126 OA
ATOM     26  O   UNL     1       0.913   1.896  -1.667  0.00  0.00    -0.126 OA
ENDBRANCH  20  24
ENDBRANCH  15  16
ENDBRANCH  14  15
ENDBRANCH   1  14
TORSDOF 7
