REMARK  Name = ZINC63480283
REMARK  4 active torsions:
REMARK  status: ('A' for Active; 'I' for Inactive)
REMARK    1  A    between atoms: C_1  and  C_2
REMARK    2  A    between atoms: C_16  and  C_19
REMARK    3  A    between atoms: C_19  and  C_20
REMARK    4  A    between atoms: N_31  and  C_34
REMARK                            x       y       z     vdW  Elec       q    Type
REMARK                         _______ _______ _______ _____ _____    ______ ____
ROOT
ATOM      1  C   UNL     1       1.081   1.297   0.161  0.00  0.00    +0.045 C 
ATOM      2  C   UNL     1       0.786  -0.180   0.106  0.00  0.00    -0.029 A 
ATOM      3  C   UNL     1       0.622  -0.804  -1.114  0.00  0.00    +0.005 A 
ATOM      4  C   UNL     1       0.351  -2.158  -1.175  0.00  0.00    +0.001 A 
ATOM      5  C   UNL     1       0.244  -2.892  -0.006  0.00  0.00    +0.008 A 
ATOM      6  C   UNL     1       0.407  -2.274   1.213  0.00  0.00    +0.004 A 
ATOM      7  C   UNL     1       0.685  -0.912   1.286  0.00  0.00    +0.042 A 
ATOM      8  N   UNL     1       0.814  -0.516   2.619  0.00  0.00    -0.283 N 
ATOM      9  C   UNL     1       0.642  -1.544   3.473  0.00  0.00    +0.243 C 
ATOM     10  O   UNL     1       0.696  -1.497   4.684  0.00  0.00    -0.273 OA
ATOM     11  C   UNL     1       0.356  -2.760   2.634  0.00  0.00    +0.136 C 
ATOM     12  C   UNL     1      -1.005  -3.382   2.968  0.00  0.00    +0.123 C 
ATOM     13  C   UNL     1      -0.780  -4.913   2.823  0.00  0.00    +0.107 C 
ATOM     14  C   UNL     1       0.693  -5.059   2.387  0.00  0.00    +0.072 C 
ATOM     15  N   UNL     1       1.356  -3.815   2.881  0.00  0.00    -0.295 NA
ATOM     16  C   UNL     1      -0.952  -5.426   4.234  0.00  0.00    +0.232 C 
ATOM     17  O   UNL     1      -0.848  -6.585   4.576  0.00  0.00    -0.274 OA
ATOM     18  N   UNL     1      -1.235  -4.402   5.048  0.00  0.00    -0.210 N 
ATOM     19  C   UNL     1      -1.300  -3.196   4.439  0.00  0.00    +0.233 C 
ATOM     20  O   UNL     1      -1.550  -2.138   4.975  0.00  0.00    -0.274 OA
ATOM     21  H   UNL     1       1.004   0.393   2.898  0.00  0.00    +0.155 HD
ATOM     22  H   UNL     1       2.206  -3.636   2.368  0.00  0.00    +0.124 HD
ENDROOT
BRANCH  18  23
ATOM     23  C   UNL     1      -1.454  -4.565   6.423  0.00  0.00    +0.044 A 
ATOM     24  C   UNL     1      -0.409  -4.949   7.253  0.00  0.00    +0.024 A 
ATOM     25  C   UNL     1      -0.627  -5.109   8.608  0.00  0.00    +0.002 A 
ATOM     26  C   UNL     1      -1.885  -4.887   9.137  0.00  0.00    +0.000 A 
ATOM     27  C   UNL     1      -2.928  -4.505   8.313  0.00  0.00    +0.002 A 
ATOM     28  C   UNL     1      -2.714  -4.338   6.959  0.00  0.00    +0.024 A 
ENDBRANCH  18  23
BRANCH  14  29
ATOM     29  C   UNL     1       1.326  -6.283   3.050  0.00  0.00    +0.052 C 
BRANCH  29  30
ATOM     30  C   UNL     1       2.722  -6.478   2.517  0.00  0.00    -0.040 C 
ATOM     31  C   UNL     1       3.873  -6.037   3.074  0.00  0.00    -0.001 A 
ATOM     32  C   UNL     1       4.159  -5.274   4.294  0.00  0.00    +0.010 A 
ATOM     33  C   UNL     1       5.443  -4.975   4.596  0.00  0.00    +0.001 A 
ATOM     34  C   UNL     1       6.505  -5.374   3.773  0.00  0.00    +0.002 A 
ATOM     35  C   UNL     1       6.322  -6.078   2.635  0.00  0.00    +0.026 A 
ATOM     36  C   UNL     1       5.013  -6.447   2.222  0.00  0.00    +0.043 A 
ATOM     37  N   UNL     1       4.582  -7.116   1.179  0.00  0.00    -0.380 N 
ATOM     38  C   UNL     1       3.120  -7.210   1.255  0.00  0.00    +0.144 C 
ATOM     39  H   UNL     1       5.138  -7.489   0.477  0.00  0.00    +0.160 HD
ENDBRANCH  29  30
ENDBRANCH  14  29
TORSDOF 3
