REMARK  Name = ZINC08788777
REMARK  7 active torsions:
REMARK  status: ('A' for Active; 'I' for Inactive)
REMARK    1  A    between atoms: C_1  and  O_2
REMARK    2  A    between atoms: O_2  and  C_3
REMARK    3  A    between atoms: C_6  and  N_9
REMARK    4  A    between atoms: C_14  and  C_30
REMARK    5  A    between atoms: C_30  and  C_31
REMARK    6  A    between atoms: C_31  and  S_32
REMARK    7  A    between atoms: S_32  and  C_33
REMARK                            x       y       z     vdW  Elec       q    Type
REMARK                         _______ _______ _______ _____ _____    ______ ____
ROOT
ATOM      1  N   UNL     1       3.246  -0.118  -1.334  0.00  0.00    -0.210 N 
ATOM      2  C   UNL     1       4.191   0.792  -1.070  0.00  0.00    +0.228 C 
ATOM      3  O   UNL     1       5.380   0.566  -0.997  0.00  0.00    -0.275 OA
ATOM      4  C   UNL     1       3.546   2.145  -0.877  0.00  0.00    +0.073 C 
ATOM      5  C   UNL     1       3.683   2.570   0.601  0.00  0.00    -0.057 C 
ATOM      6  C   UNL     1       1.410   2.120   0.307  0.00  0.00    +0.050 C 
ATOM      7  C   UNL     1       2.031   1.851  -1.069  0.00  0.00    +0.088 C 
ATOM      8  C   UNL     1       1.999   0.368  -1.359  0.00  0.00    +0.229 C 
ATOM      9  O   UNL     1       1.000  -0.281  -1.581  0.00  0.00    -0.275 OA
ATOM     10  C   UNL     1       0.797   3.491   0.377  0.00  0.00    -0.028 A 
ATOM     11  C   UNL     1       1.298   4.762   0.209  0.00  0.00    +0.004 A 
ATOM     12  C   UNL     1       0.463   5.858   0.340  0.00  0.00    +0.000 A 
ATOM     13  C   UNL     1      -0.874   5.673   0.640  0.00  0.00    +0.002 A 
ATOM     14  C   UNL     1      -1.379   4.401   0.810  0.00  0.00    +0.023 A 
ATOM     15  C   UNL     1      -0.546   3.292   0.680  0.00  0.00    +0.036 A 
ATOM     16  N   UNL     1      -0.818   1.927   0.799  0.00  0.00    -0.286 N 
ATOM     17  C   UNL     1       0.279   1.172   0.597  0.00  0.00    +0.211 C 
ATOM     18  O   UNL     1       0.342  -0.039   0.637  0.00  0.00    -0.277 OA
ATOM     19  H   UNL     1      -1.694   1.565   1.004  0.00  0.00    +0.155 HD
ATOM     20  N   UNL     1       2.507   1.984   1.248  0.00  0.00    +0.394 N 
ATOM     21  H   UNL     1       2.294   2.486   2.118  0.00  0.00    -0.083 HD
ATOM     22  H   UNL     1       2.674   0.993   1.458  0.00  0.00    -0.083 HD
ENDROOT
BRANCH   1  26
ATOM     23  C   UNL     1       4.115  -4.140  -2.020  0.00  0.00    +0.120 A 
ATOM     24  C   UNL     1       4.318  -3.592  -0.762  0.00  0.00    +0.047 A 
ATOM     25  C   UNL     1       4.031  -2.260  -0.534  0.00  0.00    +0.027 A 
ATOM     26  C   UNL     1       3.538  -1.471  -1.564  0.00  0.00    +0.044 A 
ATOM     27  C   UNL     1       3.329  -2.022  -2.821  0.00  0.00    +0.027 A 
ATOM     28  C   UNL     1       3.622  -3.352  -3.050  0.00  0.00    +0.047 A 
BRANCH  23  30
ATOM     29  C   UNL     1       4.164  -5.949  -3.562  0.00  0.00    +0.277 C 
ATOM     30  O   UNL     1       4.398  -5.451  -2.244  0.00  0.00    -0.495 OA
ENDBRANCH  23  30
ENDBRANCH   1  26
BRANCH   5  31
ATOM     31  C   UNL     1       4.981   2.018   1.194  0.00  0.00    -0.004 C 
BRANCH  31  32
ATOM     32  C   UNL     1       5.120   2.490   2.643  0.00  0.00    +0.067 C 
BRANCH  32  33
ATOM     33  S   UNL     1       6.658   1.835   3.347  0.00  0.00    -0.164 S 
ATOM     34  C   UNL     1       6.673   2.478   5.044  0.00  0.00    +0.084 C 
ENDBRANCH  32  33
ENDBRANCH  31  32
ENDBRANCH   5  31
TORSDOF 5
