REMARK  Name = ZINC63818916
REMARK  7 active torsions:
REMARK  status: ('A' for Active; 'I' for Inactive)
REMARK    1  A    between atoms: C_1  and  C_2
REMARK    2  A    between atoms: C_2  and  C_33
REMARK    3  A    between atoms: C_4  and  N_10
REMARK    4  A    between atoms: C_6  and  C_8
REMARK    5  A    between atoms: C_6  and  C_9
REMARK    6  A    between atoms: C_11  and  C_13
REMARK    7  A    between atoms: C_21  and  C_23
REMARK                            x       y       z     vdW  Elec       q    Type
REMARK                         _______ _______ _______ _____ _____    ______ ____
ROOT
ATOM      1  C   UNL     1       4.307  -0.861  -4.415  0.00  0.00    +0.302 C 
ATOM      2  O   UNL     1       3.794  -1.831  -4.932  0.00  0.00    -0.265 OA
ATOM      3  N   UNL     1       5.407  -0.308  -4.963  0.00  0.00    -0.291 N 
ATOM      4  C   UNL     1       6.155   0.736  -4.249  0.00  0.00    +0.127 C 
ATOM      5  C   UNL     1       7.618   0.293  -4.127  0.00  0.00    +0.127 C 
ATOM      6  N   UNL     1       8.091  -0.137  -5.450  0.00  0.00    -0.297 N 
ATOM      7  C   UNL     1       7.343  -1.180  -6.165  0.00  0.00    +0.127 C 
ATOM      8  C   UNL     1       5.883  -0.742  -6.285  0.00  0.00    +0.127 C 
ATOM      9  C   UNL     1       9.191   0.417  -5.999  0.00  0.00    +0.242 C 
ATOM     10  O   UNL     1       9.800   1.278  -5.399  0.00  0.00    -0.273 OA
ENDROOT
BRANCH   9  11
ATOM     11  C   UNL     1       9.664  -0.034  -7.357  0.00  0.00    +0.190 C 
ATOM     12  C   UNL     1      10.041  -1.498  -7.318  0.00  0.00    +0.016 C 
ATOM     13  C   UNL     1      11.353  -1.555  -7.644  0.00  0.00    -0.004 A 
ATOM     14  C   UNL     1      12.296  -2.672  -7.780  0.00  0.00    +0.010 A 
ATOM     15  C   UNL     1      13.576  -2.411  -8.127  0.00  0.00    +0.001 A 
ATOM     16  C   UNL     1      14.024  -1.103  -8.361  0.00  0.00    +0.002 A 
ATOM     17  C   UNL     1      13.218  -0.026  -8.256  0.00  0.00    +0.026 A 
ATOM     18  C   UNL     1      11.851  -0.184  -7.896  0.00  0.00    +0.043 A 
ATOM     19  N   UNL     1      10.884   0.688  -7.733  0.00  0.00    -0.370 N 
ATOM     20  H   UNL     1      10.962   1.649  -7.842  0.00  0.00    +0.161 HD
ENDBRANCH   9  11
BRANCH   1  22
ATOM     21  N   UNL     1       2.706  -0.910  -2.545  0.00  0.00    -0.305 N 
ATOM     22  C   UNL     1       3.720  -0.280  -3.169  0.00  0.00    +0.299 C 
ATOM     23  O   UNL     1       4.157   0.759  -2.720  0.00  0.00    -0.265 OA
ATOM     24  H   UNL     1       2.357  -1.741  -2.904  0.00  0.00    +0.149 HD
BRANCH  21  28
ATOM     25  C   UNL     1      -0.255   1.209  -0.067  0.00  0.00    -0.010 C 
ATOM     26  C   UNL     1       0.075  -0.276   0.116  0.00  0.00    -0.072 C 
ATOM     27  C   UNL     1       0.689  -0.829  -1.166  0.00  0.00    +0.009 C 
ATOM     28  C   UNL     1       2.129  -0.339  -1.321  0.00  0.00    +0.071 C 
ATOM     29  C   UNL     1       2.930  -0.824  -0.113  0.00  0.00    +0.009 C 
ATOM     30  C   UNL     1       2.333  -0.271   1.177  0.00  0.00    -0.072 C 
ATOM     31  N   UNL     1       0.902  -0.493   1.290  0.00  0.00    +0.386 N 
ATOM     32  C   UNL     1       2.679   1.215   1.313  0.00  0.00    -0.010 C 
ATOM     33  C   UNL     1       3.016  -1.006   2.354  0.00  0.00    -0.010 C 
ATOM     34  C   UNL     1      -1.265  -1.014   0.341  0.00  0.00    -0.010 C 
ATOM     35  H   UNL     1       0.544   0.097   2.047  0.00  0.00    -0.084 HD
ATOM     36  H   UNL     1       0.751  -1.453   1.615  0.00  0.00    -0.084 HD
ENDBRANCH  21  28
ENDBRANCH   1  22
TORSDOF 3
