REMARK  Name = ZINC57050263
REMARK  6 active torsions:
REMARK  status: ('A' for Active; 'I' for Inactive)
REMARK    1  A    between atoms: C_1  and  C_2
REMARK    2  A    between atoms: C_2  and  C_3
REMARK    3  A    between atoms: C_2  and  C_4
REMARK    4  A    between atoms: C_2  and  N_7
REMARK    5  A    between atoms: C_8  and  C_10
REMARK    6  A    between atoms: N_15  and  C_17
REMARK                            x       y       z     vdW  Elec       q    Type
REMARK                         _______ _______ _______ _____ _____    ______ ____
ROOT
ATOM      1  C   UNL     1       2.684  -0.625  -2.671  0.00  0.00    +0.101 C 
ATOM      2  C   UNL     1       2.019  -0.030  -3.933  0.00  0.00    +0.110 C 
ATOM      3  C   UNL     1       2.821   1.221  -4.220  0.00  0.00    +0.221 C 
ATOM      4  O   UNL     1       2.465   2.123  -4.949  0.00  0.00    -0.275 OA
ATOM      5  N   UNL     1       3.985   1.188  -3.549  0.00  0.00    -0.271 N 
ATOM      6  C   UNL     1       4.114  -0.047  -2.764  0.00  0.00    +0.127 C 
ENDROOT
BRANCH   5   7
ATOM      7  C   UNL     1       4.952   2.201  -3.592  0.00  0.00    +0.040 A 
ATOM      8  C   UNL     1       6.073   2.127  -2.776  0.00  0.00    +0.027 A 
ATOM      9  C   UNL     1       7.026   3.126  -2.817  0.00  0.00    +0.051 A 
ATOM     10  C   UNL     1       6.867   4.205  -3.675  0.00  0.00    +0.162 A 
ATOM     11  C   UNL     1       5.748   4.280  -4.495  0.00  0.00    +0.164 A 
ATOM     12  C   UNL     1       4.793   3.275  -4.455  0.00  0.00    +0.073 A 
ATOM     13  O   UNL     1       5.579   5.327  -5.348  0.00  0.00    -0.485 OA
ATOM     14  C   UNL     1       6.367   6.495  -5.098  0.00  0.00    +0.270 C 
ATOM     15  C   UNL     1       7.813   6.053  -4.836  0.00  0.00    +0.270 C 
ATOM     16  O   UNL     1       7.816   5.182  -3.700  0.00  0.00    -0.485 OA
ENDBRANCH   5   7
BRANCH   1  18
ATOM     17  N   UNL     1       0.708  -0.495  -1.188  0.00  0.00    -0.302 N 
ATOM     18  C   UNL     1       1.990  -0.150  -1.420  0.00  0.00    +0.219 C 
ATOM     19  O   UNL     1       2.585   0.544  -0.623  0.00  0.00    -0.275 OA
ATOM     20  H   UNL     1       0.233  -1.050  -1.826  0.00  0.00    +0.150 HD
BRANCH  17  22
ATOM     21  C   UNL     1       0.014   1.497   0.049  0.00  0.00    +0.041 C 
ATOM     22  C   UNL     1       0.034  -0.033   0.027  0.00  0.00    +0.105 C 
ATOM     23  C   UNL     1       0.784  -0.551   1.256  0.00  0.00    +0.041 C 
BRANCH  22  24
ATOM     24  C   UNL     1      -1.380  -0.554   0.046  0.00  0.00    +0.233 C 
ATOM     25  O   UNL     1      -1.898  -0.865   1.098  0.00  0.00    -0.274 OA
ATOM     26  N   UNL     1      -2.069  -0.676  -1.106  0.00  0.00    -0.328 N 
ATOM     27  H   UNL     1      -1.655  -0.428  -1.947  0.00  0.00    +0.145 HD
ATOM     28  H   UNL     1      -2.979  -1.011  -1.094  0.00  0.00    +0.145 HD
ENDBRANCH  22  24
ENDBRANCH  17  22
ENDBRANCH   1  18
TORSDOF 4
