REMARK  Name = ZINC34763303
REMARK  9 active torsions:
REMARK  status: ('A' for Active; 'I' for Inactive)
REMARK    1  A    between atoms: C_1  and  C_2
REMARK    2  A    between atoms: C_4  and  C_12
REMARK    3  A    between atoms: C_6  and  N_9
REMARK    4  A    between atoms: C_7  and  O_8
REMARK    5  A    between atoms: C_12  and  C_13
REMARK    6  A    between atoms: C_12  and  C_17
REMARK    7  A    between atoms: C_12  and  O_21
REMARK    8  A    between atoms: C_13  and  O_15
REMARK    9  A    between atoms: O_15  and  C_16
REMARK                            x       y       z     vdW  Elec       q    Type
REMARK                         _______ _______ _______ _____ _____    ______ ____
ROOT
ATOM      1  C   UNL     1      -0.263   1.506  -0.011  0.00  0.00    +0.047 C 
ATOM      2  C   UNL     1      -0.110   0.006  -0.013  0.00  0.00    -0.006 A 
ATOM      3  C   UNL     1      -0.111  -0.687  -1.208  0.00  0.00    +0.014 A 
ATOM      4  C   UNL     1       0.029  -2.062  -1.211  0.00  0.00    +0.006 A 
ATOM      5  C   UNL     1       0.170  -2.748  -0.019  0.00  0.00    +0.043 A 
ATOM      6  C   UNL     1       0.171  -2.060   1.179  0.00  0.00    +0.168 A 
ATOM      7  C   UNL     1       0.036  -0.679   1.184  0.00  0.00    +0.150 A 
ENDROOT
BRANCH   6   8
ATOM      8  N   UNL     1       0.320  -2.794   2.455  0.00  0.00    +0.060 N 
ATOM      9  O   UNL     1       0.442  -3.997   2.450  0.00  0.00    -0.126 OA
ATOM     10  O   UNL     1       0.321  -2.191   3.503  0.00  0.00    -0.126 OA
ENDBRANCH   6   8
BRANCH   7  11
ATOM     11  O   UNL     1       0.042   0.001   2.361  0.00  0.00    -0.504 OA
ATOM     12  H   UNL     1      -0.834   0.109   2.757  0.00  0.00    +0.292 HD
ENDBRANCH   7  11
BRANCH   4  13
ATOM     13  C   UNL     1       0.028  -2.816  -2.517  0.00  0.00    +0.283 C 
BRANCH  13  14
ATOM     14  C   UNL     1       1.345  -3.580  -2.665  0.00  0.00    +0.433 C 
ATOM     15  F   UNL     1       1.425  -4.568  -1.678  0.00  0.00    -0.167 F 
ATOM     16  F   UNL     1       1.397  -4.178  -3.929  0.00  0.00    -0.167 F 
ATOM     17  F   UNL     1       2.418  -2.692  -2.525  0.00  0.00    -0.167 F 
ENDBRANCH  13  14
BRANCH  13  18
ATOM     18  C   UNL     1      -1.122  -3.789  -2.534  0.00  0.00    +0.353 C 
ATOM     19  O   UNL     1      -1.579  -4.203  -1.494  0.00  0.00    -0.247 OA
BRANCH  18  20
ATOM     20  O   UNL     1      -1.639  -4.196  -3.703  0.00  0.00    -0.465 OA
ATOM     21  C   UNL     1      -2.728  -5.120  -3.645  0.00  0.00    +0.280 C 
ENDBRANCH  18  20
ENDBRANCH  13  18
BRANCH  13  22
ATOM     22  O   UNL     1      -0.113  -1.893  -3.599  0.00  0.00    -0.367 OA
ATOM     23  H   UNL     1      -0.927  -1.373  -3.569  0.00  0.00    +0.212 HD
ENDBRANCH  13  22
ENDBRANCH   4  13
TORSDOF 7
