REMARK  Name = ZINC13687457
REMARK  5 active torsions:
REMARK  status: ('A' for Active; 'I' for Inactive)
REMARK    1  A    between atoms: C_1  and  C_2
REMARK    2  A    between atoms: N_9  and  N_10
REMARK    3  A    between atoms: C_14  and  C_18
REMARK    4  A    between atoms: C_14  and  C_19
REMARK    5  A    between atoms: C_16  and  C_17
REMARK                            x       y       z     vdW  Elec       q    Type
REMARK                         _______ _______ _______ _____ _____    ______ ____
ROOT
ATOM      1  C   UNL     1       0.915   1.427   0.017  0.00  0.00    +0.044 C 
ATOM      2  C   UNL     1       0.652  -0.056   0.007  0.00  0.00    -0.049 A 
ATOM      3  C   UNL     1       0.558  -0.716  -1.208  0.00  0.00    +0.013 A 
ATOM      4  C   UNL     1       0.315  -2.090  -1.226  0.00  0.00    +0.000 A 
ATOM      5  C   UNL     1       0.177  -2.743  -0.011  0.00  0.00    +0.054 A 
ATOM      6  C   UNL     1       0.269  -2.094   1.210  0.00  0.00    +0.029 A 
ATOM      7  C   UNL     1       0.516  -0.725   1.212  0.00  0.00    +0.015 A 
ATOM      8  C   UNL     1       0.061  -3.155   2.220  0.00  0.00    +0.152 C 
ATOM      9  N   UNL     1       0.060  -3.023   3.526  0.00  0.00    -0.184 NA
ATOM     10  C   UNL     1      -0.143  -4.396   1.441  0.00  0.00    +0.272 C 
ATOM     11  O   UNL     1      -0.348  -5.503   1.904  0.00  0.00    -0.268 OA
ATOM     12  N   UNL     1      -0.064  -4.090   0.132  0.00  0.00    -0.256 N 
ATOM     13  C   UNL     1      -0.181  -4.882  -1.104  0.00  0.00    +0.056 C 
ATOM     14  C   UNL     1      -0.031  -4.170  -2.429  0.00  0.00    +0.002 C 
ATOM     15  C   UNL     1       0.202  -2.861  -2.479  0.00  0.00    -0.043 C 
ATOM     16  C   UNL     1       0.348  -2.169  -3.809  0.00  0.00    +0.044 C 
ATOM     17  C   UNL     1      -1.553  -5.559  -1.094  0.00  0.00    +0.036 C 
ATOM     18  C   UNL     1       0.875  -5.987  -1.049  0.00  0.00    +0.036 C 
ENDROOT
BRANCH   9  19
ATOM     19  N   UNL     1       0.143  -1.850   4.056  0.00  0.00    -0.282 N 
ATOM     20  H   UNL     1       0.130  -1.061   3.493  0.00  0.00    +0.164 HD
ATOM     21  H   UNL     1       0.219  -1.757   5.019  0.00  0.00    +0.164 HD
ENDBRANCH   9  19
TORSDOF 1
