REMARK  Name = ZINC66813546
REMARK  7 active torsions:
REMARK  status: ('A' for Active; 'I' for Inactive)
REMARK    1  A    between atoms: C_1  and  C_2
REMARK    2  A    between atoms: C_5  and  N_9
REMARK    3  A    between atoms: C_10  and  C_12
REMARK    4  A    between atoms: C_12  and  C_13
REMARK    5  A    between atoms: C_13  and  N_14
REMARK    6  A    between atoms: N_14  and  C_15
REMARK    7  A    between atoms: C_18  and  N_25
REMARK                            x       y       z     vdW  Elec       q    Type
REMARK                         _______ _______ _______ _____ _____    ______ ____
ROOT
ATOM      1  N   UNL     1      -0.330  -8.309  -2.633  0.00  0.00    -0.343 N 
ATOM      2  H   UNL     1      -0.313  -8.796  -1.795  0.00  0.00    +0.146 HD
ENDROOT
BRANCH   1   3
ATOM      3  C   UNL     1      -0.432  -9.000  -3.839  0.00  0.00    +0.035 A 
ATOM      4  C   UNL     1      -0.452  -8.314  -5.036  0.00  0.00    +0.026 A 
ATOM      5  C   UNL     1      -0.554  -8.996  -6.245  0.00  0.00    +0.035 A 
ATOM      6  C   UNL     1      -0.638 -10.355  -6.284  0.00  0.00    +0.135 A 
ATOM      7  C   UNL     1      -0.621 -11.090  -5.088  0.00  0.00    +0.032 A 
ATOM      8  C   UNL     1      -0.511 -10.406  -3.850  0.00  0.00    +0.008 A 
ATOM      9  C   UNL     1      -0.491 -11.166  -2.669  0.00  0.00    +0.030 A 
ATOM     10  C   UNL     1      -0.571 -12.523  -2.763  0.00  0.00    +0.111 A 
ATOM     11  N   UNL     1      -0.666 -13.139  -3.933  0.00  0.00    -0.263 NA
ATOM     12  C   UNL     1      -0.704 -12.492  -5.075  0.00  0.00    +0.121 A 
BRANCH   6  13
ATOM     13  N   UNL     1      -0.747 -11.055  -7.584  0.00  0.00    +0.057 N 
ATOM     14  O   UNL     1      -0.162 -10.628  -8.551  0.00  0.00    -0.126 OA
ATOM     15  O   UNL     1      -1.421 -12.055  -7.677  0.00  0.00    -0.126 OA
ENDBRANCH   6  13
ENDBRANCH   1   3
BRANCH   1  16
ATOM     16  C   UNL     1      -0.249  -6.846  -2.631  0.00  0.00    +0.111 C 
BRANCH  16  17
ATOM     17  C   UNL     1      -0.145  -6.343  -1.190  0.00  0.00    +0.114 C 
BRANCH  17  19
ATOM     18  N   UNL     1       0.037  -4.170  -0.022  0.00  0.00    -0.284 N 
ATOM     19  C   UNL     1      -0.061  -4.838  -1.188  0.00  0.00    +0.219 C 
ATOM     20  O   UNL     1      -0.083  -4.228  -2.237  0.00  0.00    -0.275 OA
ATOM     21  H   UNL     1       0.138  -4.659   0.810  0.00  0.00    +0.155 HD
BRANCH  18  26
ATOM     22  C   UNL     1      -0.135   1.502   0.022  0.00  0.00    +0.044 C 
ATOM     23  C   UNL     1      -0.088  -0.004   0.011  0.00  0.00    -0.049 A 
ATOM     24  C   UNL     1      -0.677  -0.705  -1.026  0.00  0.00    +0.005 A 
ATOM     25  C   UNL     1      -0.637  -2.086  -1.040  0.00  0.00    +0.025 A 
ATOM     26  C   UNL     1      -0.004  -2.771  -0.011  0.00  0.00    +0.052 A 
ATOM     27  C   UNL     1       0.587  -2.064   1.029  0.00  0.00    +0.062 A 
ATOM     28  C   UNL     1       0.547  -0.683   1.034  0.00  0.00    +0.025 A 
ATOM     29 CL   UNL     1       1.379  -2.916   2.318  0.00  0.00    -0.082 Cl
ENDBRANCH  18  26
ENDBRANCH  17  19
ENDBRANCH  16  17
ENDBRANCH   1  16
TORSDOF 6
