REMARK  Name = ZINC54882122
REMARK  7 active torsions:
REMARK  status: ('A' for Active; 'I' for Inactive)
REMARK    1  A    between atoms: C_1  and  C_2
REMARK    2  A    between atoms: C_2  and  C_3
REMARK    3  A    between atoms: C_2  and  C_4
REMARK    4  A    between atoms: C_2  and  C_11
REMARK    5  A    between atoms: N_13  and  C_14
REMARK    6  A    between atoms: C_18  and  S_20
REMARK    7  A    between atoms: S_20  and  N_23
REMARK                            x       y       z     vdW  Elec       q    Type
REMARK                         _______ _______ _______ _____ _____    ______ ____
ROOT
ATOM      1  C   UNL     1       2.887  -0.232  -2.780  0.00  0.00    +0.035 A 
ATOM      2  C   UNL     1       2.335  -0.968  -3.820  0.00  0.00    +0.023 A 
ATOM      3  C   UNL     1       3.112  -1.313  -4.908  0.00  0.00    +0.004 A 
ATOM      4  C   UNL     1       4.439  -0.927  -4.962  0.00  0.00    +0.029 A 
ATOM      5  C   UNL     1       4.992  -0.195  -3.928  0.00  0.00    +0.114 A 
ATOM      6  C   UNL     1       4.218   0.159  -2.840  0.00  0.00    +0.052 A 
ENDROOT
BRANCH   1   9
ATOM      7  C   UNL     1       2.317   1.289  -1.041  0.00  0.00    +0.227 C 
ATOM      8  O   UNL     1       3.125   2.078  -1.481  0.00  0.00    -0.275 OA
ATOM      9  N   UNL     1       2.102   0.119  -1.676  0.00  0.00    -0.285 N 
ATOM     10  H   UNL     1       1.404  -0.479  -1.367  0.00  0.00    +0.155 HD
BRANCH   7  12
ATOM     11  C   UNL     1       1.916   0.612   1.310  0.00  0.00    +0.025 C 
ATOM     12  C   UNL     1       1.551   1.616   0.215  0.00  0.00    +0.066 C 
ATOM     13  C   UNL     1       0.050   1.539  -0.068  0.00  0.00    +0.025 C 
BRANCH  12  14
ATOM     14  C   UNL     1       1.906   3.008   0.671  0.00  0.00    -0.033 A 
ATOM     15  C   UNL     1       0.944   4.001   0.671  0.00  0.00    +0.006 A 
ATOM     16  C   UNL     1       1.268   5.277   1.089  0.00  0.00    +0.020 A 
ATOM     17  C   UNL     1       2.556   5.561   1.508  0.00  0.00    +0.041 A 
ATOM     18  C   UNL     1       3.518   4.567   1.509  0.00  0.00    +0.020 A 
ATOM     19  C   UNL     1       3.191   3.289   1.095  0.00  0.00    +0.006 A 
ATOM     20 CL   UNL     1       2.965   7.165   2.034  0.00  0.00    -0.084 Cl
ENDBRANCH  12  14
ENDBRANCH   7  12
ENDBRANCH   1   9
BRANCH   5  21
ATOM     21  S   UNL     1       6.683   0.294  -4.001  0.00  0.00    +0.100 S 
ATOM     22  O   UNL     1       7.104   0.502  -2.660  0.00  0.00    -0.146 OA
ATOM     23  O   UNL     1       7.333  -0.622  -4.870  0.00  0.00    -0.146 OA
BRANCH  21  24
ATOM     24  N   UNL     1       6.734   1.772  -4.747  0.00  0.00    -0.118 NA
ATOM     25  C   UNL     1       7.868   2.365  -4.931  0.00  0.00    +0.117 C 
ATOM     26  N   UNL     1       9.089   1.868  -4.559  0.00  0.00    -0.331 N 
ATOM     27  C   UNL     1      10.143   2.541  -5.335  0.00  0.00    +0.103 C 
ATOM     28  C   UNL     1       9.576   3.951  -5.615  0.00  0.00    +0.026 C 
ATOM     29  C   UNL     1       8.052   3.711  -5.597  0.00  0.00    +0.074 C 
ATOM     30  H   UNL     1       9.236   1.182  -3.889  0.00  0.00    +0.147 HD
ENDBRANCH  21  24
ENDBRANCH   5  21
TORSDOF 5
