REMARK  Name = ZINC20840677
REMARK  7 active torsions:
REMARK  status: ('A' for Active; 'I' for Inactive)
REMARK    1  A    between atoms: C_1  and  O_2
REMARK    2  A    between atoms: O_2  and  C_3
REMARK    3  A    between atoms: C_10  and  C_12
REMARK    4  A    between atoms: C_13  and  C_22
REMARK    5  A    between atoms: C_14  and  N_21
REMARK    6  A    between atoms: C_16  and  N_20
REMARK    7  A    between atoms: C_17  and  C_18
REMARK                            x       y       z     vdW  Elec       q    Type
REMARK                         _______ _______ _______ _____ _____    ______ ____
ROOT
ATOM      1  C   UNL     1      -2.294  -2.096   1.790  0.00  0.00    +0.106 C 
ATOM      2  C   UNL     1      -2.126  -3.398   2.488  0.00  0.00    +0.067 C 
ATOM      3  C   UNL     1      -2.855  -4.512   2.269  0.00  0.00    +0.079 C 
ATOM      4  S   UNL     1      -4.164  -4.532   1.092  0.00  0.00    -0.058 S 
ATOM      5  C   UNL     1      -4.517  -2.826   0.840  0.00  0.00    +0.079 C 
ATOM      6  C   UNL     1      -3.635  -1.868   1.191  0.00  0.00    +0.067 C 
ENDROOT
BRANCH   1  11
ATOM      7  C   UNL     1      -1.191  -0.560   0.113  0.00  0.00    +0.181 C 
ATOM      8  C   UNL     1      -1.680  -0.727  -1.321  0.00  0.00    +0.209 C 
ATOM      9  C   UNL     1      -1.183  -2.200  -1.568  0.00  0.00    +0.285 C 
ATOM     10  O   UNL     1      -1.636  -2.877  -0.446  0.00  0.00    -0.342 OA
ATOM     11  C   UNL     1      -1.248  -2.009   0.676  0.00  0.00    +0.166 C 
ATOM     12  O   UNL     1      -1.397  -2.359  -2.927  0.00  0.00    -0.317 OA
ATOM     13  C   UNL     1      -1.177  -1.038  -3.486  0.00  0.00    +0.174 C 
ATOM     14  O   UNL     1      -0.990  -0.090  -2.391  0.00  0.00    -0.338 OA
ATOM     15  C   UNL     1      -2.397  -0.618  -4.299  0.00  0.00    +0.065 C 
ATOM     16  C   UNL     1      -2.595  -1.588  -5.466  0.00  0.00    +0.005 C 
ATOM     17  C   UNL     1      -1.347  -1.582  -6.351  0.00  0.00    +0.000 C 
ATOM     18  C   UNL     1      -0.136  -2.029  -5.529  0.00  0.00    +0.005 C 
ATOM     19  C   UNL     1       0.072  -1.060  -4.362  0.00  0.00    +0.065 C 
BRANCH   7  21
ATOM     20  C   UNL     1       0.238   1.361   0.244  0.00  0.00    +0.194 C 
ATOM     21  O   UNL     1       0.148  -0.061   0.135  0.00  0.00    -0.374 OA
ENDBRANCH   7  21
ENDBRANCH   1  11
BRANCH   5  22
ATOM     22  N   UNL     1      -5.716  -2.464   0.274  0.00  0.00    -0.352 N 
ATOM     23  H   UNL     1      -6.357  -3.145   0.017  0.00  0.00    +0.143 HD
ATOM     24  H   UNL     1      -5.921  -1.526   0.130  0.00  0.00    +0.143 HD
ENDBRANCH   5  22
BRANCH   3  25
ATOM     25  N   UNL     1      -2.570  -5.654   2.979  0.00  0.00    -0.352 N 
ATOM     26  H   UNL     1      -1.850  -5.653   3.630  0.00  0.00    +0.143 HD
ATOM     27  H   UNL     1      -3.088  -6.460   2.829  0.00  0.00    +0.143 HD
ENDBRANCH   3  25
BRANCH   6  28
ATOM     28  C   UNL     1      -4.026  -0.509   0.966  0.00  0.00    +0.098 C 
ATOM     29  N   UNL     1      -4.336   0.569   0.788  0.00  0.00    -0.191 NA
ENDBRANCH   6  28
BRANCH   2  30
ATOM     30  C   UNL     1      -1.098  -3.478   3.481  0.00  0.00    +0.098 C 
ATOM     31  N   UNL     1      -0.282  -3.540   4.269  0.00  0.00    -0.191 NA
ENDBRANCH   2  30
TORSDOF 6
