REMARK  Name = ZINC04244999
REMARK  5 active torsions:
REMARK  status: ('A' for Active; 'I' for Inactive)
REMARK    1  A    between atoms: C_1  and  C_2
REMARK    2  A    between atoms: C_4  and  N_13
REMARK    3  A    between atoms: C_7  and  N_8
REMARK    4  A    between atoms: N_10  and  C_11
REMARK    5  A    between atoms: N_15  and  C_16
REMARK                            x       y       z     vdW  Elec       q    Type
REMARK                         _______ _______ _______ _____ _____    ______ ____
ROOT
ATOM      1  C   UNL     1       2.413   3.906  -0.563  0.00  0.00    +0.046 C 
ATOM      2  C   UNL     1       1.142   3.157  -0.256  0.00  0.00    -0.023 A 
ATOM      3  C   UNL     1      -0.062   3.825  -0.233  0.00  0.00    +0.033 A 
ATOM      4  C   UNL     1      -1.240   3.131   0.052  0.00  0.00    +0.066 A 
ATOM      5  C   UNL     1      -1.197   1.759   0.309  0.00  0.00    +0.030 A 
ATOM      6  C   UNL     1       0.007   1.093   0.293  0.00  0.00    +0.030 A 
ATOM      7  C   UNL     1       1.185   1.786   0.007  0.00  0.00    +0.068 A 
ENDROOT
BRANCH   7   8
ATOM      8  N   UNL     1       2.384   1.121  -0.015  0.00  0.00    -0.239 NA
ATOM      9  C   UNL     1       2.495   0.002  -0.669  0.00  0.00    +0.195 C 
ATOM     10  N   UNL     1       3.661  -0.721  -0.601  0.00  0.00    -0.243 N 
ATOM     11  H   UNL     1       3.754  -1.667  -1.154  0.00  0.00    +0.165 HD
BRANCH  10  12
ATOM     12  C   UNL     1       4.696  -0.268   0.147  0.00  0.00    +0.172 C 
ATOM     13  N   UNL     1       5.563   0.112   0.774  0.00  0.00    -0.174 NA
ENDBRANCH  10  12
ENDBRANCH   7   8
BRANCH   4  14
ATOM     14  N   UNL     1      -2.438   3.796   0.074  0.00  0.00    -0.240 NA
ATOM     15  C   UNL     1      -3.480   3.279  -0.511  0.00  0.00    +0.195 C 
ATOM     16  N   UNL     1      -4.681   3.945  -0.489  0.00  0.00    -0.243 N 
ATOM     17  H   UNL     1      -5.561   3.509  -0.983  0.00  0.00    +0.165 HD
BRANCH  16  18
ATOM     18  C   UNL     1      -4.781   5.140   0.142  0.00  0.00    +0.172 C 
ATOM     19  N   UNL     1      -4.866   6.142   0.671  0.00  0.00    -0.174 NA
ENDBRANCH  16  18
ENDBRANCH   4  14
TORSDOF 4
