REMARK  Name = ZINC19789149
REMARK  5 active torsions:
REMARK  status: ('A' for Active; 'I' for Inactive)
REMARK    1  A    between atoms: C_1  and  C_2
REMARK    2  A    between atoms: C_2  and  C_3
REMARK    3  A    between atoms: C_2  and  C_4
REMARK    4  A    between atoms: C_4  and  C_5
REMARK    5  A    between atoms: N_7  and  C_10
REMARK                            x       y       z     vdW  Elec       q    Type
REMARK                         _______ _______ _______ _____ _____    ______ ____
ROOT
ATOM      1  C   UNL     1      -0.755   1.594  -1.231  0.00  0.00    +0.112 C 
ATOM      2  C   UNL     1      -0.013   1.086   0.008  0.00  0.00    +0.046 C 
ATOM      3  C   UNL     1      -0.731   1.580   1.266  0.00  0.00    +0.108 C 
ATOM      4  N   UNL     1      -2.115   1.088   1.265  0.00  0.00    -0.313 N 
ATOM      5  C   UNL     1      -2.861   1.601   0.109  0.00  0.00    +0.108 C 
ATOM      6  C   UNL     1      -2.206   1.108  -1.183  0.00  0.00    +0.046 C 
ATOM      7  C   UNL     1      -2.755   1.407   2.450  0.00  0.00    +0.150 A 
ATOM      8  C   UNL     1      -2.216   1.014   3.687  0.00  0.00    +0.125 A 
ATOM      9  C   UNL     1      -2.905   1.376   4.856  0.00  0.00    +0.183 A 
ATOM     10  N   UNL     1      -2.167   0.879   5.900  0.00  0.00    -0.216 NA
ATOM     11  H   UNL     1      -0.416  -0.061   3.313  0.00  0.00    +0.167 HD
ATOM     12  C   UNL     1      -1.092   0.231   5.368  0.00  0.00    +0.199 A 
ATOM     13  N   UNL     1      -1.116   0.321   4.070  0.00  0.00    -0.340 N 
ATOM     14  N   UNL     1      -4.037   2.066   4.752  0.00  0.00    -0.214 NA
ATOM     15  C   UNL     1      -4.508   2.407   3.571  0.00  0.00    +0.225 A 
ATOM     16  N   UNL     1      -3.890   2.099   2.445  0.00  0.00    -0.219 NA
ENDROOT
BRANCH   1  19
ATOM     17  C   UNL     1       0.470  -0.195  -4.092  0.00  0.00    +0.083 A 
ATOM     18  C   UNL     1      -0.338  -0.129  -3.008  0.00  0.00    +0.133 A 
ATOM     19  N   UNL     1      -0.105   1.076  -2.438  0.00  0.00    -0.248 N 
ATOM     20  N   UNL     1       0.781   1.690  -3.140  0.00  0.00    -0.065 NA
ATOM     21  N   UNL     1       1.149   0.957  -4.131  0.00  0.00    -0.134 NA
BRANCH  17  22
ATOM     22  C   UNL     1       0.584  -1.342  -5.063  0.00  0.00    +0.062 C 
BRANCH  22  24
ATOM     23  C   UNL     1       1.455   0.141  -6.875  0.00  0.00    +0.007 C 
ATOM     24  C   UNL     1       0.341  -0.832  -6.485  0.00  0.00    -0.011 C 
ATOM     25  C   UNL     1       0.332  -2.014  -7.457  0.00  0.00    +0.007 C 
ENDBRANCH  22  24
ENDBRANCH  17  22
ENDBRANCH   1  19
TORSDOF 3
