REMARK  Name = ZINC15959440
REMARK  8 active torsions:
REMARK  status: ('A' for Active; 'I' for Inactive)
REMARK    1  A    between atoms: C_1  and  C_2
REMARK    2  A    between atoms: C_7  and  C_8
REMARK    3  A    between atoms: C_17  and  C_20
REMARK    4  A    between atoms: C_20  and  C_22
REMARK    5  A    between atoms: C_20  and  O_23
REMARK    6  A    between atoms: N_26  and  C_29
REMARK    7  A    between atoms: C_29  and  C_30
REMARK    8  A    between atoms: C_30  and  C_31
REMARK                            x       y       z     vdW  Elec       q    Type
REMARK                         _______ _______ _______ _____ _____    ______ ____
ROOT
ATOM      1  C   UNL     1      -0.171   1.559  -0.339  0.00  0.00    +0.044 C 
ATOM      2  C   UNL     1      -0.085   0.057  -0.255  0.00  0.00    -0.046 A 
ATOM      3  C   UNL     1      -0.152  -0.702  -1.410  0.00  0.00    +0.004 A 
ATOM      4  C   UNL     1      -0.071  -2.081  -1.333  0.00  0.00    +0.008 A 
ATOM      5  C   UNL     1       0.076  -2.696  -0.110  0.00  0.00    +0.004 A 
ATOM      6  C   UNL     1       0.144  -1.943   1.059  0.00  0.00    +0.042 A 
ATOM      7  C   UNL     1       0.068  -0.554   0.972  0.00  0.00    -0.026 A 
ATOM      8  C   UNL     1       0.146   0.282   2.223  0.00  0.00    +0.046 C 
ATOM      9  N   UNL     1       0.292  -2.781   2.166  0.00  0.00    -0.283 N 
ATOM     10  C   UNL     1       0.329  -4.082   1.816  0.00  0.00    +0.243 C 
ATOM     11  O   UNL     1       0.447  -5.030   2.564  0.00  0.00    -0.273 OA
ATOM     12  C   UNL     1       0.194  -4.130   0.319  0.00  0.00    +0.136 C 
ATOM     13  C   UNL     1      -1.031  -4.948  -0.108  0.00  0.00    +0.122 C 
ATOM     14  C   UNL     1      -0.588  -5.659  -1.417  0.00  0.00    +0.109 C 
ATOM     15  C   UNL     1       0.859  -5.179  -1.660  0.00  0.00    +0.096 C 
ATOM     16  N   UNL     1       1.356  -4.787  -0.307  0.00  0.00    -0.293 NA
ATOM     17  C   UNL     1      -0.586  -7.122  -1.036  0.00  0.00    +0.227 C 
ATOM     18  O   UNL     1      -0.288  -8.037  -1.773  0.00  0.00    -0.275 OA
ATOM     19  N   UNL     1      -0.964  -7.249   0.241  0.00  0.00    -0.241 N 
ATOM     20  C   UNL     1      -1.250  -6.084   0.866  0.00  0.00    +0.228 C 
ATOM     21  O   UNL     1      -1.617  -5.960   2.014  0.00  0.00    -0.275 OA
ATOM     22  H   UNL     1       0.361  -2.464   3.080  0.00  0.00    +0.155 HD
ATOM     23  H   UNL     1       2.134  -4.149  -0.384  0.00  0.00    +0.124 HD
ENDROOT
BRANCH  15  24
ATOM     24  C   UNL     1       1.712  -6.320  -2.216  0.00  0.00    +0.129 C 
ATOM     25  C   UNL     1       1.217  -6.691  -3.616  0.00  0.00    +0.039 C 
BRANCH  24  26
ATOM     26  O   UNL     1       3.077  -5.903  -2.289  0.00  0.00    -0.390 OA
ATOM     27  H   UNL     1       3.223  -5.134  -2.857  0.00  0.00    +0.210 HD
ENDBRANCH  24  26
ENDBRANCH  15  24
BRANCH  19  28
ATOM     28  C   UNL     1      -1.067  -8.548   0.911  0.00  0.00    +0.121 C 
BRANCH  28  29
ATOM     29  C   UNL     1       0.273  -8.893   1.563  0.00  0.00    +0.054 C 
BRANCH  29  30
ATOM     30  C   UNL     1       0.167 -10.229   2.252  0.00  0.00    -0.046 A 
ATOM     31  C   UNL     1      -0.236 -10.295   3.573  0.00  0.00    +0.004 A 
ATOM     32  C   UNL     1      -0.333 -11.521   4.205  0.00  0.00    +0.000 A 
ATOM     33  C   UNL     1      -0.029 -12.680   3.517  0.00  0.00    +0.000 A 
ATOM     34  C   UNL     1       0.373 -12.614   2.196  0.00  0.00    +0.000 A 
ATOM     35  C   UNL     1       0.467 -11.389   1.562  0.00  0.00    +0.004 A 
ENDBRANCH  29  30
ENDBRANCH  28  29
ENDBRANCH  19  28
TORSDOF 5
