REMARK  Name = ZINC08818478
REMARK  6 active torsions:
REMARK  status: ('A' for Active; 'I' for Inactive)
REMARK    1  A    between atoms: C_1  and  C_2
REMARK    2  A    between atoms: C_5  and  S_8
REMARK    3  A    between atoms: S_8  and  C_11
REMARK    4  A    between atoms: N_22  and  N_25
REMARK    5  A    between atoms: C_23  and  N_24
REMARK    6  A    between atoms: C_26  and  C_27
REMARK                            x       y       z     vdW  Elec       q    Type
REMARK                         _______ _______ _______ _____ _____    ______ ____
ROOT
ATOM      1  C   UNL     1      -2.001   2.483   1.708  0.00  0.00    +0.162 A 
ATOM      2  C   UNL     1      -2.776   1.601   2.500  0.00  0.00    +0.137 A 
ATOM      3  C   UNL     1      -2.877   2.229   3.824  0.00  0.00    +0.184 A 
ATOM      4  N   UNL     1      -3.546   1.627   4.781  0.00  0.00    -0.224 NA
ATOM      5  C   UNL     1      -4.139   0.450   4.541  0.00  0.00    +0.092 A 
ATOM      6  C   UNL     1      -4.862  -0.199   5.558  0.00  0.00    +0.030 A 
ATOM      7  C   UNL     1      -5.456  -1.397   5.309  0.00  0.00    +0.002 A 
ATOM      8  C   UNL     1      -5.359  -1.998   4.054  0.00  0.00    +0.002 A 
ATOM      9  C   UNL     1      -4.669  -1.401   3.045  0.00  0.00    +0.030 A 
ATOM     10  C   UNL     1      -4.042  -0.160   3.265  0.00  0.00    +0.090 A 
ATOM     11  N   UNL     1      -3.361   0.435   2.279  0.00  0.00    -0.240 NA
ATOM     12  N   UNL     1      -2.181   3.419   3.740  0.00  0.00    -0.197 N 
ATOM     13  C   UNL     1      -1.668   3.551   2.472  0.00  0.00    +0.148 A 
ENDROOT
BRANCH   1  14
ATOM     14  S   UNL     1      -1.554   2.238   0.022  0.00  0.00    +0.030 S 
ATOM     15  O   UNL     1      -1.304   3.526  -0.523  0.00  0.00    -0.164 OA
ATOM     16  O   UNL     1      -2.519   1.353  -0.529  0.00  0.00    -0.164 OA
BRANCH  14  21
ATOM     17  C   UNL     1       3.711  -0.707  -0.037  0.00  0.00    +0.044 C 
ATOM     18  C   UNL     1       2.396   0.029  -0.021  0.00  0.00    -0.050 A 
ATOM     19  C   UNL     1       1.208  -0.679  -0.013  0.00  0.00    +0.005 A 
ATOM     20  C   UNL     1       0.002  -0.004   0.002  0.00  0.00    +0.027 A 
ATOM     21  C   UNL     1      -0.017   1.378   0.010  0.00  0.00    +0.094 A 
ATOM     22  C   UNL     1       1.171   2.086   0.002  0.00  0.00    +0.027 A 
ATOM     23  C   UNL     1       2.377   1.411  -0.015  0.00  0.00    +0.005 A 
ENDBRANCH  14  21
ENDBRANCH   1  14
BRANCH  13  24
ATOM     24  N   UNL     1      -0.915   4.626   2.035  0.00  0.00    -0.341 N 
ATOM     25  H   UNL     1      -0.586   4.650   1.123  0.00  0.00    +0.144 HD
ATOM     26  H   UNL     1      -0.716   5.357   2.641  0.00  0.00    +0.144 HD
ENDBRANCH  13  24
BRANCH  12  27
ATOM     27  N   UNL     1      -2.024   4.344   4.781  0.00  0.00    -0.171 NA
ATOM     28  C   UNL     1      -2.890   5.298   4.937  0.00  0.00    +0.142 C 
BRANCH  28  29
ATOM     29  C   UNL     1      -2.725   6.271   6.033  0.00  0.00    +0.013 A 
ATOM     30  C   UNL     1      -3.650   7.309   6.209  0.00  0.00    +0.012 A 
ATOM     31  C   UNL     1      -3.452   8.193   7.255  0.00  0.00    +0.020 A 
ATOM     32  C   UNL     1      -2.352   8.031   8.079  0.00  0.00    +0.111 A 
ATOM     33  N   UNL     1      -1.494   7.048   7.886  0.00  0.00    -0.263 NA
ATOM     34  C   UNL     1      -1.641   6.178   6.908  0.00  0.00    +0.120 A 
ENDBRANCH  28  29
ENDBRANCH  12  27
TORSDOF 5
