REMARK  Name = ZINC12515433
REMARK  5 active torsions:
REMARK  status: ('A' for Active; 'I' for Inactive)
REMARK    1  A    between atoms: C_1  and  C_2
REMARK    2  A    between atoms: C_5  and  C_8
REMARK    3  A    between atoms: C_14  and  C_16
REMARK    4  A    between atoms: N_21  and  S_22
REMARK    5  A    between atoms: S_22  and  C_25
REMARK                            x       y       z     vdW  Elec       q    Type
REMARK                         _______ _______ _______ _____ _____    ______ ____
ROOT
ATOM      1  C   UNL     1      -2.706   2.943   4.742  0.00  0.00    +0.250 A 
ATOM      2  N   UNL     1      -2.150   3.198   5.902  0.00  0.00    -0.106 NA
ATOM      3  N   UNL     1      -3.051   3.598   6.728  0.00  0.00    -0.092 NA
ATOM      4  C   UNL     1      -4.219   3.604   6.131  0.00  0.00    +0.314 A 
ATOM      5  O   UNL     1      -4.028   3.191   4.864  0.00  0.00    -0.405 OA
ATOM      6  N   UNL     1      -5.429   3.969   6.701  0.00  0.00    -0.237 N 
ATOM      7  C   UNL     1      -5.475   4.365   7.988  0.00  0.00    +0.239 C 
ATOM      8  O   UNL     1      -4.459   4.402   8.648  0.00  0.00    -0.274 OA
ATOM      9  H   UNL     1      -6.242   3.939   6.173  0.00  0.00    +0.159 HD
ENDROOT
BRANCH   1  14
ATOM     10  C   UNL     1      -0.013   1.086   0.008  0.00  0.00    +0.044 C 
ATOM     11  C   UNL     1      -0.718   1.572   1.248  0.00  0.00    -0.050 A 
ATOM     12  C   UNL     1      -2.084   1.788   1.223  0.00  0.00    +0.004 A 
ATOM     13  C   UNL     1      -2.737   2.228   2.356  0.00  0.00    +0.013 A 
ATOM     14  C   UNL     1      -2.014   2.465   3.526  0.00  0.00    +0.039 A 
ATOM     15  C   UNL     1      -0.635   2.250   3.543  0.00  0.00    +0.013 A 
ATOM     16  C   UNL     1       0.004   1.805   2.405  0.00  0.00    +0.004 A 
ENDBRANCH   1  14
BRANCH   7  17
ATOM     17  C   UNL     1      -6.791   4.761   8.607  0.00  0.00    +0.166 C 
ATOM     18  C   UNL     1      -7.375   5.980   7.862  0.00  0.00    +0.031 C 
ATOM     19  C   UNL     1      -7.992   6.824   9.012  0.00  0.00    +0.019 C 
ATOM     20  C   UNL     1      -6.986   6.570  10.162  0.00  0.00    +0.110 C 
ATOM     21  N   UNL     1      -6.585   5.160  10.007  0.00  0.00    -0.164 NA
BRANCH  21  22
ATOM     22  S   UNL     1      -5.998   4.186  11.211  0.00  0.00    +0.068 S 
ATOM     23  O   UNL     1      -6.469   4.728  12.438  0.00  0.00    -0.152 OA
ATOM     24  O   UNL     1      -6.266   2.847  10.817  0.00  0.00    -0.152 OA
BRANCH  22  25
ATOM     25  C   UNL     1      -4.245   4.367  11.220  0.00  0.00    +0.144 A 
ATOM     26  C   UNL     1      -3.482   5.249  11.910  0.00  0.00    +0.038 A 
ATOM     27  C   UNL     1      -2.108   5.208  11.761  0.00  0.00    +0.030 A 
ATOM     28  C   UNL     1      -1.565   4.284  10.929  0.00  0.00    +0.080 A 
ATOM     29  S   UNL     1      -3.014   3.429  10.330  0.00  0.00    -0.057 S 
ATOM     30 CL   UNL     1       0.105   4.002  10.549  0.00  0.00    -0.076 Cl
ENDBRANCH  22  25
ENDBRANCH  21  22
ENDBRANCH   7  17
TORSDOF 4
