REMARK  Name = ZINC07010162
REMARK  5 active torsions:
REMARK  status: ('A' for Active; 'I' for Inactive)
REMARK    1  A    between atoms: C_1  and  C_2
REMARK    2  A    between atoms: C_2  and  C_27
REMARK    3  A    between atoms: C_9  and  N_12
REMARK    4  A    between atoms: C_13  and  C_15
REMARK    5  A    between atoms: C_24  and  C_25
REMARK                            x       y       z     vdW  Elec       q    Type
REMARK                         _______ _______ _______ _____ _____    ______ ____
ROOT
ATOM      1  N   UNL     1       4.961   3.564  -0.469  0.00  0.00    -0.304 N 
ATOM      2  C   UNL     1       3.780   2.951  -0.253  0.00  0.00    +0.245 C 
ATOM      3  O   UNL     1       2.763   3.610  -0.148  0.00  0.00    -0.270 OA
ATOM      4  H   UNL     1       5.772   3.039  -0.552  0.00  0.00    +0.150 HD
ENDROOT
BRANCH   1  13
ATOM      5  C   UNL     1       5.150   7.663  -1.588  0.00  0.00    +0.011 C 
ATOM      6  C   UNL     1       6.463   6.946  -1.270  0.00  0.00    -0.026 C 
ATOM      7  C   UNL     1       6.906   7.299   0.156  0.00  0.00    +0.081 C 
ATOM      8  C   UNL     1       5.957   6.639   1.126  0.00  0.00    +0.110 A 
ATOM      9  C   UNL     1       5.122   5.632   0.796  0.00  0.00    +0.014 A 
ATOM     10  C   UNL     1       4.405   5.290   1.956  0.00  0.00    +0.047 A 
ATOM     11  C   UNL     1       4.841   6.107   2.935  0.00  0.00    +0.195 A 
ATOM     12  O   UNL     1       5.782   6.921   2.423  0.00  0.00    -0.467 OA
ATOM     13  C   UNL     1       5.019   5.024  -0.578  0.00  0.00    +0.107 C 
ATOM     14  C   UNL     1       6.260   5.433  -1.383  0.00  0.00    +0.034 C 
ATOM     15  C   UNL     1       7.540   7.391  -2.262  0.00  0.00    +0.011 C 
ENDBRANCH   1  13
BRANCH   2  16
ATOM     16  C   UNL     1       3.721   1.479  -0.142  0.00  0.00    +0.051 A 
ATOM     17  C   UNL     1       4.849   0.720  -0.386  0.00  0.00    +0.022 A 
ATOM     18  C   UNL     1       4.788  -0.680  -0.286  0.00  0.00    -0.017 A 
ATOM     19  C   UNL     1       5.928  -1.464  -0.537  0.00  0.00    +0.008 A 
ATOM     20  C   UNL     1       5.854  -2.819  -0.435  0.00  0.00    +0.001 A 
ATOM     21  C   UNL     1       4.661  -3.447  -0.085  0.00  0.00    +0.001 A 
ATOM     22  C   UNL     1       3.536  -2.722   0.166  0.00  0.00    +0.008 A 
ATOM     23  C   UNL     1       3.573  -1.319   0.071  0.00  0.00    -0.017 A 
ATOM     24  C   UNL     1       2.421  -0.557   0.328  0.00  0.00    +0.024 A 
ATOM     25  C   UNL     1       2.470   0.821   0.232  0.00  0.00    +0.076 A 
BRANCH  25  26
ATOM     26  C   UNL     1       1.261   1.625   0.500  0.00  0.00    +0.387 C 
ATOM     27  O   UNL     1       1.302   2.532   1.306  0.00  0.00    -0.241 OA
ATOM     28  O   UNL     1       0.113   1.353  -0.151  0.00  0.00    -0.241 OA
ENDBRANCH  25  26
ENDBRANCH   2  16
TORSDOF 3
