REMARK  Name = ZINC67535800
REMARK  10 active torsions:
REMARK  status: ('A' for Active; 'I' for Inactive)
REMARK    1  A    between atoms: C_1  and  C_2
REMARK    2  A    between atoms: C_3  and  C_9
REMARK    3  A    between atoms: C_4  and  C_8
REMARK    4  A    between atoms: N_5  and  C_7
REMARK    5  A    between atoms: C_9  and  C_11
REMARK    6  A    between atoms: C_9  and  N_12
REMARK    7  A    between atoms: N_15  and  C_16
REMARK    8  A    between atoms: N_15  and  C_17
REMARK    9  A    between atoms: C_17  and  C_19
REMARK   10  A    between atoms: C_17  and  C_20
REMARK                            x       y       z     vdW  Elec       q    Type
REMARK                         _______ _______ _______ _____ _____    ______ ____
ROOT
ATOM      1  N   UNL     1       0.777   0.410  -3.146  0.00  0.00    -0.293 N 
ATOM      2  C   UNL     1       1.454   0.863  -4.220  0.00  0.00    +0.303 C 
ATOM      3  O   UNL     1       1.313   0.323  -5.300  0.00  0.00    -0.253 OA
ATOM      4  N   UNL     1       2.286   1.916  -4.096  0.00  0.00    -0.282 N 
ATOM      5  C   UNL     1       2.455   2.567  -2.795  0.00  0.00    +0.134 C 
ATOM      6  H   UNL     1       0.889   0.841  -2.284  0.00  0.00    +0.151 HD
ENDROOT
BRANCH   1   7
ATOM      7  C   UNL     1      -0.128  -0.735  -3.280  0.00  0.00    +0.105 C 
ATOM      8  C   UNL     1      -1.498  -0.248  -3.755  0.00  0.00    +0.033 C 
BRANCH   7  11
ATOM      9  C   UNL     1      -0.590   0.698  -0.491  0.00  0.00    +0.068 C 
ATOM     10  C   UNL     1      -0.477  -0.788  -0.714  0.00  0.00    +0.065 A 
ATOM     11  C   UNL     1      -0.272  -1.420  -1.945  0.00  0.00    +0.016 A 
ATOM     12  C   UNL     1      -0.228  -2.754  -1.727  0.00  0.00    +0.041 A 
ATOM     13  N   UNL     1      -0.399  -2.960  -0.404  0.00  0.00    -0.271 N 
ATOM     14  N   UNL     1      -0.548  -1.710   0.211  0.00  0.00    -0.176 NA
ATOM     15  C   UNL     1      -0.419  -4.261   0.270  0.00  0.00    +0.172 C 
ATOM     16  C   UNL     1      -0.025  -3.820  -2.773  0.00  0.00    +0.065 C 
ENDBRANCH   7  11
ENDBRANCH   1   7
BRANCH   4  17
ATOM     17  C   UNL     1       3.021   2.409  -5.264  0.00  0.00    +0.107 C 
ATOM     18  C   UNL     1       2.715   3.894  -5.470  0.00  0.00    +0.033 C 
BRANCH  17  19
ATOM     19  C   UNL     1       4.500   2.228  -5.039  0.00  0.00    +0.008 A 
ATOM     20  C   UNL     1       5.288   3.316  -4.713  0.00  0.00    +0.008 A 
ATOM     21  C   UNL     1       6.645   3.151  -4.507  0.00  0.00    +0.000 A 
ATOM     22  C   UNL     1       7.216   1.897  -4.626  0.00  0.00    +0.003 A 
ATOM     23  C   UNL     1       6.430   0.807  -4.950  0.00  0.00    +0.039 A 
ATOM     24  C   UNL     1       5.070   0.971  -5.152  0.00  0.00    +0.128 A 
ATOM     25  F   UNL     1       4.300  -0.094  -5.465  0.00  0.00    -0.205 F 
ENDBRANCH  17  19
ENDBRANCH   4  17
TORSDOF 4
