REMARK  Name = ZINC42071924
REMARK  15 active torsions:
REMARK  status: ('A' for Active; 'I' for Inactive)
REMARK    1  A    between atoms: C_1  and  C_2
REMARK    2  A    between atoms: C_2  and  C_3
REMARK    3  A    between atoms: C_3  and  C_4
REMARK    4  A    between atoms: C_3  and  C_6
REMARK    5  A    between atoms: C_3  and  N_24
REMARK    6  A    between atoms: C_4  and  C_5
REMARK    7  A    between atoms: C_6  and  N_7
REMARK    8  A    between atoms: C_8  and  C_10
REMARK    9  A    between atoms: C_10  and  C_11
REMARK   10  A    between atoms: C_11  and  C_12
REMARK   11  A    between atoms: C_13  and  C_23
REMARK   12  A    between atoms: C_14  and  C_21
REMARK   13  A    between atoms: C_19  and  C_20
REMARK   14  A    between atoms: N_24  and  C_25
REMARK   15  A    between atoms: N_24  and  C_26
REMARK                            x       y       z     vdW  Elec       q    Type
REMARK                         _______ _______ _______ _____ _____    ______ ____
ROOT
ATOM      1  N   UNL     1      -2.804  -2.184  -0.345  0.00  0.00    -0.317 N 
ATOM      2  C   UNL     1      -2.992  -3.517  -0.399  0.00  0.00    +0.213 C 
ATOM      3  O   UNL     1      -2.040  -4.267  -0.335  0.00  0.00    -0.276 OA
ATOM      4  H   UNL     1      -3.565  -1.585  -0.397  0.00  0.00    +0.149 HD
ENDROOT
BRANCH   1   5
ATOM      5  C   UNL     1      -1.451  -1.639  -0.209  0.00  0.00    +0.092 C 
BRANCH   5   6
ATOM      6  C   UNL     1      -1.528  -0.124  -0.013  0.00  0.00    -0.051 C 
BRANCH   6   7
ATOM      7  N   UNL     1      -0.172   0.441  -0.022  0.00  0.00    +0.381 N 
ATOM      8  C   UNL     1       0.648  -0.239   0.990  0.00  0.00    -0.096 C 
ATOM      9  C   UNL     1       0.429   0.250  -1.349  0.00  0.00    -0.096 C 
ATOM     10  H   UNL     1      -0.217   1.427   0.188  0.00  0.00    -0.082 HD
ENDBRANCH   6   7
BRANCH   6  12
ATOM     11  C   UNL     1      -2.320   2.021  -1.021  0.00  0.00    +0.002 C 
ATOM     12  C   UNL     1      -2.347   0.496  -1.147  0.00  0.00    -0.014 C 
ENDBRANCH   6  12
BRANCH   6  13
ATOM     13  C   UNL     1      -2.200   0.183   1.327  0.00  0.00    -0.014 C 
ATOM     14  C   UNL     1      -3.658  -0.278   1.285  0.00  0.00    +0.002 C 
ENDBRANCH   6  13
ENDBRANCH   5   6
ENDBRANCH   1   5
BRANCH   2  15
ATOM     15  C   UNL     1      -4.384  -4.077  -0.539  0.00  0.00    +0.100 C 
BRANCH  15  16
ATOM     16  C   UNL     1      -4.317  -5.606  -0.576  0.00  0.00    +0.046 C 
BRANCH  16  17
ATOM     17  C   UNL     1      -5.709  -6.166  -0.716  0.00  0.00    -0.024 A 
ATOM     18  C   UNL     1      -6.501  -6.354   0.418  0.00  0.00    -0.023 A 
ATOM     19  C   UNL     1      -7.785  -6.873   0.265  0.00  0.00    +0.119 A 
ATOM     20  C   UNL     1      -8.243  -7.192  -1.040  0.00  0.00    +0.267 A 
ATOM     21  O   UNL     1      -9.363  -7.647  -1.200  0.00  0.00    -0.266 OA
ATOM     22  N   UNL     1      -7.438  -6.990  -2.100  0.00  0.00    -0.325 N 
ATOM     23  H   UNL     1      -7.756  -7.210  -2.990  0.00  0.00    +0.169 HD
ATOM     24  C   UNL     1      -6.192  -6.480  -1.944  0.00  0.00    +0.019 A 
ATOM     25  C   UNL     1      -5.325  -6.263  -3.157  0.00  0.00    +0.063 C 
ATOM     26  C   UNL     1      -5.976  -6.003   1.786  0.00  0.00    +0.045 C 
BRANCH  19  27
ATOM     27  C   UNL     1      -8.627  -7.082   1.405  0.00  0.00    +0.105 C 
ATOM     28  N   UNL     1      -9.294  -7.247   2.308  0.00  0.00    -0.191 NA
ENDBRANCH  19  27
ENDBRANCH  16  17
ENDBRANCH  15  16
ENDBRANCH   2  15
TORSDOF 9
