REMARK  Name = ZINC13261890
REMARK  7 active torsions:
REMARK  status: ('A' for Active; 'I' for Inactive)
REMARK    1  A    between atoms: C_4  and  C_7
REMARK    2  A    between atoms: C_7  and  N_8
REMARK    3  A    between atoms: C_9  and  C_11
REMARK    4  A    between atoms: C_15  and  N_16
REMARK    5  A    between atoms: N_16  and  S_17
REMARK    6  A    between atoms: S_17  and  C_20
REMARK    7  A    between atoms: C_24  and  C_26
REMARK                            x       y       z     vdW  Elec       q    Type
REMARK                         _______ _______ _______ _____ _____    ______ ____
ROOT
ATOM      1  C   UNL     1       3.650   3.722  -3.742  0.00  0.00    +0.070 A 
ATOM      2  C   UNL     1       2.642   4.573  -4.353  0.00  0.00    -0.023 A 
ATOM      3  C   UNL     1       1.636   4.951  -3.537  0.00  0.00    -0.004 A 
ATOM      4  S   UNL     1       2.005   4.190  -1.981  0.00  0.00    -0.076 S 
ATOM      5  C   UNL     1       3.481   3.389  -2.404  0.00  0.00    +0.098 A 
ATOM      6  C   UNL     1       0.467   5.820  -3.885  0.00  0.00    +0.043 C 
ATOM      7  C   UNL     1       0.770   6.529  -5.213  0.00  0.00    +0.005 C 
ATOM      8  C   UNL     1       1.287   5.495  -6.218  0.00  0.00    +0.005 C 
ATOM      9  C   UNL     1       2.683   5.025  -5.808  0.00  0.00    +0.037 C 
ENDROOT
BRANCH   1  11
ATOM     10  N   UNL     1       5.937   3.956  -4.547  0.00  0.00    -0.307 N 
ATOM     11  C   UNL     1       4.799   3.235  -4.508  0.00  0.00    +0.247 C 
ATOM     12  O   UNL     1       4.727   2.179  -5.108  0.00  0.00    -0.270 OA
ATOM     13  H   UNL     1       5.994   4.798  -4.069  0.00  0.00    +0.149 HD
BRANCH  10  14
ATOM     14  C   UNL     1       7.087   3.469  -5.313  0.00  0.00    +0.139 C 
BRANCH  14  18
ATOM     15  C   UNL     1      10.305   6.258  -4.979  0.00  0.00    +0.000 A 
ATOM     16  C   UNL     1      10.185   5.229  -4.064  0.00  0.00    +0.000 A 
ATOM     17  C   UNL     1       9.143   4.326  -4.172  0.00  0.00    +0.005 A 
ATOM     18  C   UNL     1       8.222   4.453  -5.195  0.00  0.00    -0.030 A 
ATOM     19  C   UNL     1       8.346   5.479  -6.113  0.00  0.00    +0.005 A 
ATOM     20  C   UNL     1       9.384   6.385  -6.002  0.00  0.00    +0.000 A 
ENDBRANCH  14  18
ENDBRANCH  10  14
ENDBRANCH   1  11
BRANCH   5  21
ATOM     21  N   UNL     1       4.291   2.603  -1.606  0.00  0.00    -0.209 N 
ATOM     22  H   UNL     1       5.096   2.206  -1.974  0.00  0.00    +0.174 HD
BRANCH  21  23
ATOM     23  S   UNL     1       3.888   2.340  -0.022  0.00  0.00    +0.073 S 
ATOM     24  O   UNL     1       3.591   3.612   0.539  0.00  0.00    -0.150 OA
ATOM     25  O   UNL     1       4.888   1.485   0.515  0.00  0.00    -0.150 OA
BRANCH  23  26
ATOM     26  C   UNL     1       2.383   1.423  -0.013  0.00  0.00    +0.109 A 
ATOM     27  C   UNL     1       1.169   2.089   0.002  0.00  0.00    +0.031 A 
ATOM     28  C   UNL     1      -0.017   1.379   0.010  0.00  0.00    +0.041 A 
ATOM     29  C   UNL     1       0.002  -0.004   0.002  0.00  0.00    +0.138 A 
ATOM     30  C   UNL     1       1.226  -0.682  -0.013  0.00  0.00    +0.100 A 
ATOM     31  C   UNL     1       2.419   0.045  -0.021  0.00  0.00    +0.046 A 
ATOM     32  F   UNL     1      -1.157  -0.698   0.009  0.00  0.00    -0.205 F 
BRANCH  30  33
ATOM     33  C   UNL     1       1.256  -2.157  -0.021  0.00  0.00    +0.389 C 
ATOM     34  O   UNL     1       0.216  -2.786  -0.014  0.00  0.00    -0.240 OA
ATOM     35  O   UNL     1       2.436  -2.807  -0.036  0.00  0.00    -0.240 OA
ENDBRANCH  30  33
ENDBRANCH  23  26
ENDBRANCH  21  23
ENDBRANCH   5  21
TORSDOF 7
