REMARK  Name = ZINC08985833
REMARK  8 active torsions:
REMARK  status: ('A' for Active; 'I' for Inactive)
REMARK    1  A    between atoms: C_1  and  C_2
REMARK    2  A    between atoms: C_5  and  C_8
REMARK    3  A    between atoms: C_11  and  C_14
REMARK    4  A    between atoms: C_19  and  C_21
REMARK    5  A    between atoms: C_21  and  S_22
REMARK    6  A    between atoms: S_22  and  C_23
REMARK    7  A    between atoms: C_26  and  C_29
REMARK    8  A    between atoms: N_27  and  N_28
REMARK                            x       y       z     vdW  Elec       q    Type
REMARK                         _______ _______ _______ _____ _____    ______ ____
ROOT
ATOM      1  C   UNL     1      -1.340  -2.961  -1.227  0.00  0.00    +0.069 C 
ATOM      2  N   UNL     1      -1.059  -3.228   0.001  0.00  0.00    -0.181 NA
ATOM      3  N   UNL     1      -0.956  -2.105   0.819  0.00  0.00    -0.181 N 
ATOM      4  C   UNL     1      -1.208  -0.902   0.009  0.00  0.00    +0.173 C 
ATOM      5  C   UNL     1      -1.477  -1.461  -1.401  0.00  0.00    +0.090 C 
ATOM      6  C   UNL     1      -0.672  -2.118   2.136  0.00  0.00    +0.246 C 
ATOM      7  O   UNL     1      -0.607  -1.075   2.753  0.00  0.00    -0.273 OA
ENDROOT
BRANCH   1  12
ATOM      8  C   UNL     1      -1.984  -6.858  -5.408  0.00  0.00    +0.044 C 
ATOM      9  C   UNL     1      -1.816  -5.837  -4.312  0.00  0.00    -0.050 A 
ATOM     10  C   UNL     1      -1.513  -6.249  -3.027  0.00  0.00    +0.004 A 
ATOM     11  C   UNL     1      -1.357  -5.320  -2.019  0.00  0.00    +0.010 A 
ATOM     12  C   UNL     1      -1.505  -3.960  -2.299  0.00  0.00    -0.002 A 
ATOM     13  C   UNL     1      -1.817  -3.551  -3.598  0.00  0.00    +0.010 A 
ATOM     14  C   UNL     1      -1.965  -4.491  -4.597  0.00  0.00    +0.004 A 
ENDBRANCH   1  12
BRANCH   4  15
ATOM     15  C   UNL     1       0.002  -0.004   0.002  0.00  0.00    +0.128 A 
ATOM     16  C   UNL     1      -0.016   1.341   0.009  0.00  0.00    +0.046 A 
ATOM     17  C   UNL     1       1.331   1.769  -0.001  0.00  0.00    +0.041 A 
ATOM     18  C   UNL     1       2.092   0.660  -0.014  0.00  0.00    +0.195 A 
ATOM     19  O   UNL     1       1.282  -0.411  -0.012  0.00  0.00    -0.466 OA
ENDBRANCH   4  15
BRANCH   6  20
ATOM     20  C   UNL     1      -0.434  -3.427   2.843  0.00  0.00    +0.175 C 
BRANCH  20  21
ATOM     21  S   UNL     1      -0.079  -3.114   4.590  0.00  0.00    -0.075 S 
BRANCH  21  22
ATOM     22  C   UNL     1       0.151  -4.767   5.157  0.00  0.00    +0.209 A 
ATOM     23  N   UNL     1       0.060  -5.859   4.434  0.00  0.00    -0.121 NA
ATOM     24  N   UNL     1       0.290  -6.889   5.168  0.00  0.00    -0.132 NA
ATOM     25  C   UNL     1       0.530  -6.519   6.395  0.00  0.00    +0.154 A 
ATOM     26  N   UNL     1       0.450  -5.154   6.431  0.00  0.00    -0.228 N 
BRANCH  25  27
ATOM     27  C   UNL     1       0.839  -7.427   7.557  0.00  0.00    +0.059 C 
ATOM     28  C   UNL     1       2.106  -8.229   7.255  0.00  0.00    +0.011 C 
ATOM     29  C   UNL     1       2.420  -9.151   8.435  0.00  0.00    +0.001 C 
ATOM     30  C   UNL     1       1.249 -10.111   8.658  0.00  0.00    +0.000 C 
ATOM     31  C   UNL     1      -0.018  -9.308   8.960  0.00  0.00    +0.001 C 
ATOM     32  C   UNL     1      -0.332  -8.386   7.780  0.00  0.00    +0.011 C 
ENDBRANCH  25  27
BRANCH  26  33
ATOM     33  N   UNL     1       0.632  -4.346   7.517  0.00  0.00    -0.295 N 
ATOM     34  H   UNL     1      -0.239  -4.191   8.003  0.00  0.00    +0.163 HD
ATOM     35  H   UNL     1       1.329  -4.727   8.139  0.00  0.00    +0.163 HD
ENDBRANCH  26  33
ENDBRANCH  21  22
ENDBRANCH  20  21
ENDBRANCH   6  20
TORSDOF 7
