REMARK  Name = ZINC03841087
REMARK  15 active torsions:
REMARK  status: ('A' for Active; 'I' for Inactive)
REMARK    1  A    between atoms: C_1  and  C_2
REMARK    2  A    between atoms: C_2  and  C_3
REMARK    3  A    between atoms: C_2  and  N_4
REMARK    4  A    between atoms: C_5  and  C_7
REMARK    5  A    between atoms: C_7  and  C_8
REMARK    6  A    between atoms: C_16  and  C_18
REMARK    7  A    between atoms: C_18  and  C_19
REMARK    8  A    between atoms: C_19  and  C_20
REMARK    9  A    between atoms: C_19  and  C_21
REMARK   10  A    between atoms: C_19  and  C_22
REMARK   11  A    between atoms: C_26  and  C_36
REMARK   12  A    between atoms: C_29  and  O_35
REMARK   13  A    between atoms: C_31  and  C_32
REMARK   14  A    between atoms: C_31  and  C_33
REMARK   15  A    between atoms: C_33  and  O_34
REMARK                            x       y       z     vdW  Elec       q    Type
REMARK                         _______ _______ _______ _____ _____    ______ ____
ROOT
ATOM      1  C   UNL     1       1.633  -1.150  -0.049  0.00  0.00    +0.054 C 
ATOM      2  C   UNL     1       1.068   0.258  -0.155  0.00  0.00    +0.058 A 
ATOM      3  C   UNL     1      -0.275   0.452  -0.198  0.00  0.00    +0.015 A 
ATOM      4  S   UNL     1      -0.411   2.215  -0.323  0.00  0.00    -0.057 S 
ATOM      5  C   UNL     1       1.293   2.561  -0.307  0.00  0.00    +0.165 A 
ATOM      6  N   UNL     1       1.818   1.357  -0.212  0.00  0.00    -0.229 NA
ATOM      7  N   UNL     1       1.935   3.791  -0.376  0.00  0.00    -0.265 N 
ATOM      8  C   UNL     1       1.212   4.925  -0.471  0.00  0.00    +0.219 C 
ATOM      9  O   UNL     1       0.001   4.871  -0.495  0.00  0.00    -0.275 OA
ATOM     10  C   UNL     1      -1.345  -0.581  -0.149  0.00  0.00    +0.049 C 
ATOM     11  C   UNL     1      -0.718  -1.967  -0.397  0.00  0.00    +0.011 C 
ATOM     12  C   UNL     1       0.543  -2.102   0.460  0.00  0.00    -0.019 C 
ATOM     13  C   UNL     1       1.096  -3.528   0.363  0.00  0.00    +0.010 C 
ATOM     14  C   UNL     1       0.057  -4.545   0.787  0.00  0.00    +0.032 C 
ATOM     15  C   UNL     1      -1.161  -4.426  -0.134  0.00  0.00    +0.123 C 
ATOM     16  C   UNL     1      -1.750  -3.024   0.010  0.00  0.00    +0.021 C 
ATOM     17  C   UNL     1      -2.983  -2.899  -0.886  0.00  0.00    +0.016 C 
ATOM     18  C   UNL     1       0.212  -1.770   1.916  0.00  0.00    +0.012 C 
ATOM     19  H   UNL     1       2.904   3.834  -0.357  0.00  0.00    +0.157 HD
ENDROOT
BRANCH  15  20
ATOM     20  O   UNL     1      -2.140  -5.398   0.239  0.00  0.00    -0.391 OA
ATOM     21  H   UNL     1      -1.832  -6.312   0.171  0.00  0.00    +0.210 HD
ENDBRANCH  15  20
BRANCH   1  22
ATOM     22  C   UNL     1       2.811  -1.155   0.927  0.00  0.00    +0.106 C 
BRANCH  22  24
ATOM     23  N   UNL     1       5.108  -0.242   1.024  0.00  0.00    -0.313 N 
ATOM     24  C   UNL     1       3.956  -0.373   0.337  0.00  0.00    +0.214 C 
ATOM     25  O   UNL     1       3.841   0.139  -0.757  0.00  0.00    -0.276 OA
ATOM     26  H   UNL     1       5.200  -0.651   1.899  0.00  0.00    +0.149 HD
BRANCH  23  28
ATOM     27  C   UNL     1       7.112   1.047   1.577  0.00  0.00    +0.027 C 
ATOM     28  C   UNL     1       6.221   0.519   0.450  0.00  0.00    +0.067 C 
ATOM     29  C   UNL     1       7.042  -0.391  -0.465  0.00  0.00    +0.027 C 
ENDBRANCH  23  28
ENDBRANCH  22  24
ENDBRANCH   1  22
BRANCH   8  30
ATOM     30  C   UNL     1       1.909   6.259  -0.546  0.00  0.00    +0.102 C 
BRANCH  30  31
ATOM     31  C   UNL     1       0.866   7.374  -0.647  0.00  0.00    -0.029 C 
ATOM     32  C   UNL     1      -0.038   7.340   0.587  0.00  0.00    +0.011 C 
ATOM     33  C   UNL     1       1.573   8.728  -0.724  0.00  0.00    +0.011 C 
ATOM     34  C   UNL     1       0.020   7.168  -1.905  0.00  0.00    +0.011 C 
ENDBRANCH  30  31
ENDBRANCH   8  30
BRANCH  16  35
ATOM     35  C   UNL     1      -2.158  -2.798   1.468  0.00  0.00    +0.165 C 
BRANCH  35  36
ATOM     36  O   UNL     1      -3.236  -3.675   1.802  0.00  0.00    -0.394 OA
ATOM     37  H   UNL     1      -3.547  -3.586   2.713  0.00  0.00    +0.209 HD
ENDBRANCH  35  36
ENDBRANCH  16  35
TORSDOF 8
