REMARK  Name = ZINC36611881
REMARK  9 active torsions:
REMARK  status: ('A' for Active; 'I' for Inactive)
REMARK    1  A    between atoms: C_1  and  O_2
REMARK    2  A    between atoms: O_2  and  C_3
REMARK    3  A    between atoms: C_6  and  C_11
REMARK    4  A    between atoms: C_8  and  O_9
REMARK    5  A    between atoms: O_9  and  C_10
REMARK    6  A    between atoms: C_20  and  C_28
REMARK    7  A    between atoms: C_21  and  N_27
REMARK    8  A    between atoms: C_22  and  C_23
REMARK    9  A    between atoms: C_22  and  C_25
REMARK                            x       y       z     vdW  Elec       q    Type
REMARK                         _______ _______ _______ _____ _____    ______ ____
ROOT
ATOM      1  C   UNL     1       2.507  -2.501  -4.386  0.00  0.00    +0.085 C 
ATOM      2  C   UNL     1       1.728  -2.194  -5.648  0.00  0.00    -0.055 C 
ATOM      3  C   UNL     1       1.940  -1.066  -6.296  0.00  0.00    -0.029 C 
ATOM      4  C   UNL     1       1.226  -0.683  -7.569  0.00  0.00    +0.036 C 
ATOM      5  C   UNL     1      -0.178  -1.281  -7.634  0.00  0.00    +0.005 C 
ATOM      6  C   UNL     1      -0.087  -2.632  -8.350  0.00  0.00    +0.001 C 
ATOM      7  C   UNL     1       0.846  -3.551  -7.563  0.00  0.00    +0.004 C 
ATOM      8  C   UNL     1       0.694  -3.200  -6.081  0.00  0.00    +0.032 C 
ATOM      9  C   UNL     1       2.956  -0.110  -5.785  0.00  0.00    +0.074 C 
ATOM     10  C   UNL     1       3.913  -0.536  -4.918  0.00  0.00    +0.054 C 
ATOM     11  C   UNL     1       3.938  -1.984  -4.511  0.00  0.00    +0.191 C 
ENDROOT
BRANCH   1  15
ATOM     12  C   UNL     1       0.604  -0.608  -1.057  0.00  0.00    +0.162 A 
ATOM     13  C   UNL     1       0.754   0.075  -2.254  0.00  0.00    +0.050 A 
ATOM     14  C   UNL     1       1.370  -0.540  -3.328  0.00  0.00    +0.008 A 
ATOM     15  C   UNL     1       1.837  -1.836  -3.212  0.00  0.00    -0.034 A 
ATOM     16  C   UNL     1       1.690  -2.523  -2.022  0.00  0.00    +0.053 A 
ATOM     17  C   UNL     1       1.079  -1.911  -0.939  0.00  0.00    +0.162 A 
BRANCH  12  19
ATOM     18  C   UNL     1      -0.465   1.333  -0.193  0.00  0.00    +0.277 C 
ATOM     19  O   UNL     1      -0.001  -0.005   0.001  0.00  0.00    -0.491 OA
ENDBRANCH  12  19
BRANCH  17  20
ATOM     20  O   UNL     1       0.940  -2.583   0.235  0.00  0.00    -0.491 OA
ATOM     21  C   UNL     1       1.452  -3.916   0.283  0.00  0.00    +0.277 C 
ENDBRANCH  17  20
ENDBRANCH   1  15
BRANCH  10  22
ATOM     22  N   UNL     1       4.839   0.340  -4.425  0.00  0.00    -0.358 N 
ATOM     23  H   UNL     1       4.816   1.272  -4.692  0.00  0.00    +0.142 HD
ATOM     24  H   UNL     1       5.519   0.030  -3.806  0.00  0.00    +0.142 HD
ENDBRANCH  10  22
BRANCH  11  25
ATOM     25  C   UNL     1       4.658  -2.768  -5.527  0.00  0.00    +0.091 C 
ATOM     26  N   UNL     1       5.213  -3.374  -6.311  0.00  0.00    -0.194 NA
ENDBRANCH  11  25
BRANCH  11  27
ATOM     27  C   UNL     1       4.622  -2.112  -3.213  0.00  0.00    +0.091 C 
ATOM     28  N   UNL     1       5.149  -2.211  -2.212  0.00  0.00    -0.194 NA
ENDBRANCH  11  27
BRANCH   9  29
ATOM     29  C   UNL     1       2.927   1.259  -6.204  0.00  0.00    +0.101 C 
ATOM     30  N   UNL     1       2.904   2.345  -6.536  0.00  0.00    -0.191 NA
ENDBRANCH   9  29
TORSDOF 7
