REMARK  Name = ZINC27329941
REMARK  7 active torsions:
REMARK  status: ('A' for Active; 'I' for Inactive)
REMARK    1  A    between atoms: C_1  and  C_2
REMARK    2  A    between atoms: C_9  and  C_11
REMARK    3  A    between atoms: N_13  and  N_14
REMARK    4  A    between atoms: C_15  and  C_17
REMARK    5  A    between atoms: C_17  and  N_18
REMARK    6  A    between atoms: C_21  and  C_25
REMARK    7  A    between atoms: C_21  and  C_26
REMARK                            x       y       z     vdW  Elec       q    Type
REMARK                         _______ _______ _______ _____ _____    ______ ____
ROOT
ATOM      1  N   UNL     1       2.502   5.650   0.008  0.00  0.00    -0.233 N 
ATOM      2  C   UNL     1       1.828   6.817   0.020  0.00  0.00    +0.247 C 
ATOM      3  O   UNL     1       0.615   6.817   0.032  0.00  0.00    -0.273 OA
ATOM      4  H   UNL     1       3.602   5.649  -0.003  0.00  0.00    +0.173 HD
ENDROOT
BRANCH   1   7
ATOM      5  C   UNL     1       2.474   3.269  -0.004  0.00  0.00    +0.267 C 
ATOM      6  O   UNL     1       3.691   3.269  -0.017  0.00  0.00    -0.268 OA
ATOM      7  N   UNL     1       1.801   4.437   0.008  0.00  0.00    -0.230 N 
ATOM      8  H   UNL     1       0.701   4.437   0.019  0.00  0.00    +0.173 HD
BRANCH   5  16
ATOM      9  C   UNL     1       0.930  -4.139  -0.332  0.00  0.00    +0.008 C 
ATOM     10  C   UNL     1       0.573  -2.659  -0.481  0.00  0.00    -0.009 C 
ATOM     11  C   UNL     1      -0.658  -2.344   0.373  0.00  0.00    +0.009 C 
ATOM     12  C   UNL     1      -1.166  -0.942   0.010  0.00  0.00    +0.043 C 
ATOM     13  C   UNL     1       0.002  -0.004   0.002  0.00  0.00    -0.006 A 
ATOM     14  C   UNL     1       1.326  -0.338  -0.013  0.00  0.00    -0.036 A 
ATOM     15  C   UNL     1       2.234   0.708  -0.016  0.00  0.00    +0.024 A 
ATOM     16  C   UNL     1       1.741   2.000  -0.004  0.00  0.00    +0.076 A 
ATOM     17  S   UNL     1      -0.021   1.718   0.011  0.00  0.00    -0.088 S 
ATOM     18  C   UNL     1       1.756  -1.803  -0.026  0.00  0.00    +0.039 C 
ENDBRANCH   5  16
ENDBRANCH   1   7
BRANCH   2  19
ATOM     19  C   UNL     1       2.582   8.122   0.020  0.00  0.00    +0.215 C 
BRANCH  19  20
ATOM     20  N   UNL     1       1.630   9.236   0.035  0.00  0.00    -0.215 N 
ATOM     21  C   UNL     1       1.149   9.805   1.157  0.00  0.00    +0.251 C 
ATOM     22  O   UNL     1       1.412   9.504   2.302  0.00  0.00    -0.272 OA
ATOM     23  C   UNL     1       0.212  10.901   0.692  0.00  0.00    +0.135 C 
ATOM     24  N   UNL     1       0.279  10.814  -0.777  0.00  0.00    -0.281 N 
ATOM     25  C   UNL     1       1.135   9.816  -1.064  0.00  0.00    +0.310 C 
ATOM     26  O   UNL     1       1.425   9.479  -2.195  0.00  0.00    -0.252 OA
ATOM     27  C   UNL     1      -1.213  10.635   1.182  0.00  0.00    +0.047 C 
ATOM     28  H   UNL     1      -0.315  11.501  -1.397  0.00  0.00    +0.152 HD
BRANCH  23  29
ATOM     29  C   UNL     1       0.694  12.248   1.165  0.00  0.00    -0.015 A 
ATOM     30  C   UNL     1       1.399  12.352   2.349  0.00  0.00    +0.009 A 
ATOM     31  C   UNL     1       1.845  13.587   2.782  0.00  0.00    +0.039 A 
ATOM     32  C   UNL     1       1.577  14.721   2.034  0.00  0.00    +0.123 A 
ATOM     33  C   UNL     1       0.867  14.616   0.851  0.00  0.00    +0.039 A 
ATOM     34  C   UNL     1       0.425  13.380   0.417  0.00  0.00    +0.009 A 
ATOM     35  F   UNL     1       2.010  15.928   2.459  0.00  0.00    -0.205 F 
ENDBRANCH  23  29
ENDBRANCH  19  20
ENDBRANCH   2  19
TORSDOF 5
