REMARK  Name = ZINC20166116
REMARK  5 active torsions:
REMARK  status: ('A' for Active; 'I' for Inactive)
REMARK    1  A    between atoms: C_8  and  N_10
REMARK    2  A    between atoms: C_16  and  C_18
REMARK    3  A    between atoms: C_18  and  C_19
REMARK    4  A    between atoms: N_21  and  C_22
REMARK    5  A    between atoms: C_22  and  C_23
REMARK                            x       y       z     vdW  Elec       q    Type
REMARK                         _______ _______ _______ _____ _____    ______ ____
ROOT
ATOM      1  N   UNL     1       2.449   1.253   0.297  0.00  0.00    +0.391 N 
ATOM      2  C   UNL     1       2.443  -0.044  -0.400  0.00  0.00    -0.058 C 
ATOM      3  C   UNL     1       1.233  -0.851   0.074  0.00  0.00    +0.085 C 
ATOM      4  N   UNL     1       0.023  -0.038  -0.014  0.00  0.00    -0.318 N 
ATOM      5  C   UNL     1       0.049   1.296  -0.107  0.00  0.00    +0.200 C 
ATOM      6  O   UNL     1      -1.004   1.895  -0.150  0.00  0.00    -0.278 OA
ATOM      7  C   UNL     1       1.328   2.082  -0.166  0.00  0.00    +0.028 C 
ATOM      8  H   UNL     1      -0.965  -0.521  -0.006  0.00  0.00    +0.149 HD
ATOM      9  H   UNL     1       2.325   1.072   1.375  0.00  0.00    -0.080 HD
ENDROOT
BRANCH   1  17
ATOM     10  C   UNL     1       8.345   1.428  -0.912  0.00  0.00    +0.000 A 
ATOM     11  C   UNL     1       7.917   1.884  -2.145  0.00  0.00    +0.000 A 
ATOM     12  C   UNL     1       6.569   2.079  -2.377  0.00  0.00    +0.004 A 
ATOM     13  C   UNL     1       5.645   1.820  -1.379  0.00  0.00    -0.046 A 
ATOM     14  C   UNL     1       6.074   1.364  -0.146  0.00  0.00    -0.046 A 
ATOM     15  C   UNL     1       7.425   1.169   0.085  0.00  0.00    +0.004 A 
ATOM     16  C   UNL     1       4.883   1.157   0.765  0.00  0.00    +0.020 C 
ATOM     17  C   UNL     1       3.730   1.946   0.108  0.00  0.00    -0.059 C 
ATOM     18  C   UNL     1       4.135   1.955  -1.381  0.00  0.00    +0.020 C 
ENDBRANCH   1  17
BRANCH   7  19
ATOM     19  C   UNL     1       1.206   3.317   0.729  0.00  0.00    +0.089 C 
BRANCH  19  20
ATOM     20  C   UNL     1       0.993   2.884   2.157  0.00  0.00    +0.212 C 
ATOM     21  O   UNL     1       1.048   1.708   2.449  0.00  0.00    -0.276 OA
ATOM     22  N   UNL     1       0.741   3.804   3.109  0.00  0.00    -0.311 N 
ATOM     23  H   UNL     1       0.691   4.870   2.845  0.00  0.00    +0.149 HD
BRANCH  22  24
ATOM     24  C   UNL     1       0.533   3.383   4.497  0.00  0.00    +0.139 C 
BRANCH  24  25
ATOM     25  C   UNL     1       0.271   4.594   5.355  0.00  0.00    -0.027 A 
ATOM     26  C   UNL     1      -1.024   5.041   5.540  0.00  0.00    +0.009 A 
ATOM     27  C   UNL     1      -1.269   6.151   6.327  0.00  0.00    +0.050 A 
ATOM     28  C   UNL     1      -0.216   6.818   6.932  0.00  0.00    +0.166 A 
ATOM     29  C   UNL     1       1.088   6.367   6.746  0.00  0.00    +0.167 A 
ATOM     30  C   UNL     1       1.326   5.251   5.961  0.00  0.00    +0.054 A 
ATOM     31  O   UNL     1       1.935   7.184   7.438  0.00  0.00    -0.453 OA
ATOM     32  C   UNL     1       1.178   8.377   7.715  0.00  0.00    +0.466 C 
ATOM     33  O   UNL     1      -0.187   7.917   7.741  0.00  0.00    -0.453 OA
ENDBRANCH  24  25
ENDBRANCH  22  24
ENDBRANCH  19  20
ENDBRANCH   7  19
TORSDOF 5
