REMARK  Name = ZINC53093857
REMARK  6 active torsions:
REMARK  status: ('A' for Active; 'I' for Inactive)
REMARK    1  A    between atoms: C_6  and  C_10
REMARK    2  A    between atoms: C_10  and  N_11
REMARK    3  A    between atoms: C_17  and  C_19
REMARK    4  A    between atoms: C_19  and  C_20
REMARK    5  A    between atoms: C_20  and  N_21
REMARK    6  A    between atoms: C_22  and  C_24
REMARK                            x       y       z     vdW  Elec       q    Type
REMARK                         _______ _______ _______ _____ _____    ______ ____
ROOT
ATOM      1  N   UNL     1       3.802  -3.883   1.321  0.00  0.00    -0.294 NA
ATOM      2  C   UNL     1       4.654  -2.982   2.108  0.00  0.00    +0.104 C 
ATOM      3  C   UNL     1       4.646  -3.428   3.574  0.00  0.00    +0.123 C 
ATOM      4  N   UNL     1       5.022  -4.849   3.632  0.00  0.00    -0.299 N 
ATOM      5  C   UNL     1       4.303  -5.795   2.766  0.00  0.00    +0.123 C 
ATOM      6  C   UNL     1       4.325  -5.256   1.332  0.00  0.00    +0.104 C 
ATOM      7  C   UNL     1       6.000  -5.272   4.458  0.00  0.00    +0.217 C 
ATOM      8  O   UNL     1       6.582  -4.477   5.166  0.00  0.00    -0.276 OA
ENDROOT
BRANCH   1   9
ATOM      9  C   UNL     1       3.645  -3.391  -0.054  0.00  0.00    +0.139 C 
BRANCH   9  15
ATOM     10  C   UNL     1      -0.016   1.356   0.009  0.00  0.00    +0.005 A 
ATOM     11  C   UNL     1       1.194   2.068   0.002  0.00  0.00    +0.018 A 
ATOM     12  C   UNL     1       2.372   1.409  -0.013  0.00  0.00    +0.092 A 
ATOM     13  N   UNL     1       2.405   0.045  -0.021  0.00  0.00    -0.308 N 
ATOM     14  C   UNL     1       3.434  -0.856  -0.037  0.00  0.00    +0.115 A 
ATOM     15  C   UNL     1       2.885  -2.090  -0.039  0.00  0.00    +0.048 A 
ATOM     16  N   UNL     1       1.556  -1.965  -0.025  0.00  0.00    -0.342 N 
ATOM     17  C   UNL     1       1.240  -0.678  -0.014  0.00  0.00    +0.115 A 
ATOM     18  C   UNL     1       0.002  -0.004   0.002  0.00  0.00    +0.045 A 
ATOM     19  H   UNL     1       0.922  -2.699  -0.023  0.00  0.00    +0.167 HD
ENDBRANCH   9  15
ENDBRANCH   1   9
BRANCH   7  20
ATOM     20  C   UNL     1       6.370  -6.732   4.501  0.00  0.00    +0.114 C 
BRANCH  20  21
ATOM     21  C   UNL     1       7.500  -6.942   5.512  0.00  0.00    +0.113 C 
BRANCH  21  22
ATOM     22  N   UNL     1       7.859  -8.362   5.554  0.00  0.00    -0.311 N 
ATOM     23  C   UNL     1       8.837  -8.785   6.380  0.00  0.00    +0.245 C 
ATOM     24  O   UNL     1       9.421  -7.988   7.090  0.00  0.00    -0.270 OA
ATOM     25  H   UNL     1       7.394  -8.997   4.988  0.00  0.00    +0.149 HD
BRANCH  23  26
ATOM     26  C   UNL     1       9.198 -10.211   6.422  0.00  0.00    +0.044 A 
ATOM     27  C   UNL     1      10.236 -10.701   7.297  0.00  0.00    +0.020 A 
ATOM     28  C   UNL     1      10.470 -12.028   7.241  0.00  0.00    +0.046 A 
ATOM     29  S   UNL     1       9.302 -12.593   6.024  0.00  0.00    -0.104 S 
ATOM     30  C   UNL     1       8.559 -11.140   5.633  0.00  0.00    +0.058 A 
ENDBRANCH  23  26
ENDBRANCH  21  22
ENDBRANCH  20  21
ENDBRANCH   7  20
TORSDOF 6
