REMARK  Name = ZINC02794119
REMARK  10 active torsions:
REMARK  status: ('A' for Active; 'I' for Inactive)
REMARK    1  A    between atoms: C_1  and  C_2
REMARK    2  A    between atoms: C_2  and  O_3
REMARK    3  A    between atoms: O_3  and  C_4
REMARK    4  A    between atoms: C_9  and  N_10
REMARK    5  A    between atoms: N_10  and  C_11
REMARK    6  A    between atoms: C_11  and  N_13
REMARK    7  A    between atoms: N_13  and  N_14
REMARK    8  A    between atoms: C_15  and  C_17
REMARK    9  A    between atoms: C_23  and  C_32
REMARK   10  A    between atoms: C_26  and  C_28
REMARK                            x       y       z     vdW  Elec       q    Type
REMARK                         _______ _______ _______ _____ _____    ______ ____
ROOT
ATOM      1  N   UNL     1      -6.408   0.483   0.608  0.00  0.00    -0.231 N 
ATOM      2  C   UNL     1      -5.110   0.627   0.941  0.00  0.00    +0.265 C 
ATOM      3  O   UNL     1      -4.718   0.257   2.032  0.00  0.00    -0.268 OA
ATOM      4  H   UNL     1      -6.763   0.818  -0.378  0.00  0.00    +0.173 HD
ENDROOT
BRANCH   2   5
ATOM      5  C   UNL     1      -4.171   1.230  -0.012  0.00  0.00    +0.097 A 
ATOM      6  C   UNL     1      -4.475   1.707  -1.310  0.00  0.00    +0.149 A 
ATOM      7  N   UNL     1      -3.378   2.169  -1.843  0.00  0.00    -0.177 NA
ATOM      8  N   UNL     1      -2.330   2.018  -0.935  0.00  0.00    -0.238 N 
ATOM      9  C   UNL     1      -2.813   1.443   0.188  0.00  0.00    +0.130 A 
ATOM     10  N   UNL     1      -2.069   1.136   1.308  0.00  0.00    -0.326 N 
ATOM     11  C   UNL     1      -0.800   1.884   1.315  0.00  0.00    +0.071 C 
ATOM     12  C   UNL     1      -0.097   1.707  -0.035  0.00  0.00    +0.058 C 
ATOM     13  C   UNL     1      -0.925   2.405  -1.124  0.00  0.00    +0.214 C 
ATOM     14  C   UNL     1      -1.086   3.369   1.550  0.00  0.00    +0.028 C 
ATOM     15  H   UNL     1      -2.306   0.447   2.132  0.00  0.00    +0.148 HD
BRANCH  13  16
ATOM     16  C   UNL     1      -0.446   1.958  -2.506  0.00  0.00    +0.412 C 
ATOM     17  F   UNL     1      -0.597   0.572  -2.627  0.00  0.00    -0.168 F 
ATOM     18  F   UNL     1      -1.205   2.597  -3.492  0.00  0.00    -0.168 F 
ATOM     19  F   UNL     1       0.903   2.295  -2.663  0.00  0.00    -0.168 F 
ENDBRANCH  13  16
ENDBRANCH   2   5
BRANCH   1  20
ATOM     20  N   UNL     1      -7.305  -0.093   1.517  0.00  0.00    -0.245 N 
ATOM     21  H   UNL     1      -6.950  -0.427   2.503  0.00  0.00    +0.172 HD
BRANCH  20  22
ATOM     22  C   UNL     1      -8.603  -0.237   1.183  0.00  0.00    +0.151 C 
ATOM     23  S   UNL     1      -9.699  -0.941   2.294  0.00  0.00    -0.017 S 
BRANCH  22  24
ATOM     24  N   UNL     1      -9.038   0.173  -0.025  0.00  0.00    -0.293 N 
ATOM     25  H   UNL     1      -8.351   0.689  -0.711  0.00  0.00    +0.154 HD
BRANCH  24  31
ATOM     26  C   UNL     1     -10.649  -0.593  -1.662  0.00  0.00    +0.142 A 
ATOM     27  C   UNL     1     -11.963  -0.820  -2.034  0.00  0.00    +0.047 A 
ATOM     28  C   UNL     1     -12.992  -0.518  -1.161  0.00  0.00    +0.004 A 
ATOM     29  C   UNL     1     -12.712   0.012   0.085  0.00  0.00    +0.002 A 
ATOM     30  C   UNL     1     -11.403   0.237   0.466  0.00  0.00    +0.027 A 
ATOM     31  C   UNL     1     -10.366  -0.059  -0.407  0.00  0.00    +0.075 A 
BRANCH  26  32
ATOM     32  O   UNL     1      -9.636  -0.891  -2.519  0.00  0.00    -0.490 OA
BRANCH  32  34
ATOM     33  C   UNL     1      -8.738  -1.706  -4.610  0.00  0.00    +0.048 C 
ATOM     34  C   UNL     1     -10.001  -1.436  -3.789  0.00  0.00    +0.226 C 
ENDBRANCH  32  34
ENDBRANCH  26  32
ENDBRANCH  24  31
ENDBRANCH  22  24
ENDBRANCH  20  22
ENDBRANCH   1  20
TORSDOF 8
