REMARK  Name = ZINC27987509
REMARK  6 active torsions:
REMARK  status: ('A' for Active; 'I' for Inactive)
REMARK    1  A    between atoms: C_1  and  C_2
REMARK    2  A    between atoms: C_4  and  C_14
REMARK    3  A    between atoms: N_16  and  C_17
REMARK    4  A    between atoms: C_20  and  N_23
REMARK    5  A    between atoms: N_26  and  C_27
REMARK    6  A    between atoms: C_27  and  C_28
REMARK                            x       y       z     vdW  Elec       q    Type
REMARK                         _______ _______ _______ _____ _____    ______ ____
ROOT
ATOM      1  C   UNL     1       3.357   2.011   1.621  0.00  0.00    +0.034 A 
ATOM      2  C   UNL     1       3.790   2.799   2.680  0.00  0.00    +0.025 A 
ATOM      3  C   UNL     1       5.082   3.285   2.694  0.00  0.00    +0.025 A 
ATOM      4  C   UNL     1       5.945   2.996   1.645  0.00  0.00    +0.035 A 
ATOM      5  C   UNL     1       5.510   2.213   0.584  0.00  0.00    +0.025 A 
ATOM      6  C   UNL     1       4.219   1.722   0.572  0.00  0.00    +0.025 A 
ENDROOT
BRANCH   4   7
ATOM      7  N   UNL     1       7.254   3.494   1.657  0.00  0.00    -0.269 N 
ATOM      8  C   UNL     1       7.910   3.637   2.826  0.00  0.00    +0.304 C 
ATOM      9  O   UNL     1       7.401   3.250   3.860  0.00  0.00    -0.252 OA
ATOM     10  N   UNL     1       9.131   4.208   2.848  0.00  0.00    -0.292 N 
ATOM     11  H   UNL     1       7.747   3.768   0.713  0.00  0.00    +0.156 HD
ATOM     12  H   UNL     1       9.592   4.557   1.913  0.00  0.00    +0.151 HD
BRANCH  10  13
ATOM     13  C   UNL     1       9.844   4.363   4.119  0.00  0.00    +0.180 C 
BRANCH  13  14
ATOM     14  C   UNL     1      11.175   5.025   3.870  0.00  0.00    +0.122 A 
ATOM     15  C   UNL     1      11.409   6.349   3.879  0.00  0.00    +0.046 A 
ATOM     16  C   UNL     1      12.784   6.524   3.600  0.00  0.00    +0.041 A 
ATOM     17  C   UNL     1      13.308   5.296   3.437  0.00  0.00    +0.195 A 
ATOM     18  O   UNL     1      12.330   4.392   3.608  0.00  0.00    -0.466 OA
ENDBRANCH  13  14
ENDBRANCH  10  13
ENDBRANCH   4   7
BRANCH   1  21
ATOM     19  C   UNL     1       1.457   1.143   2.763  0.00  0.00    +0.262 C 
ATOM     20  O   UNL     1       2.024   1.325   3.820  0.00  0.00    -0.271 OA
ATOM     21  N   UNL     1       2.048   1.512   1.610  0.00  0.00    -0.282 N 
ATOM     22  H   UNL     1       1.502   1.422   0.659  0.00  0.00    +0.155 HD
BRANCH  19  25
ATOM     23  C   UNL     1       0.732  -1.009   4.631  0.00  0.00    +0.056 C 
ATOM     24  C   UNL     1       0.195  -0.955   3.200  0.00  0.00    +0.220 C 
ATOM     25  C   UNL     1       0.091   0.506   2.740  0.00  0.00    +0.299 C 
ATOM     26  O   UNL     1      -0.426   0.520   1.405  0.00  0.00    -0.472 OA
ATOM     27  C   UNL     1      -1.505  -0.272   1.159  0.00  0.00    +0.163 A 
ATOM     28  C   UNL     1      -2.269  -0.047   0.024  0.00  0.00    +0.049 A 
ATOM     29  C   UNL     1      -3.366  -0.845  -0.242  0.00  0.00    +0.004 A 
ATOM     30  C   UNL     1      -3.705  -1.869   0.623  0.00  0.00    +0.004 A 
ATOM     31  C   UNL     1      -2.948  -2.097   1.757  0.00  0.00    +0.049 A 
ATOM     32  C   UNL     1      -1.846  -1.300   2.029  0.00  0.00    +0.163 A 
ATOM     33  O   UNL     1      -1.114  -1.534   3.152  0.00  0.00    -0.481 OA
ENDBRANCH  19  25
ENDBRANCH   1  21
TORSDOF 5
