REMARK  Name = ZINC48833539
REMARK  6 active torsions:
REMARK  status: ('A' for Active; 'I' for Inactive)
REMARK    1  A    between atoms: C_4  and  O_9
REMARK    2  A    between atoms: C_5  and  C_7
REMARK    3  A    between atoms: O_9  and  C_10
REMARK    4  A    between atoms: C_10  and  C_11
REMARK    5  A    between atoms: C_11  and  S_12
REMARK    6  A    between atoms: S_12  and  C_13
REMARK                            x       y       z     vdW  Elec       q    Type
REMARK                         _______ _______ _______ _____ _____    ______ ____
ROOT
ATOM      1  C   UNL     1       6.027  -0.700  -0.064  0.00  0.00    +0.118 C 
ENDROOT
BRANCH   1   2
ATOM      2  C   UNL     1       4.791   0.202  -0.046  0.00  0.00    +0.240 C 
BRANCH   2   3
ATOM      3  O   UNL     1       3.612  -0.606  -0.038  0.00  0.00    -0.490 OA
BRANCH   3   7
ATOM      4  C   UNL     1      -0.017   1.374   0.010  0.00  0.00    +0.001 A 
ATOM      5  C   UNL     1       1.170   2.089   0.002  0.00  0.00    +0.004 A 
ATOM      6  C   UNL     1       2.383   1.429  -0.013  0.00  0.00    +0.047 A 
ATOM      7  C   UNL     1       2.421   0.043  -0.022  0.00  0.00    +0.138 A 
ATOM      8  C   UNL     1       1.222  -0.684  -0.014  0.00  0.00    +0.093 A 
ATOM      9  C   UNL     1       0.002  -0.004   0.002  0.00  0.00    +0.022 A 
BRANCH   8  10
ATOM     10  C   UNL     1       1.249  -2.116  -0.023  0.00  0.00    +0.103 C 
ATOM     11  N   UNL     1       1.270  -3.252  -0.030  0.00  0.00    -0.191 NA
ENDBRANCH   8  10
ENDBRANCH   3   7
ENDBRANCH   2   3
ENDBRANCH   1   2
BRANCH   1  12
ATOM     12  S   UNL     1       7.523   0.325  -0.074  0.00  0.00    -0.081 S 
BRANCH  12  13
ATOM     13  C   UNL     1       8.841  -0.845  -0.094  0.00  0.00    +0.210 A 
ATOM     14  N   UNL     1      10.145  -0.546  -0.106  0.00  0.00    -0.188 NA
ATOM     15  H   UNL     1      10.226  -3.640  -0.124  0.00  0.00    +0.192 HD
ATOM     16  C   UNL     1      10.853  -1.656  -0.120  0.00  0.00    +0.209 A 
ATOM     17  N   UNL     1       9.995  -2.697  -0.116  0.00  0.00    -0.246 N 
ATOM     18  N   UNL     1       8.703  -2.149  -0.095  0.00  0.00    -0.144 NA
ATOM     19  N   UNL     1      12.233  -1.740  -0.135  0.00  0.00    -0.328 N 
ATOM     20  H   UNL     1      12.768  -0.931  -0.137  0.00  0.00    +0.145 HD
ATOM     21  H   UNL     1      12.666  -2.608  -0.145  0.00  0.00    +0.145 HD
ENDBRANCH  12  13
ENDBRANCH   1  12
TORSDOF 6
