REMARK  Name = ZINC44784964
REMARK  5 active torsions:
REMARK  status: ('A' for Active; 'I' for Inactive)
REMARK    1  A    between atoms: C_4  and  C_6
REMARK    2  A    between atoms: C_4  and  C_10
REMARK    3  A    between atoms: N_7  and  O_8
REMARK    4  A    between atoms: N_12  and  C_13
REMARK    5  A    between atoms: C_13  and  C_14
REMARK                            x       y       z     vdW  Elec       q    Type
REMARK                         _______ _______ _______ _____ _____    ______ ____
ROOT
ATOM      1  C   UNL     1      -0.181   1.514   0.185  0.00  0.00    +0.001 C 
ATOM      2  C   UNL     1       1.294   1.973   0.073  0.00  0.00    +0.001 C 
ATOM      3  C   UNL     1       2.049   0.905   0.904  0.00  0.00    +0.024 C 
ATOM      4  C   UNL     1       1.314  -0.413   0.584  0.00  0.00    +0.105 C 
ATOM      5  C   UNL     1      -0.103  -0.026   0.126  0.00  0.00    +0.024 C 
ENDROOT
BRANCH   4   6
ATOM      6  C   UNL     1       1.241  -1.276   1.817  0.00  0.00    +0.147 C 
ATOM      7  N   UNL     1       0.667  -0.830   2.885  0.00  0.00    -0.076 NA
ATOM      8  N   UNL     1       1.786  -2.541   1.805  0.00  0.00    -0.343 N 
ATOM      9  H   UNL     1       2.157  -2.901   0.984  0.00  0.00    +0.144 HD
ATOM     10  H   UNL     1       1.799  -3.071   2.617  0.00  0.00    +0.144 HD
BRANCH   7  11
ATOM     11  O   UNL     1       0.011   0.424   2.864  0.00  0.00    -0.408 OA
ATOM     12  H   UNL     1      -0.388   0.673   3.709  0.00  0.00    +0.328 HD
ENDBRANCH   7  11
ENDBRANCH   4   6
BRANCH   4  13
ATOM     13  C   UNL     1       2.030  -1.147  -0.520  0.00  0.00    +0.226 C 
ATOM     14  O   UNL     1       3.095  -0.737  -0.930  0.00  0.00    -0.275 OA
ATOM     15  N   UNL     1       1.487  -2.260  -1.052  0.00  0.00    -0.314 N 
ATOM     16  H   UNL     1       0.604  -2.550  -0.773  0.00  0.00    +0.149 HD
BRANCH  15  17
ATOM     17  C   UNL     1       2.230  -3.032  -2.051  0.00  0.00    +0.107 C 
BRANCH  17  18
ATOM     18  C   UNL     1       1.394  -4.237  -2.489  0.00  0.00    +0.006 C 
ATOM     19  C   UNL     1       1.591  -5.478  -1.601  0.00  0.00    +0.005 C 
ATOM     20  C   UNL     1       1.553  -6.311  -2.893  0.00  0.00    +0.001 C 
ATOM     21  C   UNL     1       2.034  -5.049  -3.628  0.00  0.00    +0.005 C 
ENDBRANCH  17  18
ENDBRANCH  15  17
ENDBRANCH   4  13
TORSDOF 5
