REMARK  Name = ZINC63415404
REMARK  9 active torsions:
REMARK  status: ('A' for Active; 'I' for Inactive)
REMARK    1  A    between atoms: C_1  and  C_2
REMARK    2  A    between atoms: C_2  and  C_3
REMARK    3  A    between atoms: C_3  and  C_4
REMARK    4  A    between atoms: C_6  and  C_9
REMARK    5  A    between atoms: C_9  and  S_10
REMARK    6  A    between atoms: S_10  and  C_11
REMARK    7  A    between atoms: C_14  and  C_17
REMARK    8  A    between atoms: N_15  and  N_16
REMARK    9  A    between atoms: C_20  and  C_23
REMARK                            x       y       z     vdW  Elec       q    Type
REMARK                         _______ _______ _______ _____ _____    ______ ____
ROOT
ATOM      1  C   UNL     1      -2.871  -7.148   3.091  0.00  0.00    +0.209 A 
ATOM      2  N   UNL     1      -1.734  -7.659   3.509  0.00  0.00    -0.121 NA
ATOM      3  N   UNL     1      -1.958  -8.653   4.291  0.00  0.00    -0.127 NA
ATOM      4  C   UNL     1      -3.251  -8.839   4.421  0.00  0.00    +0.182 A 
ATOM      5  N   UNL     1      -3.875  -7.877   3.661  0.00  0.00    -0.224 N 
ENDROOT
BRANCH   4   6
ATOM      6  C   UNL     1      -3.912  -9.881   5.236  0.00  0.00    +0.021 A 
ATOM      7  C   UNL     1      -5.263 -10.170   5.041  0.00  0.00    +0.012 A 
ATOM      8  C   UNL     1      -5.873 -11.144   5.804  0.00  0.00    +0.004 A 
ATOM      9  C   UNL     1      -5.149 -11.833   6.761  0.00  0.00    -0.050 A 
ATOM     10  C   UNL     1      -3.809 -11.551   6.959  0.00  0.00    +0.004 A 
ATOM     11  C   UNL     1      -3.185 -10.583   6.199  0.00  0.00    +0.012 A 
ATOM     12  C   UNL     1      -5.822 -12.896   7.591  0.00  0.00    +0.044 C 
ENDBRANCH   4   6
BRANCH   5  13
ATOM     13  N   UNL     1      -5.220  -7.691   3.507  0.00  0.00    -0.295 N 
ATOM     14  H   UNL     1      -5.572  -8.226   2.727  0.00  0.00    +0.163 HD
ATOM     15  H   UNL     1      -5.716  -7.919   4.355  0.00  0.00    +0.163 HD
ENDBRANCH   5  13
BRANCH   1  16
ATOM     16  S   UNL     1      -3.063  -5.775   2.004  0.00  0.00    -0.077 S 
BRANCH  16  17
ATOM     17  C   UNL     1      -1.361  -5.277   1.621  0.00  0.00    +0.157 C 
BRANCH  17  20
ATOM     18  C   UNL     1      -1.413  -2.041   0.005  0.00  0.00    +0.227 A 
ATOM     19  N   UNL     1      -1.398  -2.810   1.057  0.00  0.00    -0.195 NA
ATOM     20  C   UNL     1      -1.382  -4.096   0.686  0.00  0.00    +0.182 A 
ATOM     21  N   UNL     1      -1.387  -4.159  -0.615  0.00  0.00    -0.060 NA
ATOM     22  O   UNL     1      -1.413  -2.819  -1.085  0.00  0.00    -0.338 OA
BRANCH  18  23
ATOM     23  C   UNL     1      -1.433  -0.534   0.013  0.00  0.00    +0.098 C 
BRANCH  23  25
ATOM     24  C   UNL     1      -0.019   1.526   0.010  0.00  0.00    +0.004 C 
ATOM     25  C   UNL     1       0.002  -0.004   0.002  0.00  0.00    +0.006 C 
ENDBRANCH  23  25
ENDBRANCH  18  23
ENDBRANCH  17  20
ENDBRANCH  16  17
ENDBRANCH   1  16
TORSDOF 7
