REMARK  Name = ZINC12446197
REMARK  6 active torsions:
REMARK  status: ('A' for Active; 'I' for Inactive)
REMARK    1  A    between atoms: C_1  and  C_2
REMARK    2  A    between atoms: C_4  and  C_25
REMARK    3  A    between atoms: N_11  and  C_12
REMARK    4  A    between atoms: C_20  and  C_21
REMARK    5  A    between atoms: C_21  and  O_23
REMARK    6  A    between atoms: O_23  and  C_24
REMARK                            x       y       z     vdW  Elec       q    Type
REMARK                         _______ _______ _______ _____ _____    ______ ____
ROOT
ATOM      1  C   UNL     1       0.106  -6.729   4.919  0.00  0.00    +0.066 C 
ATOM      2  C   UNL     1       0.092  -6.020   3.590  0.00  0.00    +0.044 A 
ATOM      3  C   UNL     1       0.093  -6.744   2.408  0.00  0.00    +0.046 A 
ATOM      4  C   UNL     1       0.080  -6.053   1.207  0.00  0.00    +0.044 A 
ATOM      5  N   UNL     1       0.066  -4.730   1.224  0.00  0.00    -0.217 NA
ATOM      6  C   UNL     1       0.065  -4.068   2.371  0.00  0.00    +0.231 A 
ATOM      7  N   UNL     1       0.072  -4.698   3.536  0.00  0.00    -0.217 NA
ATOM      8  N   UNL     1       0.051  -2.680   2.351  0.00  0.00    -0.295 N 
ATOM      9  C   UNL     1      -0.058  -1.978   3.527  0.00  0.00    +0.202 C 
ATOM     10  N   UNL     1      -0.180  -0.614   3.501  0.00  0.00    -0.369 N 
ATOM     11  N   UNL     1      -0.046  -2.617   4.678  0.00  0.00    -0.213 NA
ATOM     12  C   UNL     1       0.081  -6.799  -0.103  0.00  0.00    +0.066 C 
ATOM     13  H   UNL     1       0.118  -2.206   1.508  0.00  0.00    +0.172 HD
ATOM     14  H   UNL     1      -0.263  -0.151   2.653  0.00  0.00    +0.159 HD
ATOM     15  H   UNL     1      -0.183  -0.112   4.330  0.00  0.00    +0.159 HD
ENDROOT
BRANCH  11  16
ATOM     16  C   UNL     1      -0.154  -1.922   5.841  0.00  0.00    +0.098 A 
ATOM     17  C   UNL     1       1.031  -1.421   6.530  0.00  0.00    +0.034 A 
ATOM     18  C   UNL     1       2.390  -1.550   6.156  0.00  0.00    +0.014 A 
ATOM     19  C   UNL     1       3.360  -0.996   6.960  0.00  0.00    +0.020 A 
ATOM     20  C   UNL     1       3.007  -0.321   8.118  0.00  0.00    +0.112 A 
ATOM     21  N   UNL     1       1.740  -0.203   8.463  0.00  0.00    -0.248 NA
ATOM     22  C   UNL     1       0.777  -0.716   7.727  0.00  0.00    +0.111 A 
ATOM     23  S   UNL     1      -0.992  -0.749   7.882  0.00  0.00    -0.060 S 
ATOM     24  C   UNL     1      -1.395  -1.663   6.407  0.00  0.00    +0.124 A 
BRANCH  24  25
ATOM     25  C   UNL     1      -2.669  -2.035   5.929  0.00  0.00    +0.348 C 
ATOM     26  O   UNL     1      -2.770  -2.666   4.893  0.00  0.00    -0.244 OA
BRANCH  25  27
ATOM     27  O   UNL     1      -3.776  -1.690   6.621  0.00  0.00    -0.464 OA
ATOM     28  C   UNL     1      -5.033  -2.100   6.079  0.00  0.00    +0.280 C 
ENDBRANCH  25  27
ENDBRANCH  24  25
ENDBRANCH  11  16
TORSDOF 3
