REMARK  Name = ZINC13567592
REMARK  6 active torsions:
REMARK  status: ('A' for Active; 'I' for Inactive)
REMARK    1  A    between atoms: C_1  and  C_2
REMARK    2  A    between atoms: C_6  and  N_8
REMARK    3  A    between atoms: N_23  and  C_26
REMARK    4  A    between atoms: C_26  and  C_27
REMARK    5  A    between atoms: C_29  and  C_32
REMARK    6  A    between atoms: C_30  and  N_31
REMARK                            x       y       z     vdW  Elec       q    Type
REMARK                         _______ _______ _______ _____ _____    ______ ____
ROOT
ATOM      1  N   UNL     1      -2.734  -1.488  -0.081  0.00  0.00    -0.260 N 
ATOM      2  C   UNL     1      -3.553  -1.006  -1.068  0.00  0.00    +0.025 C 
ATOM      3  C   UNL     1      -3.717   0.323  -1.238  0.00  0.00    +0.037 C 
ATOM      4  C   UNL     1      -4.551   0.827  -2.252  0.00  0.00    +0.162 C 
ATOM      5  O   UNL     1      -4.688   2.028  -2.369  0.00  0.00    -0.292 OA
ATOM      6  C   UNL     1      -5.276  -0.095  -3.195  0.00  0.00    +0.080 C 
ATOM      7  C   UNL     1      -4.470  -1.389  -3.345  0.00  0.00    +0.014 C 
ATOM      8  C   UNL     1      -4.266  -1.997  -1.955  0.00  0.00    +0.052 C 
ATOM      9  C   UNL     1      -3.009   1.308  -0.345  0.00  0.00    +0.141 C 
ATOM     10  C   UNL     1      -1.896   1.980  -1.090  0.00  0.00    -0.001 A 
ATOM     11  C   UNL     1      -0.746   1.476  -1.658  0.00  0.00    +0.007 A 
ATOM     12  C   UNL     1       0.101   2.387  -2.280  0.00  0.00    +0.000 A 
ATOM     13  C   UNL     1      -0.197   3.734  -2.321  0.00  0.00    +0.002 A 
ATOM     14  C   UNL     1      -1.350   4.248  -1.747  0.00  0.00    +0.024 A 
ATOM     15  C   UNL     1      -2.208   3.344  -1.119  0.00  0.00    +0.041 A 
ATOM     16  N   UNL     1      -3.410   3.576  -0.475  0.00  0.00    -0.266 N 
ATOM     17  C   UNL     1      -3.952   2.440   0.010  0.00  0.00    +0.240 C 
ATOM     18  O   UNL     1      -4.998   2.343   0.617  0.00  0.00    -0.274 OA
ATOM     19  C   UNL     1      -2.503   0.654   0.906  0.00  0.00    +0.089 C 
ATOM     20  C   UNL     1      -2.384  -0.697   0.990  0.00  0.00    +0.108 C 
ENDROOT
BRANCH   1  26
ATOM     21  C   UNL     1       0.734  -4.634  -1.581  0.00  0.00    +0.044 C 
ATOM     22  C   UNL     1      -0.571  -4.352  -0.882  0.00  0.00    -0.049 A 
ATOM     23  C   UNL     1      -1.292  -5.390  -0.320  0.00  0.00    +0.003 A 
ATOM     24  C   UNL     1      -2.490  -5.135   0.322  0.00  0.00    +0.002 A 
ATOM     25  C   UNL     1      -2.971  -3.843   0.403  0.00  0.00    +0.024 A 
ATOM     26  C   UNL     1      -2.250  -2.799  -0.161  0.00  0.00    +0.040 A 
ATOM     27  C   UNL     1      -1.049  -3.058  -0.809  0.00  0.00    +0.027 A 
ENDBRANCH   1  26
BRANCH  20  28
ATOM     28  N   UNL     1      -1.912  -1.274   2.144  0.00  0.00    -0.345 N 
ATOM     29  H   UNL     1      -1.911  -2.239   2.239  0.00  0.00    +0.144 HD
ATOM     30  H   UNL     1      -1.579  -0.716   2.864  0.00  0.00    +0.144 HD
ENDBRANCH  20  28
BRANCH  19  31
ATOM     31  C   UNL     1      -2.142   1.466   2.030  0.00  0.00    +0.100 C 
ATOM     32  N   UNL     1      -1.855   2.109   2.921  0.00  0.00    -0.191 NA
ENDBRANCH  19  31
BRANCH  16  33
ATOM     33  C   UNL     1      -4.022   4.900  -0.336  0.00  0.00    +0.140 C 
BRANCH  33  34
ATOM     34  C   UNL     1      -4.925   5.162  -1.513  0.00  0.00    -0.015 C 
ATOM     35  C   UNL     1      -6.180   5.482  -1.317  0.00  0.00    +0.005 C 
ENDBRANCH  33  34
ENDBRANCH  16  33
TORSDOF 5
