REMARK  Name = ZINC16768023
REMARK  8 active torsions:
REMARK  status: ('A' for Active; 'I' for Inactive)
REMARK    1  A    between atoms: C_1  and  C_2
REMARK    2  A    between atoms: C_10  and  C_11
REMARK    3  A    between atoms: C_11  and  O_13
REMARK    4  A    between atoms: O_13  and  C_14
REMARK    5  A    between atoms: C_14  and  C_16
REMARK    6  A    between atoms: C_14  and  C_17
REMARK    7  A    between atoms: N_19  and  C_20
REMARK    8  A    between atoms: C_21  and  C_25
REMARK                            x       y       z     vdW  Elec       q    Type
REMARK                         _______ _______ _______ _____ _____    ______ ____
ROOT
ATOM      1  C   UNL     1      -1.149   7.295   0.053  0.00  0.00    +0.259 C 
ATOM      2  C   UNL     1      -1.421   7.742  -1.385  0.00  0.00    +0.062 C 
ENDROOT
BRANCH   1   3
ATOM      3  C   UNL     1      -0.338   8.349   0.762  0.00  0.00    +0.258 C 
ATOM      4  O   UNL     1       0.790   8.100   1.131  0.00  0.00    -0.271 OA
ATOM      5  N   UNL     1      -0.866   9.569   0.985  0.00  0.00    -0.276 N 
ATOM      6  H   UNL     1      -1.768   9.768   0.690  0.00  0.00    +0.155 HD
BRANCH   5   7
ATOM      7  C   UNL     1      -0.120  10.539   1.637  0.00  0.00    +0.084 A 
ATOM      8  C   UNL     1      -0.484  11.842   1.952  0.00  0.00    +0.065 A 
ATOM      9  C   UNL     1       0.497  12.642   2.644  0.00  0.00    +0.022 A 
ATOM     10  C   UNL     1       1.680  12.062   2.917  0.00  0.00    +0.048 A 
ATOM     11  S   UNL     1       1.495  10.421   2.252  0.00  0.00    -0.081 S 
BRANCH   8  12
ATOM     12  C   UNL     1      -1.803  12.378   1.599  0.00  0.00    +0.244 C 
ATOM     13  O   UNL     1      -2.610  11.676   1.018  0.00  0.00    -0.270 OA
ATOM     14  N   UNL     1      -2.122  13.648   1.920  0.00  0.00    -0.325 N 
ATOM     15  H   UNL     1      -1.479  14.207   2.384  0.00  0.00    +0.145 HD
ATOM     16  H   UNL     1      -2.995  14.002   1.687  0.00  0.00    +0.145 HD
ENDBRANCH   8  12
ENDBRANCH   5   7
ENDBRANCH   1   3
BRANCH   1  17
ATOM     17  O   UNL     1      -0.411   6.045   0.039  0.00  0.00    -0.447 OA
BRANCH  17  18
ATOM     18  C   UNL     1      -1.135   4.907   0.039  0.00  0.00    +0.376 C 
ATOM     19  O   UNL     1      -2.349   4.959   0.051  0.00  0.00    -0.241 OA
BRANCH  18  29
ATOM     20  C   UNL     1      -2.565   2.145   0.023  0.00  0.00    +0.048 C 
ATOM     21  C   UNL     1      -1.079   2.398   0.019  0.00  0.00    +0.010 A 
ATOM     22  C   UNL     1      -0.017   1.393   0.010  0.00  0.00    +0.025 A 
ATOM     23  C   UNL     1       0.002  -0.004   0.002  0.00  0.00    +0.012 A 
ATOM     24  C   UNL     1       1.197  -0.665  -0.013  0.00  0.00    +0.002 A 
ATOM     25  C   UNL     1       2.393   0.041  -0.021  0.00  0.00    +0.024 A 
ATOM     26  C   UNL     1       2.396   1.420  -0.013  0.00  0.00    +0.084 A 
ATOM     27  C   UNL     1       1.191   2.115   0.002  0.00  0.00    +0.154 A 
ATOM     28  O   UNL     1       0.882   3.427   0.012  0.00  0.00    -0.446 OA
ATOM     29  C   UNL     1      -0.456   3.605   0.026  0.00  0.00    +0.216 A 
ATOM     30 CL   UNL     1       3.900   2.287  -0.022  0.00  0.00    -0.080 Cl
ENDBRANCH  18  29
ENDBRANCH  17  18
ENDBRANCH   1  17
TORSDOF 6
