REMARK  Name = ZINC36861041
REMARK  3 active torsions:
REMARK  status: ('A' for Active; 'I' for Inactive)
REMARK    1  A    between atoms: C_2  and  N_18
REMARK    2  A    between atoms: N_4  and  C_15
REMARK    3  A    between atoms: C_5  and  C_6
REMARK                            x       y       z     vdW  Elec       q    Type
REMARK                         _______ _______ _______ _____ _____    ______ ____
ROOT
ATOM      1  C   UNL     1       0.025   1.286   0.569  0.00  0.00    +0.055 A 
ATOM      2  C   UNL     1       1.341   1.753   0.447  0.00  0.00    +0.043 A 
ATOM      3  C   UNL     1       2.079   0.767  -0.127  0.00  0.00    +0.109 A 
ATOM      4  N   UNL     1       1.272  -0.301  -0.367  0.00  0.00    -0.338 N 
ATOM      5  C   UNL     1      -0.001   0.005   0.058  0.00  0.00    +0.107 A 
ENDROOT
BRANCH   5   6
ATOM      6  C   UNL     1      -1.173  -0.873  -0.019  0.00  0.00    +0.264 C 
ATOM      7  O   UNL     1      -1.031  -2.081   0.005  0.00  0.00    -0.268 OA
ATOM      8  N   UNL     1      -2.408  -0.342  -0.116  0.00  0.00    -0.286 N 
ATOM      9  C   UNL     1      -3.614  -1.181  -0.012  0.00  0.00    +0.127 C 
ATOM     10  C   UNL     1      -4.422  -0.708   1.197  0.00  0.00    +0.123 C 
ATOM     11  N   UNL     1      -4.546   0.744   1.200  0.00  0.00    -0.313 N 
ATOM     12  C   UNL     1      -3.722   1.575   0.560  0.00  0.00    +0.230 C 
ATOM     13  O   UNL     1      -3.880   2.769   0.702  0.00  0.00    -0.274 OA
ATOM     14  C   UNL     1      -2.606   1.101  -0.324  0.00  0.00    +0.203 C 
ATOM     15  H   UNL     1      -5.279   1.133   1.702  0.00  0.00    +0.149 HD
ENDBRANCH   5   6
BRANCH   4  16
ATOM     16  C   UNL     1       1.687  -1.566  -0.978  0.00  0.00    +0.088 C 
ATOM     17  C   UNL     1       3.169  -1.731  -1.320  0.00  0.00    +0.027 C 
ATOM     18  C   UNL     1       2.144  -1.529  -2.438  0.00  0.00    +0.027 C 
ENDBRANCH   4  16
BRANCH   2  19
ATOM     19  N   UNL     1       1.813   3.017   0.846  0.00  0.00    -0.357 N 
ATOM     20  H   UNL     1       1.205   3.657   1.248  0.00  0.00    +0.142 HD
ATOM     21  H   UNL     1       2.746   3.249   0.718  0.00  0.00    +0.142 HD
ENDBRANCH   2  19
TORSDOF 3
