REMARK  Name = ZINC47701351
REMARK  11 active torsions:
REMARK  status: ('A' for Active; 'I' for Inactive)
REMARK    1  A    between atoms: C_1  and  C_2
REMARK    2  A    between atoms: C_2  and  N_3
REMARK    3  A    between atoms: N_3  and  C_4
REMARK    4  A    between atoms: C_4  and  C_5
REMARK    5  A    between atoms: N_8  and  C_9
REMARK    6  A    between atoms: C_12  and  C_15
REMARK    7  A    between atoms: C_15  and  C_17
REMARK    8  A    between atoms: C_15  and  N_18
REMARK    9  A    between atoms: N_21  and  C_22
REMARK   10  A    between atoms: C_24  and  C_29
REMARK   11  A    between atoms: C_26  and  C_28
REMARK                            x       y       z     vdW  Elec       q    Type
REMARK                         _______ _______ _______ _____ _____    ______ ____
ROOT
ATOM      1  C   UNL     1      -4.074  -1.684   7.389  0.00  0.00    +0.102 C 
ATOM      2  C   UNL     1      -4.514  -0.411   8.117  0.00  0.00    +0.033 C 
ENDROOT
BRANCH   1   6
ATOM      3  C   UNL     1      -2.341  -0.646   3.623  0.00  0.00    +0.035 A 
ATOM      4  C   UNL     1      -3.654  -1.092   3.685  0.00  0.00    +0.023 A 
ATOM      5  C   UNL     1      -4.211  -1.427   4.904  0.00  0.00    +0.007 A 
ATOM      6  C   UNL     1      -3.463  -1.318   6.061  0.00  0.00    -0.027 A 
ATOM      7  C   UNL     1      -2.155  -0.873   6.003  0.00  0.00    +0.007 A 
ATOM      8  C   UNL     1      -1.590  -0.542   4.787  0.00  0.00    +0.023 A 
BRANCH   3  12
ATOM      9  N   UNL     1       0.051  -0.327   0.934  0.00  0.00    -0.286 N 
ATOM     10  C   UNL     1      -0.473  -0.568   2.152  0.00  0.00    +0.306 C 
ATOM     11  O   UNL     1       0.228  -1.022   3.036  0.00  0.00    -0.252 OA
ATOM     12  N   UNL     1      -1.773  -0.306   2.390  0.00  0.00    -0.269 N 
ATOM     13  H   UNL     1      -2.315   0.118   1.707  0.00  0.00    +0.156 HD
BRANCH   9  15
ATOM     14  C   UNL     1      -1.432  -0.927  -0.916  0.00  0.00    +0.024 C 
ATOM     15  C   UNL     1      -0.793   0.220  -0.132  0.00  0.00    +0.106 C 
ENDBRANCH   9  15
BRANCH   9  16
ATOM     16  C   UNL     1       1.465  -0.612   0.675  0.00  0.00    +0.106 C 
ATOM     17  C   UNL     1       2.302   0.627   0.998  0.00  0.00    +0.024 C 
ENDBRANCH   9  16
ENDBRANCH   3  12
ENDBRANCH   1   6
BRANCH   1  18
ATOM     18  N   UNL     1      -3.085  -2.394   8.203  0.00  0.00    -0.293 N 
ATOM     19  C   UNL     1      -3.490  -3.241   9.170  0.00  0.00    +0.304 C 
ATOM     20  O   UNL     1      -4.677  -3.416   9.366  0.00  0.00    -0.252 OA
ATOM     21  N   UNL     1      -2.580  -3.895   9.918  0.00  0.00    -0.269 N 
ATOM     22  H   UNL     1      -2.138  -2.255   8.046  0.00  0.00    +0.151 HD
ATOM     23  H   UNL     1      -1.635  -3.701   9.813  0.00  0.00    +0.156 HD
BRANCH  21  24
ATOM     24  C   UNL     1      -2.997  -4.854  10.848  0.00  0.00    +0.035 A 
ATOM     25  C   UNL     1      -2.297  -5.023  12.035  0.00  0.00    +0.026 A 
ATOM     26  C   UNL     1      -2.712  -5.970  12.951  0.00  0.00    -0.048 A 
ATOM     27  C   UNL     1      -3.823  -6.750  12.686  0.00  0.00    +0.006 A 
ATOM     28  C   UNL     1      -4.521  -6.585  11.505  0.00  0.00    -0.048 A 
ATOM     29  C   UNL     1      -4.115  -5.636  10.587  0.00  0.00    +0.026 A 
ATOM     30  C   UNL     1      -5.731  -7.438  11.220  0.00  0.00    +0.044 C 
ATOM     31  C   UNL     1      -1.953  -6.154  14.240  0.00  0.00    +0.044 C 
ENDBRANCH  21  24
ENDBRANCH   1  18
TORSDOF 6
