REMARK  Name = ZINC50673102
REMARK  6 active torsions:
REMARK  status: ('A' for Active; 'I' for Inactive)
REMARK    1  A    between atoms: C_3  and  S_11
REMARK    2  A    between atoms: C_4  and  N_10
REMARK    3  A    between atoms: C_6  and  N_7
REMARK    4  A    between atoms: S_11  and  N_14
REMARK    5  A    between atoms: N_14  and  C_15
REMARK    6  A    between atoms: C_15  and  C_16
REMARK                            x       y       z     vdW  Elec       q    Type
REMARK                         _______ _______ _______ _____ _____    ______ ____
ROOT
ATOM      1  C   UNL     1       1.193  -0.721  -0.433  0.00  0.00    +0.035 A 
ATOM      2  C   UNL     1       2.309   0.084  -0.573  0.00  0.00    +0.032 A 
ATOM      3  C   UNL     1       2.443   1.221   0.198  0.00  0.00    +0.126 A 
ATOM      4  C   UNL     1       1.454   1.557   1.115  0.00  0.00    +0.053 A 
ATOM      5  C   UNL     1       0.335   0.747   1.253  0.00  0.00    +0.057 A 
ATOM      6  C   UNL     1       0.207  -0.390   0.478  0.00  0.00    +0.128 A 
ENDROOT
BRANCH   6   7
ATOM      7  N   UNL     1      -0.986  -1.253   0.624  0.00  0.00    +0.056 N 
ATOM      8  O   UNL     1      -1.098  -2.248  -0.054  0.00  0.00    -0.126 OA
ATOM      9  O   UNL     1      -1.848  -0.964   1.421  0.00  0.00    -0.126 OA
ENDBRANCH   6   7
BRANCH   4  10
ATOM     10  N   UNL     1       1.587   2.707   1.897  0.00  0.00    -0.356 N 
ATOM     11  H   UNL     1       2.338   3.304   1.758  0.00  0.00    +0.142 HD
ATOM     12  H   UNL     1       0.927   2.909   2.579  0.00  0.00    +0.142 HD
ENDBRANCH   4  10
BRANCH   3  13
ATOM     13  S   UNL     1       3.865   2.245   0.020  0.00  0.00    +0.060 S 
ATOM     14  O   UNL     1       4.699   1.618  -0.944  0.00  0.00    -0.153 OA
ATOM     15  O   UNL     1       3.391   3.576  -0.134  0.00  0.00    -0.153 OA
BRANCH  13  16
ATOM     16  N   UNL     1       4.686   2.199   1.458  0.00  0.00    -0.190 NA
ATOM     17  H   UNL     1       4.770   3.002   1.994  0.00  0.00    +0.148 HD
BRANCH  16  18
ATOM     18  C   UNL     1       5.285   0.944   1.919  0.00  0.00    +0.111 C 
BRANCH  18  19
ATOM     19  C   UNL     1       6.280   1.236   3.043  0.00  0.00    +0.030 C 
ATOM     20  C   UNL     1       6.996  -0.058   3.443  0.00  0.00    +0.009 C 
ATOM     21  C   UNL     1       7.932   0.232   4.620  0.00  0.00    +0.028 C 
ATOM     22  C   UNL     1       7.120   0.827   5.773  0.00  0.00    +0.160 C 
ATOM     23  O   UNL     1       6.456   2.011   5.325  0.00  0.00    -0.379 OA
ATOM     24  C   UNL     1       5.532   1.794   4.256  0.00  0.00    +0.164 C 
ENDBRANCH  18  19
ENDBRANCH  16  18
ENDBRANCH  13  16
ENDBRANCH   3  13
TORSDOF 6
