REMARK  Name = ZINC59250026
REMARK  5 active torsions:
REMARK  status: ('A' for Active; 'I' for Inactive)
REMARK    1  A    between atoms: C_1  and  C_2
REMARK    2  A    between atoms: C_6  and  N_9
REMARK    3  A    between atoms: C_7  and  C_8
REMARK    4  A    between atoms: C_13  and  C_14
REMARK    5  A    between atoms: N_18  and  C_19
REMARK                            x       y       z     vdW  Elec       q    Type
REMARK                         _______ _______ _______ _____ _____    ______ ____
ROOT
ATOM      1  N   UNL     1       0.160  -1.738   3.307  0.00  0.00    -0.188 N 
ATOM      2  C   UNL     1      -1.003  -2.075   3.905  0.00  0.00    +0.264 C 
ATOM      3  O   UNL     1      -1.956  -1.317   3.897  0.00  0.00    -0.269 OA
ATOM      4  C   UNL     1      -1.082  -3.387   4.568  0.00  0.00    +0.103 C 
ATOM      5  C   UNL     1      -2.249  -3.805   5.207  0.00  0.00    +0.044 C 
ATOM      6  C   UNL     1       0.077  -4.213   4.532  0.00  0.00    +0.276 C 
ATOM      7  O   UNL     1       0.070  -5.428   5.120  0.00  0.00    -0.268 OA
ATOM      8  N   UNL     1       1.160  -3.774   3.914  0.00  0.00    -0.123 NA
ATOM      9  C   UNL     1       1.202  -2.585   3.318  0.00  0.00    +0.340 C 
ATOM     10  O   UNL     1       2.233  -2.248   2.763  0.00  0.00    -0.250 OA
ENDROOT
BRANCH   1  16
ATOM     11  C   UNL     1       1.133   3.077   3.543  0.00  0.00    +0.044 C 
ATOM     12  C   UNL     1       0.748   1.851   2.755  0.00  0.00    -0.046 A 
ATOM     13  C   UNL     1       0.510   1.950   1.396  0.00  0.00    +0.004 A 
ATOM     14  C   UNL     1       0.157   0.828   0.670  0.00  0.00    +0.002 A 
ATOM     15  C   UNL     1       0.040  -0.396   1.301  0.00  0.00    +0.024 A 
ATOM     16  C   UNL     1       0.278  -0.498   2.664  0.00  0.00    +0.049 A 
ATOM     17  C   UNL     1       0.638   0.630   3.390  0.00  0.00    -0.026 A 
ATOM     18  C   UNL     1       0.903   0.522   4.870  0.00  0.00    +0.046 C 
ENDBRANCH   1  16
BRANCH   5  19
ATOM     19  C   UNL     1      -3.479  -3.729   4.540  0.00  0.00    +0.047 A 
ATOM     20  C   UNL     1      -3.720  -3.100   3.322  0.00  0.00    +0.027 A 
ATOM     21  C   UNL     1      -5.072  -3.269   3.035  0.00  0.00    +0.020 A 
ATOM     22  C   UNL     1      -5.633  -3.981   4.048  0.00  0.00    +0.092 A 
ATOM     23  N   UNL     1      -4.678  -4.271   4.966  0.00  0.00    -0.316 N 
BRANCH  23  24
ATOM     24  C   UNL     1      -4.873  -4.996   6.149  0.00  0.00    +0.047 A 
ATOM     25  C   UNL     1      -4.103  -6.122   6.409  0.00  0.00    +0.027 A 
ATOM     26  C   UNL     1      -4.298  -6.835   7.576  0.00  0.00    +0.022 A 
ATOM     27  C   UNL     1      -5.259  -6.429   8.485  0.00  0.00    +0.041 A 
ATOM     28  C   UNL     1      -6.028  -5.307   8.227  0.00  0.00    +0.022 A 
ATOM     29  C   UNL     1      -5.833  -4.587   7.065  0.00  0.00    +0.027 A 
ATOM     30 CL   UNL     1      -5.502  -7.327   9.950  0.00  0.00    -0.084 Cl
ENDBRANCH  23  24
ENDBRANCH   5  19
TORSDOF 3
