REMARK  Name = ZINC67000276
REMARK  7 active torsions:
REMARK  status: ('A' for Active; 'I' for Inactive)
REMARK    1  A    between atoms: C_1  and  C_2
REMARK    2  A    between atoms: N_4  and  C_5
REMARK    3  A    between atoms: C_8  and  N_11
REMARK    4  A    between atoms: C_12  and  C_14
REMARK    5  A    between atoms: N_16  and  C_17
REMARK    6  A    between atoms: C_17  and  C_18
REMARK    7  A    between atoms: C_18  and  O_28
REMARK                            x       y       z     vdW  Elec       q    Type
REMARK                         _______ _______ _______ _____ _____    ______ ____
ROOT
ATOM      1  C   UNL     1      -2.661  -8.341  -0.794  0.00  0.00    +0.299 C 
ATOM      2  O   UNL     1      -1.665  -9.018  -0.646  0.00  0.00    -0.265 OA
ATOM      3  N   UNL     1      -3.864  -8.933  -0.935  0.00  0.00    -0.305 N 
ATOM      4  H   UNL     1      -4.660  -8.392  -1.053  0.00  0.00    +0.149 HD
ENDROOT
BRANCH   1   6
ATOM      5  N   UNL     1      -1.352  -6.259  -0.679  0.00  0.00    -0.278 N 
ATOM      6  C   UNL     1      -2.555  -6.851  -0.820  0.00  0.00    +0.303 C 
ATOM      7  O   UNL     1      -3.551  -6.174  -0.968  0.00  0.00    -0.265 OA
ATOM      8  H   UNL     1      -0.566  -6.796  -0.493  0.00  0.00    +0.155 HD
BRANCH   5  12
ATOM      9  C   UNL     1      -1.012  -2.121  -1.039  0.00  0.00    +0.033 A 
ATOM     10  C   UNL     1      -2.148  -2.677  -0.467  0.00  0.00    +0.025 A 
ATOM     11  C   UNL     1      -2.261  -4.047  -0.347  0.00  0.00    +0.025 A 
ATOM     12  C   UNL     1      -1.238  -4.871  -0.800  0.00  0.00    +0.034 A 
ATOM     13  C   UNL     1      -0.101  -4.315  -1.373  0.00  0.00    +0.025 A 
ATOM     14  C   UNL     1       0.009  -2.945  -1.498  0.00  0.00    +0.025 A 
BRANCH   9  18
ATOM     15  C   UNL     1      -0.251   1.299  -2.417  0.00  0.00    +0.109 C 
ATOM     16  C   UNL     1      -0.282  -0.196  -2.234  0.00  0.00    +0.214 C 
ATOM     17  O   UNL     1       0.246  -0.919  -3.053  0.00  0.00    -0.276 OA
ATOM     18  N   UNL     1      -0.897  -0.731  -1.160  0.00  0.00    -0.286 N 
ATOM     19  H   UNL     1      -1.260  -0.153  -0.472  0.00  0.00    +0.155 HD
ENDBRANCH   9  18
ENDBRANCH   5  12
ENDBRANCH   1   6
BRANCH   3  20
ATOM     20  C   UNL     1      -3.968 -10.394  -0.910  0.00  0.00    +0.144 C 
BRANCH  20  21
ATOM     21  C   UNL     1      -5.410 -10.807  -1.210  0.00  0.00    +0.107 C 
ATOM     22  C   UNL     1      -6.343 -10.153  -0.193  0.00  0.00    +0.041 C 
ATOM     23  C   UNL     1      -7.746 -10.746  -0.372  0.00  0.00    +0.008 C 
ATOM     24  C   UNL     1      -7.719 -12.197   0.106  0.00  0.00    +0.035 C 
ATOM     25  C   UNL     1      -6.583 -12.946  -0.540  0.00  0.00    -0.041 A 
ATOM     26  C   UNL     1      -5.521 -12.308  -1.141  0.00  0.00    -0.011 A 
ATOM     27  C   UNL     1      -4.502 -13.059  -1.713  0.00  0.00    +0.007 A 
ATOM     28  C   UNL     1      -4.548 -14.437  -1.688  0.00  0.00    +0.000 A 
ATOM     29  C   UNL     1      -5.616 -15.078  -1.088  0.00  0.00    +0.000 A 
ATOM     30  C   UNL     1      -6.628 -14.334  -0.517  0.00  0.00    +0.004 A 
BRANCH  21  31
ATOM     31  O   UNL     1      -5.763 -10.368  -2.523  0.00  0.00    -0.382 OA
ATOM     32  H   UNL     1      -5.207 -10.737  -3.223  0.00  0.00    +0.211 HD
ENDBRANCH  21  31
ENDBRANCH  20  21
ENDBRANCH   3  20
TORSDOF 6
