REMARK  Name = ZINC57011313
REMARK  5 active torsions:
REMARK  status: ('A' for Active; 'I' for Inactive)
REMARK    1  A    between atoms: C_1  and  N_2
REMARK    2  A    between atoms: C_6  and  S_12
REMARK    3  A    between atoms: S_12  and  N_15
REMARK    4  A    between atoms: N_15  and  C_16
REMARK    5  A    between atoms: N_25  and  C_27
REMARK                            x       y       z     vdW  Elec       q    Type
REMARK                         _______ _______ _______ _____ _____    ______ ____
ROOT
ATOM      1  N   UNL     1      -4.322  -4.700  -1.582  0.00  0.00    -0.187 NA
ATOM      2  H   UNL     1      -5.218  -4.582  -1.935  0.00  0.00    +0.148 HD
ENDROOT
BRANCH   1   3
ATOM      3  C   UNL     1      -3.256  -5.203  -2.447  0.00  0.00    +0.079 C 
ATOM      4  C   UNL     1      -2.645  -4.061  -3.262  0.00  0.00    -0.009 C 
ATOM      5  C   UNL     1      -3.722  -3.370  -4.086  0.00  0.00    +0.003 C 
ATOM      6  C   UNL     1      -4.490  -4.329  -4.981  0.00  0.00    +0.001 C 
ATOM      7  C   UNL     1      -4.923  -5.601  -4.271  0.00  0.00    +0.003 C 
ATOM      8  C   UNL     1      -3.811  -6.226  -3.440  0.00  0.00    -0.009 C 
ATOM      9  C   UNL     1      -2.681  -6.749  -4.317  0.00  0.00    -0.073 C 
ATOM     10  N   UNL     1      -1.963  -5.689  -5.017  0.00  0.00    +0.382 N 
ATOM     11  C   UNL     1      -1.526  -4.606  -4.141  0.00  0.00    -0.073 C 
ATOM     12  H   UNL     1      -2.523  -5.325  -5.771  0.00  0.00    -0.081 HD
BRANCH  10  13
ATOM     13  C   UNL     1      -0.769  -6.281  -5.637  0.00  0.00    -0.069 C 
ATOM     14  C   UNL     1      -0.539  -6.010  -7.125  0.00  0.00    -0.017 C 
ATOM     15  C   UNL     1      -0.985  -7.397  -6.660  0.00  0.00    -0.017 C 
ENDBRANCH  10  13
ENDBRANCH   1   3
BRANCH   1  16
ATOM     16  S   UNL     1      -4.000  -4.331  -0.000  0.00  0.00    +0.059 S 
ATOM     17  O   UNL     1      -3.300  -5.443   0.541  0.00  0.00    -0.153 OA
ATOM     18  O   UNL     1      -5.214  -3.849   0.559  0.00  0.00    -0.153 OA
BRANCH  16  24
ATOM     19  C   UNL     1      -0.018   1.461   0.010  0.00  0.00    +0.156 C 
ATOM     20  N   UNL     1       0.002  -0.004   0.002  0.00  0.00    -0.277 N 
ATOM     21  C   UNL     1      -1.111  -0.844   0.003  0.00  0.00    +0.090 A 
ATOM     22  C   UNL     1      -2.478  -0.613   0.010  0.00  0.00    +0.031 A 
ATOM     23  C   UNL     1      -3.355  -1.680   0.009  0.00  0.00    +0.031 A 
ATOM     24  C   UNL     1      -2.873  -2.977   0.000  0.00  0.00    +0.109 A 
ATOM     25  C   UNL     1      -1.513  -3.215  -0.008  0.00  0.00    +0.077 A 
ATOM     26  C   UNL     1      -0.625  -2.151  -0.007  0.00  0.00    +0.159 A 
ATOM     27  O   UNL     1       0.729  -2.076  -0.013  0.00  0.00    -0.407 OA
ATOM     28  C   UNL     1       1.100  -0.786  -0.013  0.00  0.00    +0.421 A 
ATOM     29  O   UNL     1       2.248  -0.385  -0.022  0.00  0.00    -0.223 OA
ENDBRANCH  16  24
ENDBRANCH   1  16
TORSDOF 4
