REMARK  Name = ZINC08947429
REMARK  9 active torsions:
REMARK  status: ('A' for Active; 'I' for Inactive)
REMARK    1  A    between atoms: C_1  and  C_2
REMARK    2  A    between atoms: C_6  and  C_13
REMARK    3  A    between atoms: C_13  and  N_14
REMARK    4  A    between atoms: C_17  and  C_21
REMARK    5  A    between atoms: C_17  and  C_22
REMARK    6  A    between atoms: C_25  and  C_28
REMARK    7  A    between atoms: C_28  and  C_29
REMARK    8  A    between atoms: C_28  and  C_30
REMARK    9  A    between atoms: C_28  and  C_31
REMARK                            x       y       z     vdW  Elec       q    Type
REMARK                         _______ _______ _______ _____ _____    ______ ____
ROOT
ATOM      1  N   UNL     1       4.049   2.587   1.311  0.00  0.00    -0.220 N 
ATOM      2  C   UNL     1       3.590   3.775   1.753  0.00  0.00    +0.251 C 
ATOM      3  O   UNL     1       2.902   4.566   1.145  0.00  0.00    -0.272 OA
ATOM      4  C   UNL     1       4.111   3.913   3.170  0.00  0.00    +0.135 C 
ATOM      5  N   UNL     1       4.881   2.675   3.378  0.00  0.00    -0.281 N 
ATOM      6  C   UNL     1       4.786   1.966   2.239  0.00  0.00    +0.310 C 
ATOM      7  O   UNL     1       5.311   0.883   2.071  0.00  0.00    -0.252 OA
ATOM      8  C   UNL     1       2.954   4.002   4.167  0.00  0.00    +0.047 C 
ATOM      9  H   UNL     1       5.363   2.420   4.181  0.00  0.00    +0.152 HD
ENDROOT
BRANCH   4  10
ATOM     10  C   UNL     1       5.006   5.120   3.286  0.00  0.00    -0.015 A 
ATOM     11  C   UNL     1       4.740   6.252   2.538  0.00  0.00    +0.006 A 
ATOM     12  C   UNL     1       5.558   7.361   2.648  0.00  0.00    +0.004 A 
ATOM     13  C   UNL     1       6.648   7.334   3.498  0.00  0.00    -0.042 A 
ATOM     14  C   UNL     1       6.917   6.200   4.241  0.00  0.00    +0.004 A 
ATOM     15  C   UNL     1       6.096   5.093   4.135  0.00  0.00    +0.006 A 
BRANCH  13  16
ATOM     16  C   UNL     1       7.544   8.541   3.613  0.00  0.00    -0.013 C 
ATOM     17  C   UNL     1       8.968   8.160   3.204  0.00  0.00    +0.015 C 
ATOM     18  C   UNL     1       7.028   9.649   2.692  0.00  0.00    +0.015 C 
ATOM     19  C   UNL     1       7.545   9.039   5.059  0.00  0.00    +0.015 C 
ENDBRANCH  13  16
ENDBRANCH   4  10
BRANCH   1  20
ATOM     20  C   UNL     1       3.780   2.046  -0.024  0.00  0.00    +0.154 C 
BRANCH  20  26
ATOM     21  C   UNL     1       0.169  -0.807  -4.823  0.00  0.00    +0.044 C 
ATOM     22  C   UNL     1       0.771  -0.252  -3.558  0.00  0.00    -0.047 A 
ATOM     23  C   UNL     1       1.983   0.420  -3.611  0.00  0.00    +0.004 A 
ATOM     24  C   UNL     1       2.544   0.930  -2.474  0.00  0.00    +0.012 A 
ATOM     25  C   UNL     1       1.890   0.773  -1.248  0.00  0.00    +0.022 A 
ATOM     26  C   UNL     1       2.465   1.310  -0.011  0.00  0.00    -0.012 A 
ATOM     27  C   UNL     1       1.781   1.125   1.146  0.00  0.00    +0.098 A 
ATOM     28  C   UNL     1       0.551   0.431   1.131  0.00  0.00    +0.338 A 
ATOM     29  O   UNL     1      -0.053   0.272   2.176  0.00  0.00    -0.245 OA
ATOM     30  O   UNL     1       0.031  -0.057  -0.006  0.00  0.00    -0.422 OA
ATOM     31  C   UNL     1       0.662   0.093  -1.190  0.00  0.00    +0.140 A 
ATOM     32  C   UNL     1       0.108  -0.414  -2.359  0.00  0.00    +0.050 A 
ENDBRANCH  20  26
ENDBRANCH   1  20
TORSDOF 4
