REMARK  Name = ZINC63063883
REMARK  3 active torsions:
REMARK  status: ('A' for Active; 'I' for Inactive)
REMARK    1  A    between atoms: C_1  and  C_2
REMARK    2  A    between atoms: C_4  and  C_7
REMARK    3  A    between atoms: C_15  and  O_19
REMARK                            x       y       z     vdW  Elec       q    Type
REMARK                         _______ _______ _______ _____ _____    ______ ____
ROOT
ATOM      1  C   UNL     1       0.543  -3.447  -1.584  0.00  0.00    +0.289 C 
ATOM      2  O   UNL     1      -0.024  -2.487  -1.098  0.00  0.00    -0.266 OA
ATOM      3  N   UNL     1       0.458  -4.653  -0.988  0.00  0.00    -0.261 N 
ATOM      4  C   UNL     1       0.732  -5.881  -1.745  0.00  0.00    +0.114 C 
ATOM      5  C   UNL     1      -0.362  -6.900  -1.396  0.00  0.00    +0.024 C 
ATOM      6  C   UNL     1      -0.267  -7.235   0.092  0.00  0.00    +0.038 C 
ATOM      7  C   UNL     1      -0.249  -5.975   0.917  0.00  0.00    -0.022 A 
ATOM      8  C   UNL     1       0.112  -4.755   0.368  0.00  0.00    +0.081 A 
ATOM      9  C   UNL     1       0.129  -3.609   1.161  0.00  0.00    +0.138 A 
ATOM     10  C   UNL     1      -0.213  -3.691   2.501  0.00  0.00    +0.047 A 
ATOM     11  C   UNL     1      -0.570  -4.910   3.047  0.00  0.00    +0.004 A 
ATOM     12  C   UNL     1      -0.595  -6.046   2.257  0.00  0.00    +0.006 A 
ENDROOT
BRANCH   1  16
ATOM     13  C   UNL     1       2.617  -1.478  -5.774  0.00  0.00    +0.069 C 
ATOM     14  C   UNL     1       2.249  -2.443  -4.676  0.00  0.00    +0.081 A 
ATOM     15  C   UNL     1       1.404  -2.168  -3.588  0.00  0.00    +0.080 A 
ATOM     16  C   UNL     1       1.324  -3.292  -2.825  0.00  0.00    +0.222 A 
ATOM     17  O   UNL     1       2.088  -4.237  -3.408  0.00  0.00    -0.350 OA
ATOM     18  N   UNL     1       2.656  -3.676  -4.577  0.00  0.00    -0.083 NA
ENDBRANCH   1  16
BRANCH   9  19
ATOM     19  O   UNL     1       0.480  -2.412   0.621  0.00  0.00    -0.505 OA
ATOM     20  H   UNL     1      -0.260  -1.801   0.501  0.00  0.00    +0.292 HD
ENDBRANCH   9  19
TORSDOF 2
