REMARK  Name = ZINC13114592
REMARK  7 active torsions:
REMARK  status: ('A' for Active; 'I' for Inactive)
REMARK    1  A    between atoms: C_1  and  C_2
REMARK    2  A    between atoms: C_5  and  C_8
REMARK    3  A    between atoms: C_10  and  C_13
REMARK    4  A    between atoms: C_13  and  C_14
REMARK    5  A    between atoms: N_16  and  N_17
REMARK    6  A    between atoms: C_20  and  C_24
REMARK    7  A    between atoms: C_20  and  C_30
REMARK                            x       y       z     vdW  Elec       q    Type
REMARK                         _______ _______ _______ _____ _____    ______ ____
ROOT
ATOM      1  N   UNL     1       1.054   1.996  -1.214  0.00  0.00    -0.137 N 
ATOM      2  C   UNL     1       2.143   2.583  -1.750  0.00  0.00    +0.272 C 
ATOM      3  O   UNL     1       2.282   2.965  -2.892  0.00  0.00    -0.270 OA
ATOM      4  C   UNL     1       3.157   2.667  -0.626  0.00  0.00    +0.165 C 
ATOM      5  N   UNL     1       2.458   2.054   0.517  0.00  0.00    -0.276 N 
ATOM      6  C   UNL     1       1.240   1.695   0.076  0.00  0.00    +0.327 C 
ATOM      7  O   UNL     1       0.401   1.157   0.771  0.00  0.00    -0.251 OA
ATOM      8  H   UNL     1       2.809   1.933   1.413  0.00  0.00    +0.152 HD
ENDROOT
BRANCH   4   9
ATOM      9  C   UNL     1       3.505   4.103  -0.327  0.00  0.00    -0.011 A 
ATOM     10  C   UNL     1       3.483   4.562   0.976  0.00  0.00    +0.006 A 
ATOM     11  C   UNL     1       3.807   5.878   1.251  0.00  0.00    +0.000 A 
ATOM     12  C   UNL     1       4.144   6.736   0.221  0.00  0.00    +0.000 A 
ATOM     13  C   UNL     1       4.160   6.278  -1.083  0.00  0.00    +0.000 A 
ATOM     14  C   UNL     1       3.841   4.961  -1.357  0.00  0.00    +0.006 A 
ENDBRANCH   4   9
BRANCH   4  15
ATOM     15  C   UNL     1       4.396   1.883  -0.972  0.00  0.00    -0.011 A 
ATOM     16  C   UNL     1       5.056   2.123  -2.163  0.00  0.00    +0.006 A 
ATOM     17  C   UNL     1       6.196   1.407  -2.478  0.00  0.00    +0.000 A 
ATOM     18  C   UNL     1       6.671   0.445  -1.607  0.00  0.00    +0.000 A 
ATOM     19  C   UNL     1       6.008   0.202  -0.418  0.00  0.00    +0.000 A 
ATOM     20  C   UNL     1       4.871   0.921  -0.101  0.00  0.00    +0.006 A 
ENDBRANCH   4  15
BRANCH   1  23
ATOM     21  C   UNL     1      -1.217   2.494  -1.726  0.00  0.00    +0.235 C 
ATOM     22  O   UNL     1      -1.181   3.410  -0.931  0.00  0.00    -0.274 OA
ATOM     23  N   UNL     1      -0.125   1.730  -1.923  0.00  0.00    -0.223 N 
ATOM     24  H   UNL     1      -0.154   0.998  -2.559  0.00  0.00    +0.174 HD
BRANCH  21  25
ATOM     25  C   UNL     1      -2.484   2.212  -2.492  0.00  0.00    +0.153 C 
BRANCH  25  28
ATOM     26  C   UNL     1      -4.803   4.203  -0.446  0.00  0.00    +0.109 A 
ATOM     27  N   UNL     1      -3.876   3.335  -0.827  0.00  0.00    -0.243 NA
ATOM     28  C   UNL     1      -3.546   3.202  -2.090  0.00  0.00    +0.058 A 
ATOM     29  C   UNL     1      -4.169   3.954  -3.036  0.00  0.00    +0.071 A 
ATOM     30  S   UNL     1      -5.286   4.908  -2.016  0.00  0.00    -0.075 S 
BRANCH  26  35
ATOM     31  C   UNL     1      -6.760   5.369   4.839  0.00  0.00    +0.044 C 
ATOM     32  C   UNL     1      -6.248   5.063   3.455  0.00  0.00    -0.050 A 
ATOM     33  C   UNL     1      -6.769   5.735   2.364  0.00  0.00    +0.004 A 
ATOM     34  C   UNL     1      -6.304   5.461   1.094  0.00  0.00    +0.011 A 
ATOM     35  C   UNL     1      -5.306   4.502   0.912  0.00  0.00    +0.007 A 
ATOM     36  C   UNL     1      -4.789   3.824   2.017  0.00  0.00    +0.011 A 
ATOM     37  C   UNL     1      -5.258   4.112   3.281  0.00  0.00    +0.004 A 
ENDBRANCH  26  35
ENDBRANCH  25  28
ENDBRANCH  21  25
ENDBRANCH   1  23
TORSDOF 6
