REMARK  Name = ZINC66740971
REMARK  4 active torsions:
REMARK  status: ('A' for Active; 'I' for Inactive)
REMARK    1  A    between atoms: C_1  and  C_2
REMARK    2  A    between atoms: C_11  and  C_14
REMARK    3  A    between atoms: C_17  and  O_23
REMARK    4  A    between atoms: C_18  and  N_20
REMARK                            x       y       z     vdW  Elec       q    Type
REMARK                         _______ _______ _______ _____ _____    ______ ____
ROOT
ATOM      1  C   UNL     1      -0.018   1.503   0.010  0.00  0.00    +0.067 C 
ATOM      2  C   UNL     1       0.002  -0.004   0.002  0.00  0.00    +0.055 A 
ATOM      3  C   UNL     1       0.008  -0.795  -1.075  0.00  0.00    +0.082 A 
ATOM      4  C   UNL     1       0.022  -2.138  -0.574  0.00  0.00    +0.168 A 
ATOM      5  N   UNL     1       0.032  -2.062   0.724  0.00  0.00    -0.167 NA
ATOM      6  N   UNL     1       0.024  -0.824   1.094  0.00  0.00    -0.279 N 
ATOM      7  H   UNL     1       0.030  -0.521   2.015  0.00  0.00    +0.189 HD
ATOM      8  C   UNL     1       0.015  -3.268  -1.523  0.00  0.00    +0.268 C 
ATOM      9  O   UNL     1      -0.148  -4.413  -1.149  0.00  0.00    -0.268 OA
ATOM     10  N   UNL     1       0.198  -2.968  -2.831  0.00  0.00    -0.288 N 
ATOM     11  C   UNL     1       0.567  -1.639  -3.303  0.00  0.00    +0.190 C 
ATOM     12  N   UNL     1       0.007  -0.571  -2.459  0.00  0.00    -0.319 N 
ATOM     13  H   UNL     1       0.077  -3.673  -3.486  0.00  0.00    +0.151 HD
ATOM     14  H   UNL     1      -0.344   0.248  -2.841  0.00  0.00    +0.148 HD
ENDROOT
BRANCH  11  15
ATOM     15  C   UNL     1       2.070  -1.522  -3.306  0.00  0.00    -0.007 A 
ATOM     16  C   UNL     1       2.666  -0.292  -3.093  0.00  0.00    +0.011 A 
ATOM     17  C   UNL     1       4.043  -0.182  -3.095  0.00  0.00    +0.048 A 
ATOM     18  C   UNL     1       4.827  -1.306  -3.309  0.00  0.00    +0.147 A 
ATOM     19  C   UNL     1       4.227  -2.538  -3.522  0.00  0.00    +0.168 A 
ATOM     20  C   UNL     1       2.849  -2.644  -3.515  0.00  0.00    +0.043 A 
BRANCH  19  21
ATOM     21  N   UNL     1       5.061  -3.739  -3.752  0.00  0.00    +0.060 N 
ATOM     22  O   UNL     1       4.537  -4.812  -3.937  0.00  0.00    -0.126 OA
ATOM     23  O   UNL     1       6.266  -3.646  -3.755  0.00  0.00    -0.126 OA
ENDBRANCH  19  21
BRANCH  18  24
ATOM     24  O   UNL     1       6.182  -1.200  -3.312  0.00  0.00    -0.504 OA
ATOM     25  H   UNL     1       6.588  -1.325  -2.443  0.00  0.00    +0.292 HD
ENDBRANCH  18  24
ENDBRANCH  11  15
TORSDOF 3
