REMARK  Name = ZINC42867038
REMARK  5 active torsions:
REMARK  status: ('A' for Active; 'I' for Inactive)
REMARK    1  A    between atoms: C_1  and  C_2
REMARK    2  A    between atoms: C_8  and  C_10
REMARK    3  A    between atoms: C_10  and  N_11
REMARK    4  A    between atoms: C_12  and  C_16
REMARK    5  A    between atoms: C_18  and  N_23
REMARK                            x       y       z     vdW  Elec       q    Type
REMARK                         _______ _______ _______ _____ _____    ______ ____
ROOT
ATOM      1  N   UNL     1       3.122  -0.436   2.144  0.00  0.00    -0.225 N 
ATOM      2  C   UNL     1       3.193   0.086   3.393  0.00  0.00    +0.183 A 
ATOM      3  N   UNL     1       3.987  -0.695   4.094  0.00  0.00    -0.108 NA
ATOM      4  N   UNL     1       4.415  -1.667   3.371  0.00  0.00    -0.023 NA
ATOM      5  N   UNL     1       3.933  -1.585   2.178  0.00  0.00    -0.044 NA
ENDROOT
BRANCH   2   6
ATOM      6  C   UNL     1       2.508   1.306   3.876  0.00  0.00    +0.041 A 
ATOM      7  C   UNL     1       2.549   2.477   3.121  0.00  0.00    +0.035 A 
ATOM      8  C   UNL     1       1.905   3.615   3.580  0.00  0.00    +0.025 A 
ATOM      9  C   UNL     1       1.221   3.588   4.790  0.00  0.00    +0.024 A 
ATOM     10  C   UNL     1       1.181   2.428   5.539  0.00  0.00    +0.022 A 
ATOM     11  C   UNL     1       1.815   1.286   5.088  0.00  0.00    +0.052 A 
ATOM     12 CL   UNL     1       1.756  -0.171   6.030  0.00  0.00    -0.083 Cl
BRANCH   8  13
ATOM     13  N   UNL     1       1.943   4.792   2.826  0.00  0.00    -0.358 N 
ATOM     14  H   UNL     1       2.420   4.811   1.981  0.00  0.00    +0.142 HD
ATOM     15  H   UNL     1       1.492   5.588   3.147  0.00  0.00    +0.142 HD
ENDBRANCH   8  13
ENDBRANCH   2   6
BRANCH   1  16
ATOM     16  C   UNL     1       2.360   0.081   1.005  0.00  0.00    +0.151 C 
BRANCH  16  23
ATOM     17  C   UNL     1       0.113   1.726   0.094  0.00  0.00    +0.008 C 
ATOM     18  C   UNL     1       0.095   0.202  -0.043  0.00  0.00    -0.009 C 
ATOM     19  C   UNL     1      -1.348  -0.301   0.039  0.00  0.00    +0.003 C 
ATOM     20  C   UNL     1      -1.366  -1.824  -0.099  0.00  0.00    +0.000 C 
ATOM     21  C   UNL     1      -0.544  -2.448   1.031  0.00  0.00    +0.000 C 
ATOM     22  C   UNL     1       0.899  -1.946   0.949  0.00  0.00    +0.005 C 
ATOM     23  C   UNL     1       0.917  -0.422   1.087  0.00  0.00    +0.013 C 
ENDBRANCH  16  23
ENDBRANCH   1  16
TORSDOF 4
