REMARK  Name = ZINC44167551
REMARK  6 active torsions:
REMARK  status: ('A' for Active; 'I' for Inactive)
REMARK    1  A    between atoms: C_4  and  C_7
REMARK    2  A    between atoms: C_7  and  O_8
REMARK    3  A    between atoms: O_8  and  C_9
REMARK    4  A    between atoms: C_11  and  N_32
REMARK    5  A    between atoms: C_13  and  O_31
REMARK    6  A    between atoms: C_22  and  C_25
REMARK                            x       y       z     vdW  Elec       q    Type
REMARK                         _______ _______ _______ _____ _____    ______ ____
ROOT
ATOM      1  C   UNL     1       5.291  -1.835   1.432  0.00  0.00    +0.274 C 
ATOM      2  C   UNL     1       5.808  -1.727   2.868  0.00  0.00    +0.172 C 
ATOM      3  C   UNL     1       4.837  -2.436   3.821  0.00  0.00    +0.172 C 
ATOM      4  C   UNL     1       4.673  -3.883   3.355  0.00  0.00    +0.183 C 
ATOM      5  C   UNL     1       4.154  -3.878   1.912  0.00  0.00    +0.178 C 
ATOM      6  O   UNL     1       5.101  -3.210   1.085  0.00  0.00    -0.341 OA
ATOM      7  C   UNL     1       3.952  -5.327   1.465  0.00  0.00    +0.197 C 
ATOM      8  O   UNL     1       3.074  -5.968   2.399  0.00  0.00    -0.345 OA
ATOM      9  C   UNL     1       3.530  -5.938   3.753  0.00  0.00    +0.282 C 
ATOM     10  O   UNL     1       3.738  -4.585   4.173  0.00  0.00    -0.339 OA
ENDROOT
BRANCH   2  11
ATOM     11  N   UNL     1       7.127  -2.356   2.961  0.00  0.00    -0.224 N 
ATOM     12  C   UNL     1       7.759  -2.953   1.934  0.00  0.00    +0.254 C 
ATOM     13  O   UNL     1       7.333  -3.054   0.801  0.00  0.00    -0.270 OA
ATOM     14  C   UNL     1       9.060  -3.465   2.415  0.00  0.00    +0.049 A 
ATOM     15  C   UNL     1      10.110  -4.149   1.823  0.00  0.00    +0.014 A 
ATOM     16  C   UNL     1      11.220  -4.490   2.579  0.00  0.00    +0.001 A 
ATOM     17  C   UNL     1      11.287  -4.154   3.918  0.00  0.00    +0.001 A 
ATOM     18  C   UNL     1      10.245  -3.470   4.524  0.00  0.00    +0.014 A 
ATOM     19  C   UNL     1       9.128  -3.122   3.781  0.00  0.00    +0.049 A 
ATOM     20  C   UNL     1       7.869  -2.409   4.082  0.00  0.00    +0.254 C 
ATOM     21  O   UNL     1       7.555  -1.949   5.161  0.00  0.00    -0.270 OA
ENDBRANCH   2  11
BRANCH   9  22
ATOM     22  C   UNL     1       2.497  -6.582   4.642  0.00  0.00    +0.008 A 
ATOM     23  C   UNL     1       1.908  -5.852   5.657  0.00  0.00    +0.008 A 
ATOM     24  C   UNL     1       0.960  -6.442   6.473  0.00  0.00    +0.000 A 
ATOM     25  C   UNL     1       0.602  -7.762   6.272  0.00  0.00    +0.000 A 
ATOM     26  C   UNL     1       1.191  -8.492   5.256  0.00  0.00    +0.000 A 
ATOM     27  C   UNL     1       2.135  -7.900   4.438  0.00  0.00    +0.008 A 
ENDBRANCH   9  22
BRANCH   3  28
ATOM     28  O   UNL     1       3.571  -1.774   3.797  0.00  0.00    -0.387 OA
ATOM     29  H   UNL     1       2.908  -2.172   4.378  0.00  0.00    +0.210 HD
ENDBRANCH   3  28
BRANCH   1  30
ATOM     30  O   UNL     1       4.047  -1.141   1.322  0.00  0.00    -0.345 OA
BRANCH  30  31
ATOM     31  C   UNL     1       3.532  -1.078  -0.009  0.00  0.00    +0.198 C 
BRANCH  31  35
ATOM     32  C   UNL     1      -0.174   1.046  -0.007  0.00  0.00    +0.000 A 
ATOM     33  C   UNL     1       1.014   1.729  -0.186  0.00  0.00    +0.000 A 
ATOM     34  C   UNL     1       2.213   1.042  -0.186  0.00  0.00    +0.006 A 
ATOM     35  C   UNL     1       2.225  -0.329  -0.008  0.00  0.00    -0.022 A 
ATOM     36  C   UNL     1       1.037  -1.012   0.172  0.00  0.00    +0.006 A 
ATOM     37  C   UNL     1      -0.163  -0.325   0.171  0.00  0.00    +0.000 A 
ENDBRANCH  31  35
ENDBRANCH  30  31
ENDBRANCH   1  30
TORSDOF 6
