REMARK  Name = ZINC38989661
REMARK  4 active torsions:
REMARK  status: ('A' for Active; 'I' for Inactive)
REMARK    1  A    between atoms: C_1  and  O_2
REMARK    2  A    between atoms: O_2  and  C_3
REMARK    3  A    between atoms: C_5  and  C_10
REMARK    4  A    between atoms: C_8  and  O_9
REMARK                            x       y       z     vdW  Elec       q    Type
REMARK                         _______ _______ _______ _____ _____    ______ ____
ROOT
ATOM      1  C   UNL     1      -4.871   0.257   0.037  0.00  0.00    +0.074 C 
ATOM      2  C   UNL     1      -5.709  -0.086  -1.203  0.00  0.00    +0.152 C 
ATOM      3  C   UNL     1      -6.379  -1.421  -0.987  0.00  0.00    +0.116 C 
ATOM      4  N   UNL     1      -6.190  -2.423  -1.793  0.00  0.00    -0.205 NA
ATOM      5  C   UNL     1      -5.380  -2.344  -2.855  0.00  0.00    +0.206 C 
ATOM      6  N   UNL     1      -4.714  -1.237  -3.147  0.00  0.00    -0.147 NA
ATOM      7  C   UNL     1      -4.819  -0.147  -2.411  0.00  0.00    +0.250 C 
ATOM      8  O   UNL     1      -4.176   0.837  -2.724  0.00  0.00    -0.273 OA
ATOM      9  N   UNL     1      -5.236  -3.438  -3.664  0.00  0.00    -0.329 N 
ATOM     10  N   UNL     1      -7.201  -1.555   0.106  0.00  0.00    -0.301 N 
ATOM     11  C   UNL     1      -6.753  -0.933   1.262  0.00  0.00    +0.048 C 
ATOM     12  C   UNL     1      -5.678  -0.084   1.269  0.00  0.00    +0.030 C 
ATOM     13  C   UNL     1      -5.463   0.397   2.584  0.00  0.00    +0.192 C 
ATOM     14  O   UNL     1      -4.592   1.171   2.932  0.00  0.00    -0.287 OA
ATOM     15  C   UNL     1      -6.491  -0.212   3.455  0.00  0.00    +0.031 A 
ATOM     16  C   UNL     1      -7.290  -1.040   2.623  0.00  0.00    +0.007 A 
ATOM     17  C   UNL     1      -8.354  -1.760   3.143  0.00  0.00    +0.010 A 
ATOM     18  C   UNL     1      -8.596  -1.630   4.514  0.00  0.00    +0.001 A 
ATOM     19  C   UNL     1      -7.820  -0.829   5.317  0.00  0.00    +0.001 A 
ATOM     20  C   UNL     1      -6.740  -0.094   4.808  0.00  0.00    +0.012 A 
ATOM     21  H   UNL     1      -5.718  -4.256  -3.463  0.00  0.00    +0.145 HD
ATOM     22  H   UNL     1      -4.653  -3.396  -4.437  0.00  0.00    +0.145 HD
ATOM     23  H   UNL     1      -8.035  -2.049   0.072  0.00  0.00    +0.153 HD
ENDROOT
BRANCH   1  26
ATOM     24  C   UNL     1      -1.201  -0.638   0.010  0.00  0.00    +0.162 A 
ATOM     25  C   UNL     1      -2.374   0.099   0.019  0.00  0.00    +0.053 A 
ATOM     26  C   UNL     1      -3.596  -0.546   0.027  0.00  0.00    -0.035 A 
ATOM     27  C   UNL     1      -3.652  -1.928   0.026  0.00  0.00    +0.008 A 
ATOM     28  C   UNL     1      -2.485  -2.669   0.017  0.00  0.00    +0.049 A 
ATOM     29  C   UNL     1      -1.257  -2.028   0.003  0.00  0.00    +0.158 A 
BRANCH  24  31
ATOM     30  C   UNL     1      -0.017   1.425   0.010  0.00  0.00    +0.277 C 
ATOM     31  O   UNL     1       0.002  -0.004   0.002  0.00  0.00    -0.491 OA
ENDBRANCH  24  31
BRANCH  29  32
ATOM     32  O   UNL     1      -0.108  -2.756  -0.012  0.00  0.00    -0.503 OA
ATOM     33  H   UNL     1       0.232  -2.972   0.867  0.00  0.00    +0.292 HD
ENDBRANCH  29  32
ENDBRANCH   1  26
TORSDOF 3
