REMARK  Name = ZINC52999268
REMARK  7 active torsions:
REMARK  status: ('A' for Active; 'I' for Inactive)
REMARK    1  A    between atoms: C_1  and  C_2
REMARK    2  A    between atoms: C_6  and  C_8
REMARK    3  A    between atoms: N_10  and  C_11
REMARK    4  A    between atoms: C_11  and  C_13
REMARK    5  A    between atoms: C_11  and  C_14
REMARK    6  A    between atoms: C_14  and  C_15
REMARK    7  A    between atoms: N_16  and  O_17
REMARK                            x       y       z     vdW  Elec       q    Type
REMARK                         _______ _______ _______ _____ _____    ______ ____
ROOT
ATOM      1  C   UNL     1       0.053  -2.843   2.458  0.00  0.00    +0.247 C 
ATOM      2  O   UNL     1       0.069  -4.059   2.447  0.00  0.00    -0.270 OA
ATOM      3  N   UNL     1       0.050  -2.179   3.631  0.00  0.00    -0.308 N 
ATOM      4  H   UNL     1       0.037  -1.210   3.639  0.00  0.00    +0.149 HD
ENDROOT
BRANCH   1  10
ATOM      5  C   UNL     1      -0.018   1.503   0.010  0.00  0.00    +0.044 C 
ATOM      6  C   UNL     1       0.002  -0.004   0.002  0.00  0.00    -0.050 A 
ATOM      7  C   UNL     1       0.006  -0.688  -1.202  0.00  0.00    +0.006 A 
ATOM      8  C   UNL     1       0.024  -2.069  -1.221  0.00  0.00    +0.039 A 
ATOM      9  C   UNL     1       0.040  -2.779  -0.034  0.00  0.00    +0.135 A 
ATOM     10  C   UNL     1       0.037  -2.094   1.185  0.00  0.00    +0.072 A 
ATOM     11  C   UNL     1       0.023  -0.697   1.193  0.00  0.00    +0.019 A 
ATOM     12  F   UNL     1       0.058  -4.130  -0.052  0.00  0.00    -0.205 F 
ENDBRANCH   1  10
BRANCH   3  13
ATOM     13  C   UNL     1       0.066  -2.923   4.893  0.00  0.00    +0.077 C 
ATOM     14  C   UNL     1       1.510  -3.271   5.262  0.00  0.00    +0.028 C 
BRANCH  13  15
ATOM     15  C   UNL     1      -0.550  -2.063   5.999  0.00  0.00    +0.096 C 
BRANCH  15  16
ATOM     16  C   UNL     1      -2.006  -1.823   5.696  0.00  0.00    +0.133 C 
ATOM     17  N   UNL     1      -2.535  -2.324   4.630  0.00  0.00    -0.077 NA
ATOM     18  N   UNL     1      -2.773  -1.070   6.557  0.00  0.00    -0.344 N 
ATOM     19  H   UNL     1      -2.376  -0.694   7.358  0.00  0.00    +0.144 HD
ATOM     20  H   UNL     1      -3.711  -0.915   6.362  0.00  0.00    +0.144 HD
BRANCH  17  21
ATOM     21  O   UNL     1      -3.904  -2.098   4.345  0.00  0.00    -0.408 OA
ATOM     22  H   UNL     1      -4.209  -2.512   3.526  0.00  0.00    +0.328 HD
ENDBRANCH  17  21
ENDBRANCH  15  16
ENDBRANCH  13  15
ENDBRANCH   3  13
TORSDOF 5
