REMARK  Name = ZINC61416548
REMARK  5 active torsions:
REMARK  status: ('A' for Active; 'I' for Inactive)
REMARK    1  A    between atoms: C_1  and  O_2
REMARK    2  A    between atoms: O_2  and  C_3
REMARK    3  A    between atoms: C_6  and  C_10
REMARK    4  A    between atoms: C_10  and  C_12
REMARK    5  A    between atoms: C_10  and  O_22
REMARK                            x       y       z     vdW  Elec       q    Type
REMARK                         _______ _______ _______ _____ _____    ______ ____
ROOT
ATOM      1  C   UNL     1       2.588  -2.550   4.311  0.00  0.00    +0.175 C 
ENDROOT
BRANCH   1   2
ATOM      2  C   UNL     1       1.560  -3.023   5.306  0.00  0.00    -0.013 A 
ATOM      3  C   UNL     1       0.944  -4.260   5.121  0.00  0.00    +0.009 A 
ATOM      4  C   UNL     1       0.012  -4.716   6.001  0.00  0.00    +0.030 A 
ATOM      5  C   UNL     1      -0.338  -3.932   7.114  0.00  0.00    +0.089 A 
ATOM      6  C   UNL     1       0.288  -2.674   7.302  0.00  0.00    +0.090 A 
ATOM      7  C   UNL     1       1.250  -2.239   6.374  0.00  0.00    +0.036 A 
ATOM      8  N   UNL     1      -0.041  -1.924   8.359  0.00  0.00    -0.252 NA
ATOM      9  C   UNL     1      -0.940  -2.360   9.212  0.00  0.00    +0.131 A 
ATOM     10  C   UNL     1      -1.556  -3.599   9.027  0.00  0.00    +0.131 A 
ATOM     11  N   UNL     1      -1.250  -4.354   7.997  0.00  0.00    -0.252 NA
ENDBRANCH   1   2
BRANCH   1  15
ATOM     12  C   UNL     1       0.626  -0.618   1.042  0.00  0.00    +0.134 A 
ATOM     13  C   UNL     1       1.202   0.138   2.051  0.00  0.00    +0.047 A 
ATOM     14  C   UNL     1       1.836  -0.488   3.107  0.00  0.00    +0.010 A 
ATOM     15  C   UNL     1       1.896  -1.869   3.158  0.00  0.00    -0.013 A 
ATOM     16  C   UNL     1       1.323  -2.626   2.153  0.00  0.00    +0.025 A 
ATOM     17  C   UNL     1       0.682  -2.004   1.098  0.00  0.00    +0.060 A 
ATOM     18 BR   UNL     1      -0.109  -3.040  -0.272  0.00  0.00    -0.047 Br
BRANCH  12  20
ATOM     19  C   UNL     1      -0.017   1.425   0.010  0.00  0.00    +0.277 C 
ATOM     20  O   UNL     1       0.002  -0.004   0.002  0.00  0.00    -0.494 OA
ENDBRANCH  12  20
ENDBRANCH   1  15
BRANCH   1  21
ATOM     21  O   UNL     1       3.332  -3.669   3.826  0.00  0.00    -0.383 OA
ATOM     22  H   UNL     1       2.792  -4.338   3.382  0.00  0.00    +0.211 HD
ENDBRANCH   1  21
TORSDOF 4
