REMARK  Name = ZINC02697316
REMARK  9 active torsions:
REMARK  status: ('A' for Active; 'I' for Inactive)
REMARK    1  A    between atoms: C_1  and  C_2
REMARK    2  A    between atoms: C_3  and  C_29
REMARK    3  A    between atoms: C_4  and  C_23
REMARK    4  A    between atoms: C_10  and  C_11
REMARK    5  A    between atoms: C_15  and  O_18
REMARK    6  A    between atoms: C_16  and  O_17
REMARK    7  A    between atoms: O_18  and  C_19
REMARK    8  A    between atoms: C_29  and  O_31
REMARK    9  A    between atoms: O_31  and  C_32
REMARK                            x       y       z     vdW  Elec       q    Type
REMARK                         _______ _______ _______ _____ _____    ______ ____
ROOT
ATOM      1  C   UNL     1      -5.968   5.922   0.850  0.00  0.00    +0.066 C 
ATOM      2  C   UNL     1      -5.150   4.665   0.705  0.00  0.00    +0.053 C 
ATOM      3  C   UNL     1      -5.771   3.448   0.710  0.00  0.00    +0.085 C 
ATOM      4  C   UNL     1      -4.915   2.211   0.562  0.00  0.00    +0.162 C 
ATOM      5  N   UNL     1      -3.446   2.414   0.423  0.00  0.00    -0.275 N 
ATOM      6  C   UNL     1      -2.529   1.449   0.276  0.00  0.00    +0.268 A 
ATOM      7  O   UNL     1      -2.852   0.276   0.245  0.00  0.00    -0.266 OA
ATOM      8  C   UNL     1      -1.119   1.849   0.158  0.00  0.00    +0.081 A 
ATOM      9  C   UNL     1      -0.013   1.076   0.008  0.00  0.00    +0.032 C 
ATOM     10  S   UNL     1      -1.257   3.627   0.259  0.00  0.00    -0.046 S 
ATOM     11  C   UNL     1      -3.027   3.725   0.444  0.00  0.00    +0.178 A 
ATOM     12  N   UNL     1      -3.832   4.749   0.576  0.00  0.00    -0.228 NA
ENDROOT
BRANCH   9  13
ATOM     13  C   UNL     1       1.322   1.683   0.080  0.00  0.00    +0.021 A 
ATOM     14  C   UNL     1       1.490   2.947   0.661  0.00  0.00    +0.012 A 
ATOM     15  C   UNL     1       2.745   3.510   0.730  0.00  0.00    +0.004 A 
ATOM     16  C   UNL     1       3.844   2.838   0.219  0.00  0.00    +0.049 A 
ATOM     17  C   UNL     1       3.693   1.589  -0.363  0.00  0.00    +0.162 A 
ATOM     18  C   UNL     1       2.435   1.003  -0.438  0.00  0.00    +0.166 A 
BRANCH  18  19
ATOM     19  O   UNL     1       2.284  -0.220  -1.008  0.00  0.00    -0.503 OA
ATOM     20  H   UNL     1       3.159  -0.750  -1.413  0.00  0.00    +0.292 HD
ENDBRANCH  18  19
BRANCH  17  21
ATOM     21  O   UNL     1       4.777   0.937  -0.863  0.00  0.00    -0.491 OA
ATOM     22  C   UNL     1       6.040   1.598  -0.753  0.00  0.00    +0.277 C 
ENDBRANCH  17  21
ENDBRANCH   9  13
BRANCH   4  23
ATOM     23  C   UNL     1      -5.396   1.456  -0.650  0.00  0.00    -0.020 A 
ATOM     24  C   UNL     1      -5.011   1.861  -1.914  0.00  0.00    +0.006 A 
ATOM     25  C   UNL     1      -5.448   1.166  -3.026  0.00  0.00    +0.000 A 
ATOM     26  C   UNL     1      -6.278   0.071  -2.874  0.00  0.00    +0.000 A 
ATOM     27  C   UNL     1      -6.667  -0.331  -1.610  0.00  0.00    +0.000 A 
ATOM     28  C   UNL     1      -6.226   0.361  -0.498  0.00  0.00    +0.006 A 
ENDBRANCH   4  23
BRANCH   3  29
ATOM     29  C   UNL     1      -7.166   3.349   0.847  0.00  0.00    +0.339 C 
ATOM     30  O   UNL     1      -7.839   4.357   0.965  0.00  0.00    -0.245 OA
BRANCH  29  31
ATOM     31  O   UNL     1      -7.760   2.136   0.849  0.00  0.00    -0.465 OA
ATOM     32  C   UNL     1      -9.181   2.110   0.993  0.00  0.00    +0.280 C 
ENDBRANCH  29  31
ENDBRANCH   3  29
TORSDOF 6
