REMARK  Name = ZINC12624528
REMARK  8 active torsions:
REMARK  status: ('A' for Active; 'I' for Inactive)
REMARK    1  A    between atoms: C_2  and  C_3
REMARK    2  A    between atoms: C_3  and  N_4
REMARK    3  A    between atoms: C_8  and  C_10
REMARK    4  A    between atoms: C_10  and  O_11
REMARK    5  A    between atoms: O_11  and  C_12
REMARK    6  A    between atoms: C_12  and  C_14
REMARK    7  A    between atoms: C_18  and  S_20
REMARK    8  A    between atoms: S_20  and  N_23
REMARK                            x       y       z     vdW  Elec       q    Type
REMARK                         _______ _______ _______ _____ _____    ______ ____
ROOT
ATOM      1  C   UNL     1       0.658  -2.075  -1.122  0.00  0.00    +0.061 A 
ATOM      2  C   UNL     1       0.099  -2.852  -0.104  0.00  0.00    +0.018 A 
ATOM      3  C   UNL     1       0.151  -4.226  -0.182  0.00  0.00    +0.041 A 
ATOM      4  C   UNL     1       0.768  -4.839  -1.263  0.00  0.00    +0.150 A 
ATOM      5  C   UNL     1       1.330  -4.073  -2.273  0.00  0.00    +0.141 A 
ATOM      6  C   UNL     1       1.278  -2.697  -2.208  0.00  0.00    +0.046 A 
ATOM      7  F   UNL     1       0.822  -6.187  -1.332  0.00  0.00    -0.203 F 
ENDROOT
BRANCH   5   8
ATOM      8  S   UNL     1       2.111  -4.860  -3.642  0.00  0.00    +0.064 S 
ATOM      9  O   UNL     1       1.208  -5.853  -4.109  0.00  0.00    -0.153 OA
ATOM     10  O   UNL     1       2.603  -3.823  -4.480  0.00  0.00    -0.153 OA
BRANCH   8  11
ATOM     11  N   UNL     1       3.435  -5.663  -3.056  0.00  0.00    -0.176 NA
ATOM     12  C   UNL     1       4.743  -4.998  -2.984  0.00  0.00    +0.109 C 
ATOM     13  C   UNL     1       5.275  -5.119  -1.548  0.00  0.00    +0.017 C 
ATOM     14  C   UNL     1       5.297  -6.593  -1.140  0.00  0.00    +0.003 C 
ATOM     15  C   UNL     1       3.874  -7.156  -1.175  0.00  0.00    +0.017 C 
ATOM     16  C   UNL     1       3.325  -7.057  -2.602  0.00  0.00    +0.109 C 
ENDBRANCH   8  11
ENDBRANCH   5   8
BRANCH   1  17
ATOM     17  C   UNL     1       0.601  -0.602  -1.047  0.00  0.00    +0.340 C 
ATOM     18  O   UNL     1       1.093   0.071  -1.930  0.00  0.00    -0.245 OA
BRANCH  17  19
ATOM     19  O   UNL     1       0.002  -0.004   0.002  0.00  0.00    -0.452 OA
BRANCH  19  20
ATOM     20  C   UNL     1      -0.018   1.448   0.010  0.00  0.00    +0.328 C 
BRANCH  20  25
ATOM     21  N   UNL     1      -1.632   5.013   2.802  0.00  0.00    -0.296 N 
ATOM     22  C   UNL     1      -1.493   3.691   2.580  0.00  0.00    +0.306 C 
ATOM     23  O   UNL     1      -1.936   2.890   3.381  0.00  0.00    -0.252 OA
ATOM     24  N   UNL     1      -0.862   3.256   1.472  0.00  0.00    -0.237 N 
ATOM     25  C   UNL     1      -0.723   1.934   1.250  0.00  0.00    +0.258 C 
ATOM     26  O   UNL     1      -1.165   1.135   2.048  0.00  0.00    -0.272 OA
ATOM     27  H   UNL     1      -1.278   5.651   2.164  0.00  0.00    +0.151 HD
ATOM     28  H   UNL     1      -0.508   3.895   0.833  0.00  0.00    +0.159 HD
BRANCH  21  29
ATOM     29  C   UNL     1      -2.318   5.485   4.008  0.00  0.00    +0.132 C 
BRANCH  29  31
ATOM     30  C   UNL     1      -3.476   7.631   4.129  0.00  0.00    +0.005 C 
ATOM     31  C   UNL     1      -2.338   6.992   4.016  0.00  0.00    -0.016 C 
ENDBRANCH  29  31
ENDBRANCH  21  29
ENDBRANCH  20  25
ENDBRANCH  19  20
ENDBRANCH  17  19
ENDBRANCH   1  17
TORSDOF 8
