REMARK  Name = ZINC12366828
REMARK  13 active torsions:
REMARK  status: ('A' for Active; 'I' for Inactive)
REMARK    1  A    between atoms: C_1  and  C_2
REMARK    2  A    between atoms: C_2  and  C_3
REMARK    3  A    between atoms: C_2  and  C_4
REMARK    4  A    between atoms: C_2  and  O_5
REMARK    5  A    between atoms: O_5  and  C_6
REMARK    6  A    between atoms: C_9  and  S_18
REMARK    7  A    between atoms: N_10  and  C_11
REMARK    8  A    between atoms: C_11  and  O_13
REMARK    9  A    between atoms: O_13  and  C_14
REMARK   10  A    between atoms: C_14  and  C_15
REMARK   11  A    between atoms: C_14  and  C_16
REMARK   12  A    between atoms: C_14  and  C_17
REMARK   13  A    between atoms: S_18  and  C_19
REMARK                            x       y       z     vdW  Elec       q    Type
REMARK                         _______ _______ _______ _____ _____    ______ ____
ROOT
ATOM      1  C   UNL     1      -1.375  -2.661   0.257  0.00  0.00    +0.406 C 
ATOM      2  O   UNL     1      -0.179  -2.469   0.339  0.00  0.00    -0.226 OA
ATOM      3  N   UNL     1      -2.217  -1.618   0.118  0.00  0.00    -0.232 N 
ATOM      4  C   UNL     1      -1.723  -0.339   0.068  0.00  0.00    +0.158 C 
ATOM      5  N   UNL     1      -2.553   0.691   0.040  0.00  0.00    -0.122 NA
ATOM      6  H   UNL     1      -3.173  -1.771   0.053  0.00  0.00    +0.160 HD
ENDROOT
BRANCH   5   7
ATOM      7  C   UNL     1      -3.873   0.485  -0.042  0.00  0.00    +0.427 C 
ATOM      8  O   UNL     1      -4.582   0.683   0.927  0.00  0.00    -0.224 OA
BRANCH   7   9
ATOM      9  O   UNL     1      -4.418   0.057  -1.200  0.00  0.00    -0.443 OA
BRANCH   9  10
ATOM     10  C   UNL     1      -5.833  -0.142  -1.217  0.00  0.00    +0.107 C 
ATOM     11  C   UNL     1      -6.538   1.177  -0.893  0.00  0.00    +0.055 C 
ATOM     12  C   UNL     1      -6.265  -0.623  -2.603  0.00  0.00    +0.055 C 
ATOM     13  C   UNL     1      -6.212  -1.193  -0.171  0.00  0.00    +0.055 C 
ENDBRANCH   9  10
ENDBRANCH   7   9
ENDBRANCH   5   7
BRANCH   4  14
ATOM     14  S   UNL     1       0.018  -0.068   0.040  0.00  0.00    -0.096 S 
ATOM     15  C   UNL     1       0.054   1.740  -0.025  0.00  0.00    +0.092 C 
ENDBRANCH   4  14
BRANCH   1  16
ATOM     16  O   UNL     1      -1.861  -3.916   0.307  0.00  0.00    -0.444 OA
BRANCH  16  18
ATOM     17  C   UNL     1      -0.119  -4.798   1.762  0.00  0.00    +0.055 C 
ATOM     18  C   UNL     1      -0.896  -4.990   0.458  0.00  0.00    +0.107 C 
ATOM     19  C   UNL     1      -1.629  -6.333   0.494  0.00  0.00    +0.055 C 
ATOM     20  C   UNL     1       0.077  -4.972  -0.722  0.00  0.00    +0.055 C 
ENDBRANCH  16  18
ENDBRANCH   1  16
TORSDOF 6
