REMARK  Name = ZINC47028908
REMARK  7 active torsions:
REMARK  status: ('A' for Active; 'I' for Inactive)
REMARK    1  A    between atoms: C_1  and  C_2
REMARK    2  A    between atoms: C_2  and  C_4
REMARK    3  A    between atoms: C_2  and  N_10
REMARK    4  A    between atoms: C_4  and  N_5
REMARK    5  A    between atoms: N_13  and  N_14
REMARK    6  A    between atoms: C_15  and  C_17
REMARK    7  A    between atoms: C_17  and  C_18
REMARK                            x       y       z     vdW  Elec       q    Type
REMARK                         _______ _______ _______ _____ _____    ______ ____
ROOT
ATOM      1  N   UNL     1      -1.372  -0.511   0.012  0.00  0.00    -0.294 N 
ATOM      2  C   UNL     1      -2.051  -0.643  -1.145  0.00  0.00    +0.316 C 
ATOM      3  O   UNL     1      -1.522  -0.341  -2.197  0.00  0.00    -0.251 OA
ATOM      4  N   UNL     1      -3.315  -1.109  -1.135  0.00  0.00    -0.218 N 
ATOM      5  H   UNL     1      -1.794  -0.752   0.852  0.00  0.00    +0.151 HD
ATOM      6  H   UNL     1      -3.804  -1.204  -1.968  0.00  0.00    +0.174 HD
ENDROOT
BRANCH   4   7
ATOM      7  N   UNL     1      -3.924  -1.457   0.078  0.00  0.00    -0.233 N 
ATOM      8  C   UNL     1      -5.189  -1.924   0.087  0.00  0.00    +0.233 C 
ATOM      9  O   UNL     1      -5.799  -2.042  -0.954  0.00  0.00    -0.274 OA
ATOM     10  H   UNL     1      -3.436  -1.363   0.910  0.00  0.00    +0.173 HD
BRANCH   8  11
ATOM     11  C   UNL     1      -5.844  -2.298   1.392  0.00  0.00    +0.132 C 
BRANCH  11  12
ATOM     12  C   UNL     1      -7.245  -2.787   1.128  0.00  0.00    -0.038 A 
ATOM     13  C   UNL     1      -8.298  -1.892   1.116  0.00  0.00    +0.005 A 
ATOM     14  C   UNL     1      -9.583  -2.340   0.874  0.00  0.00    +0.020 A 
ATOM     15  C   UNL     1      -9.815  -3.684   0.644  0.00  0.00    +0.041 A 
ATOM     16  C   UNL     1      -8.761  -4.580   0.657  0.00  0.00    +0.020 A 
ATOM     17  C   UNL     1      -7.475  -4.130   0.893  0.00  0.00    +0.005 A 
ATOM     18 CL   UNL     1     -11.429  -4.247   0.341  0.00  0.00    -0.084 Cl
ENDBRANCH  11  12
ENDBRANCH   8  11
ENDBRANCH   4   7
BRANCH   1  20
ATOM     19  C   UNL     1      -0.019   1.526   0.010  0.00  0.00    +0.029 C 
ATOM     20  C   UNL     1       0.002  -0.004   0.002  0.00  0.00    +0.091 C 
BRANCH  20  21
ATOM     21  C   UNL     1       0.742  -0.511   1.242  0.00  0.00    +0.144 C 
BRANCH  21  22
ATOM     22  N   UNL     1       0.866  -1.969   1.174  0.00  0.00    -0.337 N 
ATOM     23  C   UNL     1      -0.028  -2.884   1.661  0.00  0.00    +0.104 A 
ATOM     24  C   UNL     1       0.474  -4.103   1.387  0.00  0.00    +0.101 A 
ATOM     25  N   UNL     1       1.643  -3.937   0.750  0.00  0.00    -0.352 N 
ATOM     26  C   UNL     1       1.882  -2.662   0.614  0.00  0.00    +0.173 A 
ATOM     27  H   UNL     1       2.218  -4.653   0.436  0.00  0.00    +0.166 HD
ENDBRANCH  21  22
ENDBRANCH  20  21
ENDBRANCH   1  20
TORSDOF 6
