REMARK  Name = ZINC43631863
REMARK  7 active torsions:
REMARK  status: ('A' for Active; 'I' for Inactive)
REMARK    1  A    between atoms: C_1  and  C_2
REMARK    2  A    between atoms: C_3  and  C_16
REMARK    3  A    between atoms: N_6  and  C_7
REMARK    4  A    between atoms: N_9  and  C_10
REMARK    5  A    between atoms: C_10  and  C_11
REMARK    6  A    between atoms: C_11  and  C_12
REMARK    7  A    between atoms: C_12  and  O_13
REMARK                            x       y       z     vdW  Elec       q    Type
REMARK                         _______ _______ _______ _____ _____    ______ ____
ROOT
ATOM      1  C   UNL     1      -0.033   1.448   0.527  0.00  0.00    +0.064 C 
ATOM      2  C   UNL     1      -0.004  -0.027   0.221  0.00  0.00    +0.029 A 
ATOM      3  C   UNL     1      -1.141  -0.726   0.004  0.00  0.00    +0.041 A 
ATOM      4  S   UNL     1      -0.512  -2.367  -0.299  0.00  0.00    -0.052 S 
ATOM      5  C   UNL     1       1.130  -2.047  -0.128  0.00  0.00    +0.165 A 
ATOM      6  N   UNL     1       2.151  -2.893  -0.240  0.00  0.00    -0.139 NA
ATOM      7  N   UNL     1       1.164  -0.713   0.147  0.00  0.00    -0.339 N 
ATOM      8  H   UNL     1       2.011  -0.262   0.291  0.00  0.00    +0.167 HD
ENDROOT
BRANCH   3   9
ATOM      9  C   UNL     1      -2.542  -0.252   0.014  0.00  0.00    -0.010 A 
ATOM     10  C   UNL     1      -2.894   0.910  -0.674  0.00  0.00    +0.009 A 
ATOM     11  C   UNL     1      -4.203   1.346  -0.660  0.00  0.00    +0.001 A 
ATOM     12  C   UNL     1      -5.165   0.635   0.034  0.00  0.00    +0.000 A 
ATOM     13  C   UNL     1      -4.822  -0.518   0.718  0.00  0.00    +0.001 A 
ATOM     14  C   UNL     1      -3.518  -0.968   0.707  0.00  0.00    +0.009 A 
ENDBRANCH   3   9
BRANCH   6  15
ATOM     15  C   UNL     1       1.925  -4.179  -0.522  0.00  0.00    +0.325 C 
ATOM     16  O   UNL     1       0.784  -4.578  -0.677  0.00  0.00    -0.251 OA
ATOM     17  N   UNL     1       2.960  -5.036  -0.635  0.00  0.00    -0.298 N 
ATOM     18  H   UNL     1       3.868  -4.719  -0.511  0.00  0.00    +0.150 HD
BRANCH  17  19
ATOM     19  C   UNL     1       2.712  -6.446  -0.944  0.00  0.00    +0.108 C 
BRANCH  19  20
ATOM     20  C   UNL     1       4.045  -7.194  -1.016  0.00  0.00    +0.046 C 
BRANCH  20  21
ATOM     21  C   UNL     1       3.786  -8.667  -1.339  0.00  0.00    +0.157 C 
BRANCH  21  22
ATOM     22  O   UNL     1       5.031  -9.366  -1.405  0.00  0.00    -0.395 OA
ATOM     23  H   UNL     1       4.943 -10.308  -1.607  0.00  0.00    +0.209 HD
ENDBRANCH  21  22
ENDBRANCH  20  21
ENDBRANCH  19  20
ENDBRANCH  17  19
ENDBRANCH   6  15
TORSDOF 6
