REMARK  Name = ZINC36753954
REMARK  12 active torsions:
REMARK  status: ('A' for Active; 'I' for Inactive)
REMARK    1  A    between atoms: C_1  and  C_2
REMARK    2  A    between atoms: C_2  and  C_3
REMARK    3  A    between atoms: C_3  and  C_4
REMARK    4  A    between atoms: C_4  and  N_5
REMARK    5  A    between atoms: C_6  and  N_34
REMARK    6  A    between atoms: C_7  and  N_14
REMARK    7  A    between atoms: N_14  and  C_15
REMARK    8  A    between atoms: N_14  and  C_27
REMARK    9  A    between atoms: C_15  and  C_16
REMARK   10  A    between atoms: C_16  and  C_17
REMARK   11  A    between atoms: N_19  and  C_20
REMARK   12  A    between atoms: C_27  and  C_28
REMARK                            x       y       z     vdW  Elec       q    Type
REMARK                         _______ _______ _______ _____ _____    ______ ____
ROOT
ATOM      1  N   UNL     1       4.911  -3.513   3.503  0.00  0.00    -0.318 N 
ENDROOT
BRANCH   1   4
ATOM      2  N   UNL     1       1.310  -3.811   2.863  0.00  0.00    -0.280 N 
ATOM      3  C   UNL     1       2.667  -4.021   2.767  0.00  0.00    +0.127 A 
ATOM      4  C   UNL     1       3.513  -3.317   3.580  0.00  0.00    +0.134 A 
ATOM      5  C   UNL     1       2.971  -2.395   4.494  0.00  0.00    +0.277 A 
ATOM      6  O   UNL     1       3.706  -1.756   5.229  0.00  0.00    -0.266 OA
ATOM      7  N   UNL     1       1.636  -2.222   4.553  0.00  0.00    -0.273 N 
ATOM      8  H   UNL     1       1.261  -1.587   5.182  0.00  0.00    +0.173 HD
ATOM      9  C   UNL     1       0.819  -2.919   3.743  0.00  0.00    +0.331 A 
ATOM     10  O   UNL     1      -0.383  -2.744   3.810  0.00  0.00    -0.246 OA
BRANCH   3  11
ATOM     11  N   UNL     1       3.168  -4.930   1.863  0.00  0.00    -0.343 N 
ATOM     12  H   UNL     1       2.562  -5.477   1.340  0.00  0.00    +0.144 HD
ATOM     13  H   UNL     1       4.126  -5.023   1.750  0.00  0.00    +0.144 HD
ENDBRANCH   3  11
BRANCH   2  14
ATOM     14  C   UNL     1       0.395  -4.559   1.997  0.00  0.00    +0.128 C 
BRANCH  14  15
ATOM     15  C   UNL     1       0.172  -3.782   0.698  0.00  0.00    +0.021 C 
BRANCH  15  17
ATOM     16  C   UNL     1      -1.006  -3.786  -1.506  0.00  0.00    +0.004 C 
ATOM     17  C   UNL     1      -0.783  -4.563  -0.206  0.00  0.00    -0.002 C 
ENDBRANCH  15  17
ENDBRANCH  14  15
ENDBRANCH   2  14
ENDBRANCH   1   4
BRANCH   1  18
ATOM     18  C   UNL     1       5.635  -4.085   4.641  0.00  0.00    +0.115 C 
BRANCH  18  19
ATOM     19  C   UNL     1       5.780  -5.596   4.447  0.00  0.00    +0.115 C 
BRANCH  19  20
ATOM     20  C   UNL     1       6.524  -6.184   5.618  0.00  0.00    +0.219 C 
ATOM     21  O   UNL     1       6.901  -5.465   6.519  0.00  0.00    -0.275 OA
ATOM     22  N   UNL     1       6.770  -7.508   5.663  0.00  0.00    -0.284 N 
ATOM     23  H   UNL     1       6.542  -8.070   4.907  0.00  0.00    +0.155 HD
BRANCH  22  24
ATOM     24  C   UNL     1       7.355  -8.072   6.803  0.00  0.00    +0.052 A 
ATOM     25  C   UNL     1       7.065  -7.559   8.060  0.00  0.00    +0.025 A 
ATOM     26  C   UNL     1       7.644  -8.118   9.183  0.00  0.00    +0.002 A 
ATOM     27  C   UNL     1       8.510  -9.188   9.057  0.00  0.00    +0.002 A 
ATOM     28  C   UNL     1       8.801  -9.702   7.807  0.00  0.00    +0.022 A 
ATOM     29  C   UNL     1       8.222  -9.151   6.679  0.00  0.00    +0.062 A 
ATOM     30 CL   UNL     1       8.581  -9.802   5.111  0.00  0.00    -0.082 Cl
ENDBRANCH  22  24
ENDBRANCH  19  20
ENDBRANCH  18  19
ENDBRANCH   1  18
BRANCH   1  31
ATOM     31  C   UNL     1       5.636  -3.145   2.284  0.00  0.00    +0.140 C 
BRANCH  31  32
ATOM     32  C   UNL     1       5.994  -1.682   2.335  0.00  0.00    -0.030 A 
ATOM     33  C   UNL     1       5.078  -0.732   1.923  0.00  0.00    +0.005 A 
ATOM     34  C   UNL     1       5.406   0.610   1.969  0.00  0.00    +0.000 A 
ATOM     35  C   UNL     1       6.649   1.002   2.428  0.00  0.00    +0.000 A 
ATOM     36  C   UNL     1       7.565   0.052   2.841  0.00  0.00    +0.000 A 
ATOM     37  C   UNL     1       7.236  -1.289   2.799  0.00  0.00    +0.005 A 
ENDBRANCH  31  32
ENDBRANCH   1  31
TORSDOF 11
