REMARK  Name = ZINC10249041
REMARK  8 active torsions:
REMARK  status: ('A' for Active; 'I' for Inactive)
REMARK    1  A    between atoms: C_1  and  C_2
REMARK    2  A    between atoms: C_2  and  N_58
REMARK    3  A    between atoms: N_12  and  C_13
REMARK    4  A    between atoms: C_13  and  C_14
REMARK    5  A    between atoms: C_14  and  C_15
REMARK    6  A    between atoms: C_15  and  S_16
REMARK    7  A    between atoms: S_16  and  C_17
REMARK    8  A    between atoms: N_30  and  C_31
REMARK                            x       y       z     vdW  Elec       q    Type
REMARK                         _______ _______ _______ _____ _____    ______ ____
ROOT
ATOM      1  C   UNL     1      -0.874   1.900  -0.836  0.00  0.00    -0.060 C 
ATOM      2  C   UNL     1      -1.626   2.424   0.389  0.00  0.00    +0.089 C 
ATOM      3  N   UNL     1      -0.692   3.153   1.258  0.00  0.00    -0.304 N 
ATOM      4  C   UNL     1      -0.081   4.281   0.542  0.00  0.00    +0.089 C 
ATOM      5  C   UNL     1       0.671   3.757  -0.684  0.00  0.00    -0.060 C 
ATOM      6  C   UNL     1      -1.318   3.580   2.407  0.00  0.00    +0.201 A 
ATOM      7  N   UNL     1      -2.324   4.430   2.455  0.00  0.00    -0.196 NA
ATOM      8  C   UNL     1      -2.694   4.626   3.722  0.00  0.00    +0.170 A 
ATOM      9  C   UNL     1      -1.867   3.849   4.526  0.00  0.00    +0.153 A 
ATOM     10  N   UNL     1      -1.000   3.185   3.668  0.00  0.00    -0.306 N 
ATOM     11  C   UNL     1      -2.046   3.872   5.920  0.00  0.00    +0.280 A 
ATOM     12  O   UNL     1      -1.333   3.200   6.644  0.00  0.00    -0.265 OA
ATOM     13  N   UNL     1      -3.016   4.647   6.448  0.00  0.00    -0.273 N 
ATOM     14  H   UNL     1      -3.147   4.666   7.439  0.00  0.00    +0.173 HD
ATOM     15  C   UNL     1      -3.810   5.395   5.662  0.00  0.00    +0.331 A 
ATOM     16  O   UNL     1      -4.674   6.081   6.173  0.00  0.00    -0.246 OA
ATOM     17  N   UNL     1      -3.672   5.402   4.323  0.00  0.00    -0.280 N 
ATOM     18  C   UNL     1      -4.557   6.231   3.500  0.00  0.00    +0.155 C 
ATOM     19  N   UNL     1      -0.283   3.045  -1.560  0.00  0.00    +0.382 N 
ATOM     20  H   UNL     1      -1.034   3.692  -1.830  0.00  0.00    -0.082 HD
ENDROOT
BRANCH  19  22
ATOM     21  C   UNL     1       0.810   3.785  -3.620  0.00  0.00    -0.017 C 
ATOM     22  C   UNL     1       0.406   2.572  -2.779  0.00  0.00    -0.082 C 
ENDBRANCH  19  22
BRANCH  10  23
ATOM     23  C   UNL     1       0.056   2.244   4.049  0.00  0.00    +0.126 C 
BRANCH  23  24
ATOM     24  C   UNL     1       1.349   3.013   4.328  0.00  0.00    +0.033 C 
BRANCH  24  25
ATOM     25  C   UNL     1       2.451   2.030   4.726  0.00  0.00    +0.076 C 
BRANCH  25  26
ATOM     26  S   UNL     1       3.985   2.941   5.056  0.00  0.00    -0.125 S 
BRANCH  26  27
ATOM     27  C   UNL     1       5.141   1.686   5.495  0.00  0.00    +0.008 A 
ATOM     28  C   UNL     1       4.745   0.354   5.524  0.00  0.00    +0.016 A 
ATOM     29  C   UNL     1       5.655  -0.627   5.863  0.00  0.00    +0.021 A 
ATOM     30  C   UNL     1       6.956  -0.285   6.186  0.00  0.00    +0.041 A 
ATOM     31  C   UNL     1       7.352   1.041   6.164  0.00  0.00    +0.021 A 
ATOM     32  C   UNL     1       6.448   2.027   5.820  0.00  0.00    +0.016 A 
ATOM     33 CL   UNL     1       8.096  -1.522   6.618  0.00  0.00    -0.084 Cl
ENDBRANCH  26  27
ENDBRANCH  25  26
ENDBRANCH  24  25
ENDBRANCH  23  24
ENDBRANCH  10  23
TORSDOF 6
