REMARK  Name = ZINC37627995
REMARK  8 active torsions:
REMARK  status: ('A' for Active; 'I' for Inactive)
REMARK    1  A    between atoms: C_1  and  C_2
REMARK    2  A    between atoms: C_2  and  C_3
REMARK    3  A    between atoms: C_3  and  C_5
REMARK    4  A    between atoms: C_3  and  N_12
REMARK    5  A    between atoms: C_13  and  C_15
REMARK    6  A    between atoms: C_15  and  C_17
REMARK    7  A    between atoms: C_15  and  N_21
REMARK    8  A    between atoms: C_17  and  C_18
REMARK                            x       y       z     vdW  Elec       q    Type
REMARK                         _______ _______ _______ _____ _____    ______ ____
ROOT
ATOM      1  N   UNL     1       2.148  -0.104   1.172  0.00  0.00    -0.310 N 
ATOM      2  C   UNL     1       2.518   1.116   1.608  0.00  0.00    +0.199 C 
ATOM      3  O   UNL     1       1.688   1.877   2.059  0.00  0.00    -0.278 OA
ATOM      4  H   UNL     1       2.812  -0.712   0.811  0.00  0.00    +0.149 HD
ENDROOT
BRANCH   1   5
ATOM      5  C   UNL     1       0.742  -0.511   1.242  0.00  0.00    +0.103 C 
BRANCH   5   6
ATOM      6  C   UNL     1       0.657  -2.014   1.298  0.00  0.00    -0.027 A 
ATOM      7  C   UNL     1       1.506  -2.784   0.525  0.00  0.00    +0.007 A 
ATOM      8  C   UNL     1       1.428  -4.163   0.576  0.00  0.00    +0.020 A 
ATOM      9  C   UNL     1       0.500  -4.773   1.401  0.00  0.00    +0.041 A 
ATOM     10  C   UNL     1      -0.350  -4.002   2.174  0.00  0.00    +0.020 A 
ATOM     11  C   UNL     1      -0.267  -2.623   2.126  0.00  0.00    +0.007 A 
ATOM     12 CL   UNL     1       0.401  -6.505   1.465  0.00  0.00    -0.084 Cl
ENDBRANCH   5   6
BRANCH   5  14
ATOM     13  C   UNL     1      -0.019   1.526   0.010  0.00  0.00    +0.006 C 
ATOM     14  C   UNL     1       0.002  -0.004   0.002  0.00  0.00    +0.024 C 
ENDBRANCH   5  14
ENDBRANCH   1   5
BRANCH   2  15
ATOM     15  C   UNL     1       3.964   1.535   1.536  0.00  0.00    +0.021 C 
BRANCH  15  16
ATOM     16  N   UNL     1       4.199   2.646   2.469  0.00  0.00    +0.386 N 
ATOM     17  H   UNL     1       3.982   2.348   3.408  0.00  0.00    -0.089 HD
ATOM     18  H   UNL     1       5.168   2.926   2.420  0.00  0.00    -0.089 HD
ATOM     19  H   UNL     1       3.611   3.425   2.218  0.00  0.00    -0.089 HD
ENDBRANCH  15  16
BRANCH  15  20
ATOM     20  C   UNL     1       4.294   1.986   0.112  0.00  0.00    +0.088 C 
BRANCH  20  21
ATOM     21  C   UNL     1       5.767   2.288   0.009  0.00  0.00    +0.209 C 
ATOM     22  O   UNL     1       6.482   2.155   0.980  0.00  0.00    -0.276 OA
ATOM     23  N   UNL     1       6.290   2.705  -1.161  0.00  0.00    -0.329 N 
ATOM     24  H   UNL     1       5.718   2.812  -1.937  0.00  0.00    +0.145 HD
ATOM     25  H   UNL     1       7.238   2.900  -1.227  0.00  0.00    +0.145 HD
ENDBRANCH  20  21
ENDBRANCH  15  20
ENDBRANCH   2  15
TORSDOF 7
