REMARK  Name = ZINC46670046
REMARK  10 active torsions:
REMARK  status: ('A' for Active; 'I' for Inactive)
REMARK    1  A    between atoms: C_1  and  C_2
REMARK    2  A    between atoms: C_2  and  O_3
REMARK    3  A    between atoms: O_3  and  C_4
REMARK    4  A    between atoms: N_6  and  C_7
REMARK    5  A    between atoms: C_7  and  C_9
REMARK    6  A    between atoms: C_7  and  C_12
REMARK    7  A    between atoms: C_9  and  C_10
REMARK    8  A    between atoms: C_9  and  C_11
REMARK    9  A    between atoms: N_14  and  N_15
REMARK   10  A    between atoms: C_16  and  C_18
REMARK                            x       y       z     vdW  Elec       q    Type
REMARK                         _______ _______ _______ _____ _____    ______ ____
ROOT
ATOM      1  C   UNL     1      -4.265  -4.155  -0.535  0.00  0.00    +0.250 C 
ATOM      2  O   UNL     1      -4.968  -3.291  -1.015  0.00  0.00    -0.272 OA
ATOM      3  N   UNL     1      -4.700  -5.431  -0.492  0.00  0.00    -0.233 N 
ATOM      4  H   UNL     1      -4.111  -6.133  -0.175  0.00  0.00    +0.173 HD
ENDROOT
BRANCH   3   5
ATOM      5  N   UNL     1      -6.002  -5.741  -0.906  0.00  0.00    -0.229 N 
ATOM      6  C   UNL     1      -6.436  -7.016  -0.863  0.00  0.00    +0.276 C 
ATOM      7  O   UNL     1      -5.697  -7.898  -0.465  0.00  0.00    -0.267 OA
ATOM      8  H   UNL     1      -6.591  -5.038  -1.222  0.00  0.00    +0.173 HD
BRANCH   6   9
ATOM      9  C   UNL     1      -7.799  -7.341  -1.296  0.00  0.00    +0.104 A 
ATOM     10  C   UNL     1      -8.376  -8.594  -1.300  0.00  0.00    +0.047 A 
ATOM     11  C   UNL     1      -9.679  -8.445  -1.787  0.00  0.00    +0.036 A 
ATOM     12  C   UNL     1      -9.871  -7.133  -2.065  0.00  0.00    +0.098 A 
ATOM     13  N   UNL     1      -8.738  -6.451  -1.765  0.00  0.00    -0.356 N 
ATOM     14  H   UNL     1      -8.610  -5.495  -1.867  0.00  0.00    +0.166 HD
ATOM     15 BR   UNL     1     -10.947  -9.829  -2.017  0.00  0.00    -0.049 Br
ENDBRANCH   6   9
ENDBRANCH   3   5
BRANCH   1  16
ATOM     16  C   UNL     1      -2.906  -3.804   0.013  0.00  0.00    +0.166 C 
BRANCH  16  19
ATOM     17  C   UNL     1      -1.152  -2.242  -0.635  0.00  0.00    +0.401 C 
ATOM     18  O   UNL     1      -0.331  -3.046  -0.240  0.00  0.00    -0.226 OA
ATOM     19  N   UNL     1      -2.467  -2.526  -0.553  0.00  0.00    -0.270 N 
ATOM     20  H   UNL     1      -3.123  -1.884  -0.868  0.00  0.00    +0.153 HD
BRANCH  17  21
ATOM     21  O   UNL     1      -0.749  -1.068  -1.155  0.00  0.00    -0.451 OA
BRANCH  21  23
ATOM     22  C   UNL     1       0.924   0.542  -1.829  0.00  0.00    +0.048 C 
ATOM     23  C   UNL     1       0.660  -0.833  -1.212  0.00  0.00    +0.230 C 
ENDBRANCH  21  23
ENDBRANCH  17  21
ENDBRANCH  16  19
BRANCH  16  24
ATOM     24  C   UNL     1      -2.986  -3.686   1.537  0.00  0.00    +0.012 C 
ATOM     25  C   UNL     1      -1.586  -3.444   2.104  0.00  0.00    +0.009 C 
ATOM     26  C   UNL     1      -3.897  -2.515   1.911  0.00  0.00    +0.009 C 
ENDBRANCH  16  24
ENDBRANCH   1  16
TORSDOF 7
