REMARK  Name = ZINC02108130
REMARK  6 active torsions:
REMARK  status: ('A' for Active; 'I' for Inactive)
REMARK    1  A    between atoms: C_1  and  C_2
REMARK    2  A    between atoms: C_2  and  C_3
REMARK    3  A    between atoms: C_3  and  C_5
REMARK    4  A    between atoms: C_3  and  N_6
REMARK    5  A    between atoms: C_26  and  C_28
REMARK    6  A    between atoms: C_32  and  C_34
REMARK                            x       y       z     vdW  Elec       q    Type
REMARK                         _______ _______ _______ _____ _____    ______ ____
ROOT
ATOM      1  N   UNL     1       2.430  -0.025  -0.212  0.00  0.00    -0.288 N 
ATOM      2  C   UNL     1       1.232  -0.840  -0.097  0.00  0.00    +0.204 C 
ATOM      3  C   UNL     1      -0.005  -0.009   0.002  0.00  0.00    +0.234 C 
ATOM      4  O   UNL     1      -1.069  -0.585   0.081  0.00  0.00    -0.274 OA
ATOM      5  N   UNL     1      -0.018   1.326   0.008  0.00  0.00    -0.276 N 
ATOM      6  C   UNL     1       1.198   2.138  -0.002  0.00  0.00    +0.167 C 
ATOM      7  C   UNL     1       2.427   1.306  -0.172  0.00  0.00    +0.237 C 
ATOM      8  O   UNL     1       3.490   1.880  -0.281  0.00  0.00    -0.274 OA
ATOM      9  C   UNL     1       1.286   2.928   1.312  0.00  0.00    +0.069 C 
ATOM     10  C   UNL     1      -0.062   3.534   1.606  0.00  0.00    -0.015 A 
ATOM     11  C   UNL     1      -0.381   4.614   2.519  0.00  0.00    +0.003 A 
ATOM     12  C   UNL     1       0.404   5.398   3.370  0.00  0.00    +0.010 A 
ATOM     13  C   UNL     1      -0.248   6.354   4.109  0.00  0.00    +0.001 A 
ATOM     14  C   UNL     1      -1.619   6.541   4.026  0.00  0.00    +0.002 A 
ATOM     15  C   UNL     1      -2.419   5.779   3.192  0.00  0.00    +0.026 A 
ATOM     16  C   UNL     1      -1.784   4.801   2.429  0.00  0.00    +0.047 A 
ATOM     17  N   UNL     1      -2.258   3.894   1.526  0.00  0.00    -0.356 N 
ATOM     18  H   UNL     1      -3.188   3.797   1.268  0.00  0.00    +0.166 HD
ATOM     19  C   UNL     1      -1.223   3.141   1.039  0.00  0.00    +0.046 A 
ATOM     20  C   UNL     1      -1.319   2.030   0.018  0.00  0.00    +0.154 C 
ENDROOT
BRANCH  20  21
ATOM     21  C   UNL     1      -1.598   2.609  -1.345  0.00  0.00    -0.021 A 
ATOM     22  C   UNL     1      -0.793   3.615  -1.847  0.00  0.00    +0.006 A 
ATOM     23  C   UNL     1      -1.046   4.142  -3.099  0.00  0.00    +0.001 A 
ATOM     24  C   UNL     1      -2.111   3.672  -3.845  0.00  0.00    +0.003 A 
ATOM     25  C   UNL     1      -2.919   2.670  -3.341  0.00  0.00    -0.050 A 
ATOM     26  C   UNL     1      -2.662   2.139  -2.091  0.00  0.00    +0.009 A 
ATOM     27  C   UNL     1      -4.080   2.157  -4.154  0.00  0.00    +0.044 C 
ENDBRANCH  20  21
BRANCH   1  28
ATOM     28  C   UNL     1       3.716  -0.707  -0.382  0.00  0.00    +0.073 C 
ATOM     29  C   UNL     1       3.971  -1.620   0.820  0.00  0.00    +0.028 C 
BRANCH  28  31
ATOM     30  C   UNL     1       3.552  -0.621  -2.873  0.00  0.00    +0.005 C 
ATOM     31  C   UNL     1       3.683  -1.546  -1.661  0.00  0.00    +0.019 C 
ENDBRANCH  28  31
ENDBRANCH   1  28
TORSDOF 3
