REMARK  Name = ZINC39450516
REMARK  6 active torsions:
REMARK  status: ('A' for Active; 'I' for Inactive)
REMARK    1  A    between atoms: C_4  and  C_7
REMARK    2  A    between atoms: C_7  and  C_8
REMARK    3  A    between atoms: N_14  and  S_17
REMARK    4  A    between atoms: S_17  and  O_20
REMARK    5  A    between atoms: O_20  and  C_21
REMARK    6  A    between atoms: C_30  and  O_33
REMARK                            x       y       z     vdW  Elec       q    Type
REMARK                         _______ _______ _______ _____ _____    ______ ____
ROOT
ATOM      1  C   UNL     1       4.282  -1.027   1.331  0.00  0.00    -0.024 A 
ATOM      2  C   UNL     1       5.074  -0.099   1.985  0.00  0.00    +0.021 A 
ATOM      3  C   UNL     1       5.406  -0.344   3.318  0.00  0.00    +0.069 A 
ATOM      4  C   UNL     1       4.928  -1.516   3.942  0.00  0.00    +0.099 A 
ATOM      5  C   UNL     1       5.292  -1.752   5.347  0.00  0.00    +0.085 A 
ATOM      6  C   UNL     1       6.084  -0.837   6.013  0.00  0.00    +0.137 A 
ATOM      7  N   UNL     1       6.540   0.310   5.376  0.00  0.00    -0.141 N 
ATOM      8  C   UNL     1       6.241   0.584   4.093  0.00  0.00    +0.283 A 
ATOM      9  O   UNL     1       6.663   1.601   3.573  0.00  0.00    -0.265 OA
ATOM     10  C   UNL     1       6.444  -1.068   7.361  0.00  0.00    +0.187 C 
ATOM     11  O   UNL     1       7.099  -0.239   7.960  0.00  0.00    -0.290 OA
ATOM     12  C   UNL     1       6.021  -2.333   8.062  0.00  0.00    +0.132 C 
ATOM     13  C   UNL     1       4.697  -2.825   7.467  0.00  0.00    +0.207 C 
ATOM     14  N   UNL     1       4.842  -2.881   6.004  0.00  0.00    -0.316 N 
ATOM     15  N   UNL     1       4.172  -2.372   3.267  0.00  0.00    -0.253 NA
ATOM     16  C   UNL     1       3.844  -2.155   2.011  0.00  0.00    +0.115 A 
ATOM     17  H   UNL     1       4.627  -3.690   5.514  0.00  0.00    +0.149 HD
ENDROOT
BRANCH   7  18
ATOM     18  S   UNL     1       7.482   1.377   6.223  0.00  0.00    +0.224 S 
ATOM     19  O   UNL     1       7.943   2.343   5.289  0.00  0.00    -0.113 OA
ATOM     20  O   UNL     1       6.747   1.732   7.386  0.00  0.00    -0.113 OA
BRANCH  18  21
ATOM     21  O   UNL     1       8.708   0.613   6.701  0.00  0.00    -0.329 OA
BRANCH  21  22
ATOM     22  C   UNL     1       9.619   0.363   5.723  0.00  0.00    +0.158 A 
ATOM     23  C   UNL     1       9.531  -0.800   4.972  0.00  0.00    +0.048 A 
ATOM     24  C   UNL     1      10.457  -1.052   3.979  0.00  0.00    +0.004 A 
ATOM     25  C   UNL     1      11.472  -0.145   3.733  0.00  0.00    +0.000 A 
ATOM     26  C   UNL     1      11.562   1.014   4.480  0.00  0.00    +0.004 A 
ATOM     27  C   UNL     1      10.635   1.273   5.470  0.00  0.00    +0.048 A 
ENDBRANCH  21  22
ENDBRANCH  18  21
ENDBRANCH   7  18
BRANCH  13  28
ATOM     28  O   UNL     1       3.647  -1.919   7.814  0.00  0.00    -0.374 OA
ATOM     29  H   UNL     1       2.780  -2.171   7.468  0.00  0.00    +0.212 HD
ENDBRANCH  13  28
BRANCH   1  30
ATOM     30  C   UNL     1       3.893  -0.811  -0.108  0.00  0.00    +0.071 C 
BRANCH  30  34
ATOM     31  C   UNL     1       0.234   1.388  -0.281  0.00  0.00    +0.000 A 
ATOM     32  C   UNL     1       1.443   2.058  -0.266  0.00  0.00    +0.000 A 
ATOM     33  C   UNL     1       2.627   1.346  -0.209  0.00  0.00    +0.004 A 
ATOM     34  C   UNL     1       2.602  -0.035  -0.169  0.00  0.00    -0.043 A 
ATOM     35  C   UNL     1       1.393  -0.705  -0.183  0.00  0.00    +0.004 A 
ATOM     36  C   UNL     1       0.209   0.006  -0.241  0.00  0.00    +0.000 A 
ENDBRANCH  30  34
ENDBRANCH   1  30
TORSDOF 6
