REMARK  Name = ZINC57784639
REMARK  7 active torsions:
REMARK  status: ('A' for Active; 'I' for Inactive)
REMARK    1  A    between atoms: C_1  and  N_2
REMARK    2  A    between atoms: N_2  and  C_3
REMARK    3  A    between atoms: N_2  and  C_4
REMARK    4  A    between atoms: C_7  and  N_10
REMARK    5  A    between atoms: N_10  and  C_11
REMARK    6  A    between atoms: C_11  and  C_12
REMARK    7  A    between atoms: C_16  and  N_18
REMARK                            x       y       z     vdW  Elec       q    Type
REMARK                         _______ _______ _______ _____ _____    ______ ____
ROOT
ATOM      1  N   UNL     1       2.692  -1.847   4.508  0.00  0.00    -0.340 N 
ATOM      2  H   UNL     1       3.618  -1.598   4.655  0.00  0.00    +0.146 HD
ENDROOT
BRANCH   1   6
ATOM      3  C   UNL     1       0.678  -0.467   1.135  0.00  0.00    +0.013 A 
ATOM      4  C   UNL     1       1.998  -0.111   1.344  0.00  0.00    +0.023 A 
ATOM      5  C   UNL     1       2.669  -0.566   2.462  0.00  0.00    +0.025 A 
ATOM      6  C   UNL     1       2.017  -1.384   3.376  0.00  0.00    +0.027 A 
ATOM      7  C   UNL     1       0.691  -1.740   3.163  0.00  0.00    +0.025 A 
ATOM      8  C   UNL     1       0.024  -1.276   2.046  0.00  0.00    +0.023 A 
BRANCH   3  10
ATOM      9  C   UNL     1      -0.018   1.465   0.010  0.00  0.00    +0.106 C 
ATOM     10  N   UNL     1       0.002  -0.004   0.002  0.00  0.00    -0.398 NA
ATOM     11  C   UNL     1       0.690  -0.478  -1.207  0.00  0.00    +0.106 C 
ATOM     12  H   UNL     1      -0.945  -0.353   0.009  0.00  0.00    +0.126 HD
ENDBRANCH   3  10
ENDBRANCH   1   6
BRANCH   1  13
ATOM     13  C   UNL     1       2.003  -2.709   5.471  0.00  0.00    +0.137 C 
BRANCH  13  14
ATOM     14  C   UNL     1       2.946  -3.066   6.591  0.00  0.00    -0.028 A 
ATOM     15  C   UNL     1       3.740  -4.193   6.492  0.00  0.00    +0.006 A 
ATOM     16  C   UNL     1       4.606  -4.520   7.519  0.00  0.00    +0.018 A 
ATOM     17  C   UNL     1       4.678  -3.720   8.645  0.00  0.00    +0.048 A 
ATOM     18  C   UNL     1       3.883  -2.592   8.743  0.00  0.00    +0.140 A 
ATOM     19  C   UNL     1       3.021  -2.263   7.713  0.00  0.00    +0.039 A 
ATOM     20 BR   UNL     1       5.861  -4.168  10.050  0.00  0.00    -0.048 Br
BRANCH  18  21
ATOM     21  N   UNL     1       3.959  -1.736   9.947  0.00  0.00    +0.058 N 
ATOM     22  O   UNL     1       3.264  -0.750  10.033  0.00  0.00    -0.126 OA
ATOM     23  O   UNL     1       4.715  -2.022  10.846  0.00  0.00    -0.126 OA
ENDBRANCH  18  21
ENDBRANCH  13  14
ENDBRANCH   1  13
TORSDOF 5
