REMARK  Name = ZINC18016407
REMARK  6 active torsions:
REMARK  status: ('A' for Active; 'I' for Inactive)
REMARK    1  A    between atoms: C_1  and  C_2
REMARK    2  A    between atoms: C_2  and  C_4
REMARK    3  A    between atoms: C_2  and  N_12
REMARK    4  A    between atoms: C_13  and  C_15
REMARK    5  A    between atoms: C_18  and  N_24
REMARK    6  A    between atoms: C_19  and  N_21
REMARK                            x       y       z     vdW  Elec       q    Type
REMARK                         _______ _______ _______ _____ _____    ______ ____
ROOT
ATOM      1  N   UNL     1       0.416   0.659   2.122  0.00  0.00    -0.305 N 
ATOM      2  C   UNL     1       1.328   1.473   2.689  0.00  0.00    +0.245 C 
ATOM      3  O   UNL     1       1.689   2.479   2.108  0.00  0.00    -0.270 OA
ATOM      4  H   UNL     1       0.128  -0.144   2.585  0.00  0.00    +0.150 HD
ENDROOT
BRANCH   2   5
ATOM      5  C   UNL     1       1.889   1.144   4.013  0.00  0.00    +0.039 A 
ATOM      6  C   UNL     1       1.470  -0.009   4.684  0.00  0.00    +0.015 A 
ATOM      7  C   UNL     1       1.998  -0.315   5.917  0.00  0.00    +0.026 A 
ATOM      8  C   UNL     1       2.941   0.527   6.501  0.00  0.00    +0.055 A 
ATOM      9  C   UNL     1       3.355   1.679   5.838  0.00  0.00    +0.147 A 
ATOM     10  C   UNL     1       2.834   1.988   4.603  0.00  0.00    +0.047 A 
BRANCH   9  11
ATOM     11  N   UNL     1       4.357   2.571   6.463  0.00  0.00    +0.058 N 
ATOM     12  O   UNL     1       4.637   3.634   5.939  0.00  0.00    -0.126 OA
ATOM     13  O   UNL     1       4.902   2.242   7.501  0.00  0.00    -0.126 OA
ENDBRANCH   9  11
BRANCH   8  14
ATOM     14  N   UNL     1       3.469   0.217   7.750  0.00  0.00    -0.356 N 
ATOM     15  H   UNL     1       3.821   0.921   8.316  0.00  0.00    +0.142 HD
ATOM     16  H   UNL     1       3.486  -0.704   8.054  0.00  0.00    +0.142 HD
ENDBRANCH   8  14
ENDBRANCH   2   5
BRANCH   1  18
ATOM     17  C   UNL     1       0.793   0.460  -0.287  0.00  0.00    +0.033 C 
ATOM     18  C   UNL     1      -0.140   0.985   0.806  0.00  0.00    +0.100 C 
BRANCH  18  19
ATOM     19  C   UNL     1      -1.496   0.343   0.661  0.00  0.00    -0.025 A 
ATOM     20  C   UNL     1      -1.708  -0.938   1.136  0.00  0.00    +0.008 A 
ATOM     21  C   UNL     1      -2.952  -1.526   1.008  0.00  0.00    +0.041 A 
ATOM     22  C   UNL     1      -3.984  -0.838   0.395  0.00  0.00    +0.158 A 
ATOM     23  C   UNL     1      -3.769   0.445  -0.086  0.00  0.00    +0.159 A 
ATOM     24  C   UNL     1      -2.524   1.034   0.048  0.00  0.00    +0.046 A 
ATOM     25  F   UNL     1      -4.775   1.119  -0.686  0.00  0.00    -0.202 F 
ATOM     26  F   UNL     1      -5.198  -1.415   0.264  0.00  0.00    -0.202 F 
ENDBRANCH  18  19
ENDBRANCH   1  18
TORSDOF 5
