REMARK  Name = ZINC59135682
REMARK  5 active torsions:
REMARK  status: ('A' for Active; 'I' for Inactive)
REMARK    1  A    between atoms: C_6  and  N_7
REMARK    2  A    between atoms: C_11  and  C_12
REMARK    3  A    between atoms: C_17  and  O_18
REMARK    4  A    between atoms: O_18  and  C_19
REMARK    5  A    between atoms: C_19  and  C_20
REMARK                            x       y       z     vdW  Elec       q    Type
REMARK                         _______ _______ _______ _____ _____    ______ ____
ROOT
ATOM      1  N   UNL     1      -1.134  -0.781  -0.689  0.00  0.00    -0.188 N 
ATOM      2  C   UNL     1      -1.172  -2.069  -0.285  0.00  0.00    +0.264 C 
ATOM      3  O   UNL     1      -0.228  -2.576   0.291  0.00  0.00    -0.269 OA
ATOM      4  C   UNL     1      -2.399  -2.841  -0.565  0.00  0.00    +0.102 C 
ATOM      5  C   UNL     1      -2.523  -4.168  -0.184  0.00  0.00    +0.030 C 
ATOM      6  C   UNL     1      -3.485  -2.138  -1.265  0.00  0.00    +0.276 C 
ATOM      7  O   UNL     1      -4.641  -2.771  -1.559  0.00  0.00    -0.268 OA
ATOM      8  N   UNL     1      -3.303  -0.872  -1.600  0.00  0.00    -0.123 NA
ATOM      9  C   UNL     1      -2.177  -0.221  -1.318  0.00  0.00    +0.340 C 
ATOM     10  O   UNL     1      -2.087   0.946  -1.655  0.00  0.00    -0.250 OA
ENDROOT
BRANCH   1  16
ATOM     11  C   UNL     1       1.195  -0.293  -1.117  0.00  0.00    +0.027 A 
ATOM     12  C   UNL     1       2.324   0.462  -0.873  0.00  0.00    +0.040 A 
ATOM     13  C   UNL     1       2.280   1.497   0.047  0.00  0.00    +0.124 A 
ATOM     14  C   UNL     1       1.104   1.776   0.722  0.00  0.00    +0.040 A 
ATOM     15  C   UNL     1      -0.028   1.022   0.480  0.00  0.00    +0.027 A 
ATOM     16  C   UNL     1       0.014  -0.015  -0.442  0.00  0.00    +0.046 A 
ATOM     17  F   UNL     1       3.386   2.235   0.285  0.00  0.00    -0.205 F 
ENDBRANCH   1  16
BRANCH   5  18
ATOM     18  C   UNL     1      -3.780  -4.818  -0.275  0.00  0.00    +0.019 A 
ATOM     19  C   UNL     1      -4.932  -4.205   0.243  0.00  0.00    +0.026 A 
ATOM     20  C   UNL     1      -6.147  -4.844   0.149  0.00  0.00    +0.019 A 
ATOM     21  C   UNL     1      -6.241  -6.090  -0.455  0.00  0.00    +0.019 A 
ATOM     22  C   UNL     1      -5.117  -6.706  -0.969  0.00  0.00    +0.047 A 
ATOM     23  C   UNL     1      -3.883  -6.080  -0.891  0.00  0.00    +0.129 A 
ATOM     24 BR   UNL     1      -7.699  -4.018   0.846  0.00  0.00    -0.050 Br
BRANCH  23  25
ATOM     25  O   UNL     1      -2.780  -6.682  -1.401  0.00  0.00    -0.477 OA
BRANCH  25  26
ATOM     26  C   UNL     1      -2.962  -7.962  -2.010  0.00  0.00    +0.346 C 
BRANCH  26  27
ATOM     27  C   UNL     1      -1.668  -8.459  -2.503  0.00  0.00    +0.104 C 
ATOM     28  N   UNL     1      -0.669  -8.844  -2.884  0.00  0.00    -0.193 NA
ENDBRANCH  26  27
ENDBRANCH  25  26
ENDBRANCH  23  25
ENDBRANCH   5  18
TORSDOF 5
