REMARK  Name = ZINC49840725
REMARK  5 active torsions:
REMARK  status: ('A' for Active; 'I' for Inactive)
REMARK    1  A    between atoms: C_6  and  C_7
REMARK    2  A    between atoms: C_10  and  S_13
REMARK    3  A    between atoms: N_11  and  N_12
REMARK    4  A    between atoms: S_13  and  C_14
REMARK    5  A    between atoms: C_14  and  C_15
REMARK                            x       y       z     vdW  Elec       q    Type
REMARK                         _______ _______ _______ _____ _____    ______ ____
ROOT
ATOM      1  C   UNL     1      -1.266  -0.763   0.011  0.00  0.00    +0.182 A 
ATOM      2  N   UNL     1      -2.458  -0.289   0.293  0.00  0.00    -0.127 NA
ATOM      3  N   UNL     1      -3.334  -1.224   0.203  0.00  0.00    -0.121 NA
ATOM      4  C   UNL     1      -2.756  -2.353  -0.141  0.00  0.00    +0.209 A 
ATOM      5  N   UNL     1      -1.422  -2.099  -0.281  0.00  0.00    -0.224 N 
ENDROOT
BRANCH   1  11
ATOM      6  C   UNL     1      -0.017   1.391   0.010  0.00  0.00    +0.013 A 
ATOM      7  C   UNL     1       1.170   2.096   0.002  0.00  0.00    +0.019 A 
ATOM      8  C   UNL     1       2.378   1.422  -0.013  0.00  0.00    +0.053 A 
ATOM      9  C   UNL     1       2.405   0.035  -0.021  0.00  0.00    +0.138 A 
ATOM     10  C   UNL     1       1.223  -0.680  -0.014  0.00  0.00    +0.051 A 
ATOM     11  C   UNL     1       0.002  -0.004   0.002  0.00  0.00    +0.024 A 
ATOM     12  F   UNL     1       3.588  -0.617  -0.036  0.00  0.00    -0.204 F 
ATOM     13 BR   UNL     1       3.999   2.395  -0.025  0.00  0.00    -0.047 Br
ENDBRANCH   1  11
BRANCH   5  14
ATOM     14  N   UNL     1      -0.445  -2.986  -0.635  0.00  0.00    -0.295 N 
ATOM     15  H   UNL     1      -0.053  -3.435   0.179  0.00  0.00    +0.163 HD
ATOM     16  H   UNL     1      -0.796  -3.668  -1.290  0.00  0.00    +0.163 HD
ENDBRANCH   5  14
BRANCH   4  17
ATOM     17  S   UNL     1      -3.555  -3.905  -0.384  0.00  0.00    -0.073 S 
BRANCH  17  18
ATOM     18  C   UNL     1      -5.304  -3.555  -0.050  0.00  0.00    +0.202 C 
BRANCH  18  19
ATOM     19  C   UNL     1      -6.111  -4.816  -0.224  0.00  0.00    +0.366 C 
ATOM     20  O   UNL     1      -5.557  -5.855  -0.543  0.00  0.00    -0.245 OA
ATOM     21  O   UNL     1      -7.316  -4.798  -0.045  0.00  0.00    -0.245 OA
ENDBRANCH  18  19
ENDBRANCH  17  18
ENDBRANCH   4  17
TORSDOF 5
