REMARK  Name = ZINC44453345
REMARK  8 active torsions:
REMARK  status: ('A' for Active; 'I' for Inactive)
REMARK    1  A    between atoms: C_1  and  C_2
REMARK    2  A    between atoms: C_2  and  C_29
REMARK    3  A    between atoms: N_3  and  N_4
REMARK    4  A    between atoms: C_5  and  C_7
REMARK    5  A    between atoms: C_11  and  N_12
REMARK    6  A    between atoms: C_13  and  C_15
REMARK    7  A    between atoms: C_18  and  S_21
REMARK    8  A    between atoms: S_21  and  N_24
REMARK                            x       y       z     vdW  Elec       q    Type
REMARK                         _______ _______ _______ _____ _____    ______ ____
ROOT
ATOM      1  N   UNL     1       0.087  -1.941   6.205  0.00  0.00    -0.275 N 
ATOM      2  C   UNL     1       0.105  -2.416   7.466  0.00  0.00    +0.249 C 
ATOM      3  O   UNL     1       0.104  -1.645   8.406  0.00  0.00    -0.270 OA
ATOM      4  H   UNL     1       0.088  -2.556   5.455  0.00  0.00    +0.156 HD
ENDROOT
BRANCH   2   5
ATOM      5  C   UNL     1       0.127  -3.874   7.706  0.00  0.00    +0.037 A 
ATOM      6  C   UNL     1       0.135  -4.762   6.628  0.00  0.00    +0.015 A 
ATOM      7  C   UNL     1       0.156  -6.122   6.859  0.00  0.00    +0.029 A 
ATOM      8  C   UNL     1       0.169  -6.606   8.155  0.00  0.00    +0.106 A 
ATOM      9  C   UNL     1       0.161  -5.732   9.228  0.00  0.00    +0.029 A 
ATOM     10  C   UNL     1       0.146  -4.370   9.011  0.00  0.00    +0.015 A 
BRANCH   8  11
ATOM     11  S   UNL     1       0.195  -8.345   8.442  0.00  0.00    +0.061 S 
ATOM     12  O   UNL     1      -0.347  -8.551   9.739  0.00  0.00    -0.153 OA
ATOM     13  O   UNL     1      -0.353  -8.956   7.282  0.00  0.00    -0.153 OA
BRANCH  11  14
ATOM     14  N   UNL     1       1.784  -8.805   8.514  0.00  0.00    -0.177 NA
ATOM     15  C   UNL     1       2.605  -9.232   7.371  0.00  0.00    +0.109 C 
ATOM     16  C   UNL     1       4.003  -9.587   7.919  0.00  0.00    +0.018 C 
ATOM     17  C   UNL     1       3.725  -9.882   9.416  0.00  0.00    +0.018 C 
ATOM     18  C   UNL     1       2.611  -8.850   9.733  0.00  0.00    +0.109 C 
ENDBRANCH  11  14
ENDBRANCH   8  11
ENDBRANCH   2   5
BRANCH   1  23
ATOM     19  C   UNL     1       0.046   0.090   4.761  0.00  0.00    +0.067 A 
ATOM     20  C   UNL     1       0.021   1.534   4.812  0.00  0.00    +0.022 A 
ATOM     21  C   UNL     1       0.025   2.077   6.044  0.00  0.00    +0.048 A 
ATOM     22  S   UNL     1       0.063   0.659   7.118  0.00  0.00    -0.081 S 
ATOM     23  C   UNL     1       0.067  -0.574   5.979  0.00  0.00    +0.084 A 
BRANCH  19  25
ATOM     24  N   UNL     1       0.023   0.044   2.324  0.00  0.00    -0.203 N 
ATOM     25  C   UNL     1       0.044  -0.636   3.488  0.00  0.00    +0.266 C 
ATOM     26  O   UNL     1       0.060  -1.853   3.481  0.00  0.00    -0.268 OA
ATOM     27  H   UNL     1       0.010   1.014   2.329  0.00  0.00    +0.178 HD
BRANCH  24  30
ATOM     28  C   UNL     1      -0.018   1.503   0.010  0.00  0.00    +0.062 C 
ATOM     29  C   UNL     1       0.002  -0.004   0.002  0.00  0.00    +0.031 C 
ATOM     30  N   UNL     1       0.021  -0.650   1.107  0.00  0.00    -0.190 NA
ATOM     31  C   UNL     1      -0.000  -0.750  -1.307  0.00  0.00    +0.062 C 
ENDBRANCH  24  30
ENDBRANCH  19  25
ENDBRANCH   1  23
TORSDOF 6
