REMARK  Name = ZINC37558120
REMARK  7 active torsions:
REMARK  status: ('A' for Active; 'I' for Inactive)
REMARK    1  A    between atoms: C_1  and  C_2
REMARK    2  A    between atoms: C_2  and  C_3
REMARK    3  A    between atoms: C_2  and  C_4
REMARK    4  A    between atoms: C_2  and  C_5
REMARK    5  A    between atoms: C_8  and  N_11
REMARK    6  A    between atoms: N_11  and  S_12
REMARK    7  A    between atoms: S_12  and  C_15
REMARK                            x       y       z     vdW  Elec       q    Type
REMARK                         _______ _______ _______ _____ _____    ______ ____
ROOT
ATOM      1  N   UNL     1       2.686  -1.758  -4.563  0.00  0.00    -0.216 N 
ATOM      2  H   UNL     1       2.602  -2.705  -4.758  0.00  0.00    +0.174 HD
ENDROOT
BRANCH   1   6
ATOM      3  C   UNL     1       1.048  -0.199  -1.067  0.00  0.00    -0.042 A 
ATOM      4  C   UNL     1       0.305  -1.060  -1.852  0.00  0.00    +0.006 A 
ATOM      5  C   UNL     1       0.845  -1.579  -3.013  0.00  0.00    +0.025 A 
ATOM      6  C   UNL     1       2.136  -1.235  -3.391  0.00  0.00    +0.048 A 
ATOM      7  C   UNL     1       2.881  -0.369  -2.599  0.00  0.00    +0.025 A 
ATOM      8  C   UNL     1       2.333   0.151  -1.443  0.00  0.00    +0.006 A 
BRANCH   3  10
ATOM      9  C   UNL     1       0.412   1.892   0.105  0.00  0.00    +0.015 C 
ATOM     10  C   UNL     1       0.456   0.365   0.199  0.00  0.00    -0.013 C 
ATOM     11  C   UNL     1       1.318  -0.048   1.394  0.00  0.00    +0.015 C 
ATOM     12  C   UNL     1      -0.964  -0.175   0.382  0.00  0.00    +0.015 C 
ENDBRANCH   3  10
ENDBRANCH   1   6
BRANCH   1  13
ATOM     13  S   UNL     1       3.480  -0.762  -5.622  0.00  0.00    +0.077 S 
ATOM     14  O   UNL     1       4.453  -0.058  -4.863  0.00  0.00    -0.150 OA
ATOM     15  O   UNL     1       3.822  -1.558  -6.749  0.00  0.00    -0.150 OA
BRANCH  13  16
ATOM     16  C   UNL     1       2.316   0.435  -6.184  0.00  0.00    +0.167 A 
ATOM     17  C   UNL     1       2.375   1.768  -5.962  0.00  0.00    +0.135 A 
ATOM     18  N   UNL     1       1.302   2.333  -6.555  0.00  0.00    -0.281 N 
ATOM     19  H   UNL     1       1.086   3.279  -6.559  0.00  0.00    +0.188 HD
ATOM     20  N   UNL     1       0.556   1.316  -7.164  0.00  0.00    -0.157 NA
ATOM     21  C   UNL     1       1.167   0.175  -6.948  0.00  0.00    +0.165 A 
ATOM     22  N   UNL     1       0.744  -1.082  -7.397  0.00  0.00    -0.340 N 
ATOM     23  H   UNL     1       1.300  -1.862  -7.246  0.00  0.00    +0.144 HD
ATOM     24  H   UNL     1      -0.104  -1.172  -7.858  0.00  0.00    +0.144 HD
ENDBRANCH  13  16
ENDBRANCH   1  13
TORSDOF 4
