REMARK  Name = ZINC13231022
REMARK  10 active torsions:
REMARK  status: ('A' for Active; 'I' for Inactive)
REMARK    1  A    between atoms: C_1  and  C_2
REMARK    2  A    between atoms: C_12  and  S_15
REMARK    3  A    between atoms: S_15  and  C_16
REMARK    4  A    between atoms: C_16  and  C_17
REMARK    5  A    between atoms: C_17  and  C_19
REMARK    6  A    between atoms: C_20  and  N_32
REMARK    7  A    between atoms: N_21  and  C_28
REMARK    8  A    between atoms: C_28  and  C_29
REMARK    9  A    between atoms: C_29  and  C_30
REMARK   10  A    between atoms: C_29  and  C_31
REMARK                            x       y       z     vdW  Elec       q    Type
REMARK                         _______ _______ _______ _____ _____    ______ ____
ROOT
ATOM      1  C   UNL     1       6.471   0.199  -0.028  0.00  0.00    +0.182 C 
ATOM      2  O   UNL     1       6.699  -0.994  -0.054  0.00  0.00    -0.291 OA
ENDROOT
BRANCH   1   3
ATOM      3  C   UNL     1       7.538   1.122  -0.049  0.00  0.00    +0.120 A 
ATOM      4  C   UNL     1       8.873   0.689   0.025  0.00  0.00    +0.116 A 
ATOM      5  N   UNL     1       9.872   1.620  -0.005  0.00  0.00    -0.281 N 
ATOM      6  C   UNL     1       9.601   2.932  -0.091  0.00  0.00    +0.331 A 
ATOM      7  O   UNL     1      10.526   3.720  -0.109  0.00  0.00    -0.246 OA
ATOM      8  N   UNL     1       8.346   3.405  -0.159  0.00  0.00    -0.274 N 
ATOM      9  H   UNL     1       8.193   4.391  -0.223  0.00  0.00    +0.173 HD
ATOM     10  C   UNL     1       7.289   2.567  -0.143  0.00  0.00    +0.266 A 
ATOM     11  O   UNL     1       6.153   2.998  -0.205  0.00  0.00    -0.267 OA
BRANCH   4  12
ATOM     12  N   UNL     1       9.166  -0.636   0.119  0.00  0.00    -0.344 N 
ATOM     13  H   UNL     1       8.457  -1.296   0.052  0.00  0.00    +0.144 HD
ATOM     14  H   UNL     1      10.083  -0.922   0.253  0.00  0.00    +0.144 HD
ENDBRANCH   4  12
BRANCH   5  15
ATOM     15  C   UNL     1      11.267   1.178   0.066  0.00  0.00    +0.131 C 
BRANCH  15  16
ATOM     16  C   UNL     1      11.708   1.110   1.529  0.00  0.00    +0.003 C 
ATOM     17  C   UNL     1      13.121   0.531   1.610  0.00  0.00    +0.009 C 
ATOM     18  C   UNL     1      11.697   2.517   2.131  0.00  0.00    +0.009 C 
ENDBRANCH  15  16
ENDBRANCH   5  15
ENDBRANCH   1   3
BRANCH   1  19
ATOM     19  C   UNL     1       5.048   0.693   0.027  0.00  0.00    +0.157 C 
BRANCH  19  20
ATOM     20  S   UNL     1       3.918  -0.721   0.043  0.00  0.00    -0.078 S 
BRANCH  20  32
ATOM     21  C   UNL     1      -1.082  -3.447   0.166  0.00  0.00    +0.090 C 
ATOM     22  C   UNL     1      -0.348  -2.131   0.162  0.00  0.00    +0.149 A 
ATOM     23  N   UNL     1      -0.922  -0.932   0.199  0.00  0.00    -0.211 NA
ATOM     24  C   UNL     1       0.004   0.003   0.183  0.00  0.00    +0.168 A 
ATOM     25  C   UNL     1      -0.014   1.470   0.206  0.00  0.00    +0.045 A 
ATOM     26  C   UNL     1      -1.202   2.196   0.262  0.00  0.00    +0.014 A 
ATOM     27  C   UNL     1      -1.156   3.572   0.275  0.00  0.00    +0.001 A 
ATOM     28  C   UNL     1       0.063   4.238   0.245  0.00  0.00    +0.002 A 
ATOM     29  C   UNL     1       1.240   3.546   0.196  0.00  0.00    +0.028 A 
ATOM     30  C   UNL     1       1.226   2.149   0.175  0.00  0.00    +0.077 A 
ATOM     31  N   UNL     1       2.374   1.432   0.127  0.00  0.00    -0.222 NA
ATOM     32  C   UNL     1       2.373   0.123   0.107  0.00  0.00    +0.192 A 
ATOM     33  N   UNL     1       1.222  -0.617   0.134  0.00  0.00    -0.188 N 
ATOM     34  N   UNL     1       0.954  -1.993   0.121  0.00  0.00    -0.148 NA
ENDBRANCH  20  32
ENDBRANCH  19  20
ENDBRANCH   1  19
TORSDOF 7
