REMARK  Name = ZINC11938798
REMARK  11 active torsions:
REMARK  status: ('A' for Active; 'I' for Inactive)
REMARK    1  A    between atoms: C_1  and  C_2
REMARK    2  A    between atoms: C_2  and  O_3
REMARK    3  A    between atoms: O_3  and  C_4
REMARK    4  A    between atoms: N_6  and  C_7
REMARK    5  A    between atoms: C_11  and  C_18
REMARK    6  A    between atoms: C_18  and  O_19
REMARK    7  A    between atoms: O_19  and  C_20
REMARK    8  A    between atoms: C_20  and  C_22
REMARK    9  A    between atoms: C_22  and  C_23
REMARK   10  A    between atoms: C_23  and  C_25
REMARK   11  A    between atoms: C_23  and  N_31
REMARK                            x       y       z     vdW  Elec       q    Type
REMARK                         _______ _______ _______ _____ _____    ______ ____
ROOT
ATOM      1  C   UNL     1      -2.861   3.894  -4.668  0.00  0.00    +0.268 C 
ENDROOT
BRANCH   1   6
ATOM      2  C   UNL     1      -2.517   4.399  -9.811  0.00  0.00    +0.040 A 
ATOM      3  C   UNL     1      -1.855   4.981  -8.730  0.00  0.00    +0.024 A 
ATOM      4  C   UNL     1      -2.180   4.632  -7.452  0.00  0.00    +0.014 A 
ATOM      5  C   UNL     1      -3.188   3.688  -7.223  0.00  0.00    +0.024 A 
ATOM      6  C   UNL     1      -3.553   3.289  -5.862  0.00  0.00    +0.007 A 
ATOM      7  C   UNL     1      -4.535   2.364  -5.706  0.00  0.00    +0.099 A 
ATOM      8  C   UNL     1      -5.168   1.814  -6.839  0.00  0.00    +0.338 A 
ATOM      9  O   UNL     1      -6.047   0.986  -6.685  0.00  0.00    -0.245 OA
ATOM     10  O   UNL     1      -4.825   2.179  -8.085  0.00  0.00    -0.422 OA
ATOM     11  C   UNL     1      -3.857   3.093  -8.310  0.00  0.00    +0.141 A 
ATOM     12  C   UNL     1      -3.515   3.459  -9.603  0.00  0.00    +0.070 A 
BRANCH   2  15
ATOM     13  C   UNL     1      -3.118   4.805 -12.074  0.00  0.00    +0.405 C 
ATOM     14  O   UNL     1      -4.283   4.612 -11.789  0.00  0.00    -0.226 OA
ATOM     15  N   UNL     1      -2.174   4.767 -11.113  0.00  0.00    -0.251 N 
ATOM     16  H   UNL     1      -1.255   4.994 -11.326  0.00  0.00    +0.158 HD
BRANCH  13  17
ATOM     17  O   UNL     1      -2.770   5.058 -13.350  0.00  0.00    -0.450 OA
BRANCH  17  19
ATOM     18  C   UNL     1      -3.255   5.385 -15.713  0.00  0.00    +0.048 C 
ATOM     19  C   UNL     1      -3.839   5.085 -14.332  0.00  0.00    +0.230 C 
ENDBRANCH  17  19
ENDBRANCH  13  17
ENDBRANCH   2  15
ENDBRANCH   1   6
BRANCH   1  20
ATOM     20  O   UNL     1      -3.417   3.330  -3.450  0.00  0.00    -0.460 OA
BRANCH  20  21
ATOM     21  C   UNL     1      -2.906   3.766  -2.288  0.00  0.00    +0.310 C 
ATOM     22  O   UNL     1      -2.024   4.592  -2.288  0.00  0.00    -0.251 OA
BRANCH  21  23
ATOM     23  C   UNL     1      -3.433   3.227  -0.984  0.00  0.00    +0.147 C 
BRANCH  23  24
ATOM     24  C   UNL     1      -2.686   3.884   0.179  0.00  0.00    +0.115 C 
BRANCH  24  25
ATOM     25  N   UNL     1      -1.276   3.490   0.138  0.00  0.00    -0.292 N 
ATOM     26  C   UNL     1      -0.345   4.251   0.748  0.00  0.00    +0.298 C 
ATOM     27  O   UNL     1      -0.664   5.308   1.258  0.00  0.00    -0.253 OA
ATOM     28  N   UNL     1       0.938   3.841   0.792  0.00  0.00    -0.313 N 
ATOM     29  H   UNL     1      -1.011   2.681  -0.328  0.00  0.00    +0.151 HD
ATOM     30  H   UNL     1       1.607   4.389   1.230  0.00  0.00    +0.146 HD
ATOM     31  H   UNL     1       1.191   2.996   0.388  0.00  0.00    +0.146 HD
ENDBRANCH  24  25
BRANCH  24  32
ATOM     32  C   UNL     1      -3.295   3.437   1.483  0.00  0.00    -0.027 A 
ATOM     33  C   UNL     1      -2.936   2.220   2.033  0.00  0.00    +0.005 A 
ATOM     34  C   UNL     1      -3.491   1.812   3.231  0.00  0.00    +0.000 A 
ATOM     35  C   UNL     1      -4.412   2.617   3.876  0.00  0.00    +0.000 A 
ATOM     36  C   UNL     1      -4.774   3.832   3.324  0.00  0.00    +0.000 A 
ATOM     37  C   UNL     1      -4.215   4.242   2.128  0.00  0.00    +0.005 A 
ENDBRANCH  24  32
ENDBRANCH  23  24
ENDBRANCH  21  23
ENDBRANCH  20  21
ENDBRANCH   1  20
TORSDOF 10
