REMARK  Name = ZINC07602433
REMARK  8 active torsions:
REMARK  status: ('A' for Active; 'I' for Inactive)
REMARK    1  A    between atoms: C_1  and  O_2
REMARK    2  A    between atoms: O_2  and  C_3
REMARK    3  A    between atoms: C_5  and  C_18
REMARK    4  A    between atoms: C_8  and  O_9
REMARK    5  A    between atoms: O_9  and  C_10
REMARK    6  A    between atoms: C_10  and  C_11
REMARK    7  A    between atoms: C_18  and  N_19
REMARK    8  A    between atoms: N_19  and  N_20
REMARK                            x       y       z     vdW  Elec       q    Type
REMARK                         _______ _______ _______ _____ _____    ______ ____
ROOT
ATOM      1  C   UNL     1      -3.380   3.243   2.846  0.00  0.00    +0.162 A 
ATOM      2  C   UNL     1      -4.576   3.918   3.032  0.00  0.00    +0.054 A 
ATOM      3  C   UNL     1      -5.313   4.332   1.938  0.00  0.00    -0.025 A 
ATOM      4  C   UNL     1      -4.856   4.081   0.658  0.00  0.00    +0.009 A 
ATOM      5  C   UNL     1      -3.661   3.413   0.466  0.00  0.00    +0.050 A 
ATOM      6  C   UNL     1      -2.918   2.995   1.558  0.00  0.00    +0.162 A 
ENDROOT
BRANCH   1   8
ATOM      7  C   UNL     1      -3.193   3.119   5.214  0.00  0.00    +0.277 C 
ATOM      8  O   UNL     1      -2.657   2.830   3.921  0.00  0.00    -0.491 OA
ENDBRANCH   1   8
BRANCH   6   9
ATOM      9  O   UNL     1      -1.742   2.338   1.370  0.00  0.00    -0.484 OA
BRANCH   9  10
ATOM     10  C   UNL     1      -1.332   2.113   0.020  0.00  0.00    +0.264 C 
BRANCH  10  11
ATOM     11  C   UNL     1      -0.017   1.378   0.010  0.00  0.00    -0.010 A 
ATOM     12  C   UNL     1       1.170   2.087   0.002  0.00  0.00    +0.010 A 
ATOM     13  C   UNL     1       2.377   1.414  -0.013  0.00  0.00    +0.039 A 
ATOM     14  C   UNL     1       2.397   0.029  -0.021  0.00  0.00    +0.123 A 
ATOM     15  C   UNL     1       1.208  -0.679  -0.013  0.00  0.00    +0.039 A 
ATOM     16  C   UNL     1       0.002  -0.004   0.002  0.00  0.00    +0.010 A 
ATOM     17  F   UNL     1       3.577  -0.630  -0.035  0.00  0.00    -0.205 F 
ENDBRANCH  10  11
ENDBRANCH   9  10
ENDBRANCH   6   9
BRANCH   3  18
ATOM     18  C   UNL     1      -6.616   5.061   2.142  0.00  0.00    +0.157 C 
BRANCH  18  19
ATOM     19  N   UNL     1      -7.716   4.089   2.205  0.00  0.00    -0.260 N 
ATOM     20  H   UNL     1      -7.734   3.510   1.378  0.00  0.00    +0.168 HD
BRANCH  19  21
ATOM     21  N   UNL     1      -8.915   4.717   2.389  0.00  0.00    -0.129 N 
ATOM     22  C   UNL     1     -10.136   4.143   2.494  0.00  0.00    +0.251 A 
ATOM     23  N   UNL     1     -11.006   5.113   2.663  0.00  0.00    -0.091 NA
ATOM     24  N   UNL     1     -10.414   6.253   2.671  0.00  0.00    -0.020 NA
ATOM     25  N   UNL     1      -9.144   6.098   2.517  0.00  0.00    -0.024 NA
ATOM     26  N   UNL     1     -10.415   2.789   2.433  0.00  0.00    -0.325 N 
ATOM     27  H   UNL     1      -9.696   2.151   2.304  0.00  0.00    +0.145 HD
ATOM     28  H   UNL     1     -11.330   2.478   2.520  0.00  0.00    +0.145 HD
ENDBRANCH  19  21
ENDBRANCH  18  19
ENDBRANCH   3  18
TORSDOF 7
