REMARK  Name = ZINC30525307
REMARK  6 active torsions:
REMARK  status: ('A' for Active; 'I' for Inactive)
REMARK    1  A    between atoms: C_1  and  C_2
REMARK    2  A    between atoms: C_6  and  C_8
REMARK    3  A    between atoms: C_10  and  C_13
REMARK    4  A    between atoms: C_13  and  S_14
REMARK    5  A    between atoms: S_14  and  C_15
REMARK    6  A    between atoms: C_15  and  C_16
REMARK                            x       y       z     vdW  Elec       q    Type
REMARK                         _______ _______ _______ _____ _____    ______ ____
ROOT
ATOM      1  S   UNL     1       6.581   4.391  -1.743  0.00  0.00    -0.143 S 
ENDROOT
BRANCH   1   2
ATOM      2  C   UNL     1       5.991   4.400  -0.028  0.00  0.00    +0.168 C 
BRANCH   2   5
ATOM      3  C   UNL     1       2.426   3.937   0.000  0.00  0.00    +0.202 A 
ATOM      4  N   UNL     1       3.675   3.417  -0.008  0.00  0.00    -0.191 NA
ATOM      5  C   UNL     1       4.485   4.447  -0.015  0.00  0.00    +0.238 A 
ATOM      6  O   UNL     1       3.724   5.546  -0.002  0.00  0.00    -0.337 OA
ATOM      7  N   UNL     1       2.551   5.239   0.006  0.00  0.00    -0.056 NA
BRANCH   3  13
ATOM      8  C   UNL     1      -2.566   3.860   0.046  0.00  0.00    +0.044 C 
ATOM      9  C   UNL     1      -1.246   3.133   0.030  0.00  0.00    -0.050 A 
ATOM     10  C   UNL     1      -1.220   1.750   0.017  0.00  0.00    +0.003 A 
ATOM     11  C   UNL     1      -0.013   1.076   0.008  0.00  0.00    +0.001 A 
ATOM     12  C   UNL     1       1.174   1.781   0.000  0.00  0.00    +0.012 A 
ATOM     13  C   UNL     1       1.154   3.174   0.008  0.00  0.00    +0.023 A 
ATOM     14  C   UNL     1      -0.066   3.848   0.022  0.00  0.00    +0.015 A 
ENDBRANCH   3  13
ENDBRANCH   2   5
ENDBRANCH   1   2
BRANCH   1  15
ATOM     15  C   UNL     1       8.387   4.335  -1.586  0.00  0.00    +0.145 C 
BRANCH  15  16
ATOM     16  C   UNL     1       9.010   4.323  -2.958  0.00  0.00    +0.146 A 
ATOM     17  N   UNL     1       9.253   3.173  -3.562  0.00  0.00    -0.199 NA
ATOM     18  C   UNL     1       9.799   3.159  -4.776  0.00  0.00    +0.217 A 
ATOM     19  N   UNL     1      10.110   4.302  -5.376  0.00  0.00    -0.181 NA
ATOM     20  C   UNL     1       9.870   5.457  -4.763  0.00  0.00    +0.217 A 
ATOM     21  N   UNL     1       9.318   5.463  -3.552  0.00  0.00    -0.199 NA
ATOM     22  N   UNL     1      10.191   6.647  -5.382  0.00  0.00    -0.327 N 
ATOM     23  N   UNL     1      10.047   1.957  -5.408  0.00  0.00    -0.327 N 
ATOM     24  H   UNL     1       9.992   7.602  -4.874  0.00  0.00    +0.145 HD
ATOM     25  H   UNL     1      10.647   6.641  -6.383  0.00  0.00    +0.145 HD
ATOM     26  H   UNL     1      10.499   1.946  -6.411  0.00  0.00    +0.145 HD
ATOM     27  H   UNL     1       9.793   1.010  -4.909  0.00  0.00    +0.145 HD
ENDBRANCH  15  16
ENDBRANCH   1  15
TORSDOF 5
