REMARK  Name = ZINC63709727
REMARK  5 active torsions:
REMARK  status: ('A' for Active; 'I' for Inactive)
REMARK    1  A    between atoms: C_1  and  C_2
REMARK    2  A    between atoms: C_4  and  C_22
REMARK    3  A    between atoms: C_5  and  N_9
REMARK    4  A    between atoms: C_6  and  C_8
REMARK    5  A    between atoms: N_12  and  C_13
REMARK                            x       y       z     vdW  Elec       q    Type
REMARK                         _______ _______ _______ _____ _____    ______ ____
ROOT
ATOM      1  N   UNL     1       0.504  -4.415   0.370  0.00  0.00    -0.269 N 
ATOM      2  C   UNL     1       0.562  -4.737   1.677  0.00  0.00    +0.308 C 
ATOM      3  O   UNL     1       1.246  -4.078   2.436  0.00  0.00    -0.252 OA
ATOM      4  N   UNL     1      -0.139  -5.790   2.144  0.00  0.00    -0.271 N 
ATOM      5  H   UNL     1      -0.091  -4.899  -0.223  0.00  0.00    +0.156 HD
ATOM      6  H   UNL     1      -0.722  -6.287   1.548  0.00  0.00    +0.156 HD
ENDROOT
BRANCH   4   7
ATOM      7  C   UNL     1      -0.028  -6.156   3.450  0.00  0.00    +0.040 C 
ATOM      8  C   UNL     1       0.008  -5.319   4.553  0.00  0.00    +0.017 A 
ATOM      9  C   UNL     1      -0.053  -3.911   4.685  0.00  0.00    +0.011 A 
ATOM     10  C   UNL     1       0.006  -3.349   5.918  0.00  0.00    +0.001 A 
ATOM     11  C   UNL     1       0.127  -4.127   7.073  0.00  0.00    +0.002 A 
ATOM     12  C   UNL     1       0.191  -5.479   7.021  0.00  0.00    +0.026 A 
ATOM     13  C   UNL     1       0.135  -6.142   5.768  0.00  0.00    +0.044 A 
ATOM     14  N   UNL     1       0.177  -7.421   5.454  0.00  0.00    -0.379 N 
ATOM     15  C   UNL     1       0.074  -7.562   3.998  0.00  0.00    +0.164 C 
ATOM     16  H   UNL     1       0.258  -8.153   6.086  0.00  0.00    +0.160 HD
ENDBRANCH   4   7
BRANCH   1  21
ATOM     17  C   UNL     1       3.740  -0.224  -1.667  0.00  0.00    +0.044 C 
ATOM     18  C   UNL     1       2.881  -1.337  -1.125  0.00  0.00    -0.050 A 
ATOM     19  C   UNL     1       3.468  -2.420  -0.498  0.00  0.00    +0.008 A 
ATOM     20  C   UNL     1       2.683  -3.442  -0.001  0.00  0.00    -0.029 A 
ATOM     21  C   UNL     1       1.302  -3.381  -0.132  0.00  0.00    +0.041 A 
ATOM     22  C   UNL     1       0.715  -2.292  -0.762  0.00  0.00    -0.029 A 
ATOM     23  C   UNL     1       1.505  -1.271  -1.252  0.00  0.00    +0.008 A 
ATOM     24  C   UNL     1      -0.784  -2.221  -0.906  0.00  0.00    +0.045 C 
ATOM     25  C   UNL     1       3.325  -4.623   0.681  0.00  0.00    +0.045 C 
ENDBRANCH   1  21
TORSDOF 2
