REMARK  Name = ZINC12129918
REMARK  4 active torsions:
REMARK  status: ('A' for Active; 'I' for Inactive)
REMARK    1  A    between atoms: C_4  and  C_7
REMARK    2  A    between atoms: N_10  and  C_11
REMARK    3  A    between atoms: C_14  and  N_17
REMARK    4  A    between atoms: C_22  and  O_27
REMARK                            x       y       z     vdW  Elec       q    Type
REMARK                         _______ _______ _______ _____ _____    ______ ____
ROOT
ATOM      1  C   UNL     1      -4.822   1.179  -0.159  0.00  0.00    +0.138 A 
ATOM      2  C   UNL     1      -3.575   1.818  -0.064  0.00  0.00    +0.073 A 
ATOM      3  C   UNL     1      -3.524   3.220  -0.048  0.00  0.00    +0.054 A 
ATOM      4  N   UNL     1      -2.353   3.875   0.045  0.00  0.00    -0.354 N 
ATOM      5  C   UNL     1      -4.801   3.948  -0.145  0.00  0.00    +0.044 A 
ATOM      6  C   UNL     1      -4.839   5.341  -0.142  0.00  0.00    +0.059 A 
ATOM      7  C   UNL     1      -6.058   5.987  -0.234  0.00  0.00    +0.118 A 
ATOM      8  C   UNL     1      -7.240   5.250  -0.329  0.00  0.00    +0.049 A 
ATOM      9  C   UNL     1      -7.215   3.885  -0.333  0.00  0.00    +0.050 A 
ATOM     10  C   UNL     1      -6.000   3.208  -0.241  0.00  0.00    +0.138 A 
ATOM     11  O   UNL     1      -5.963   1.863  -0.244  0.00  0.00    -0.455 OA
ATOM     12  H   UNL     1      -2.342   4.971   0.141  0.00  0.00    +0.166 HD
ENDROOT
BRANCH   1  16
ATOM     13  C   UNL     1      -4.959  -3.059  -0.190  0.00  0.00    +0.000 A 
ATOM     14  C   UNL     1      -6.135  -2.331  -0.277  0.00  0.00    +0.001 A 
ATOM     15  C   UNL     1      -6.100  -0.954  -0.268  0.00  0.00    +0.011 A 
ATOM     16  C   UNL     1      -4.869  -0.289  -0.169  0.00  0.00    +0.017 A 
ATOM     17  C   UNL     1      -3.684  -1.034  -0.087  0.00  0.00    +0.011 A 
ATOM     18  C   UNL     1      -3.739  -2.410  -0.092  0.00  0.00    +0.001 A 
ENDBRANCH   1  16
BRANCH   4  19
ATOM     19  C   UNL     1      -1.212   3.200   0.023  0.00  0.00    +0.040 A 
ATOM     20  C   UNL     1      -0.575   2.839  -1.249  0.00  0.00    +0.028 A 
ATOM     21  C   UNL     1       0.594   2.140  -1.228  0.00  0.00    +0.035 A 
ATOM     22  C   UNL     1       1.188   1.779  -0.025  0.00  0.00    +0.126 A 
ATOM     23  C   UNL     1       0.621   2.105   1.202  0.00  0.00    +0.035 A 
ATOM     24  C   UNL     1      -0.550   2.798   1.270  0.00  0.00    +0.028 A 
BRANCH  22  25
ATOM     25  N   UNL     1       2.468   1.020  -0.050  0.00  0.00    +0.056 N 
ATOM     26  O   UNL     1       3.022   0.701  -1.201  0.00  0.00    -0.126 OA
ATOM     27  O   UNL     1       3.047   0.669   1.079  0.00  0.00    -0.126 OA
ENDBRANCH  22  25
ENDBRANCH   4  19
BRANCH   7  28
ATOM     28  O   UNL     1      -6.106   7.345  -0.232  0.00  0.00    -0.507 OA
ATOM     29  H   UNL     1      -7.074   7.861  -0.305  0.00  0.00    +0.292 HD
ENDBRANCH   7  28
TORSDOF 4
