REMARK  Name = ZINC13896037
REMARK  6 active torsions:
REMARK  status: ('A' for Active; 'I' for Inactive)
REMARK    1  A    between atoms: C_1  and  C_2
REMARK    2  A    between atoms: C_4  and  C_20
REMARK    3  A    between atoms: C_6  and  N_8
REMARK    4  A    between atoms: C_9  and  N_10
REMARK    5  A    between atoms: C_11  and  C_13
REMARK    6  A    between atoms: N_14  and  C_15
REMARK                            x       y       z     vdW  Elec       q    Type
REMARK                         _______ _______ _______ _____ _____    ______ ____
ROOT
ATOM      1  N   UNL     1       0.053  -2.674   2.324  0.00  0.00    -0.175 NA
ATOM      2  C   UNL     1       0.145  -2.002   3.457  0.00  0.00    +0.230 C 
ATOM      3  N   UNL     1       0.126  -0.628   3.444  0.00  0.00    -0.351 N 
ATOM      4  H   UNL     1      -0.030  -0.153   2.613  0.00  0.00    +0.163 HD
ENDROOT
BRANCH   1  10
ATOM      5  C   UNL     1       2.548  -0.665  -1.218  0.00  0.00    +0.066 C 
ATOM      6  C   UNL     1       1.232  -1.034  -0.582  0.00  0.00    +0.044 A 
ATOM      7  C   UNL     1       0.036  -0.699  -1.200  0.00  0.00    +0.046 A 
ATOM      8  C   UNL     1      -1.154  -1.056  -0.583  0.00  0.00    +0.044 A 
ATOM      9  N   UNL     1      -1.116  -1.702   0.570  0.00  0.00    -0.216 NA
ATOM     10  C   UNL     1       0.047  -2.009   1.138  0.00  0.00    +0.254 A 
ATOM     11  N   UNL     1       1.206  -1.685   0.568  0.00  0.00    -0.216 NA
ATOM     12  C   UNL     1      -2.475  -0.711  -1.220  0.00  0.00    +0.066 C 
ENDBRANCH   1  10
BRANCH   3  13
ATOM     13  C   UNL     1       0.342   0.118   4.686  0.00  0.00    +0.082 C 
ATOM     14  C   UNL     1      -0.999   0.324   5.419  0.00  0.00    +0.024 C 
ATOM     15  C   UNL     1      -0.887   1.745   6.026  0.00  0.00    +0.002 C 
ATOM     16  C   UNL     1      -0.139   2.530   4.920  0.00  0.00    +0.002 C 
ATOM     17  C   UNL     1       0.889   1.521   4.369  0.00  0.00    +0.024 C 
ENDBRANCH   3  13
BRANCH   2  18
ATOM     18  N   UNL     1       0.257  -2.665   4.628  0.00  0.00    -0.178 NA
ATOM     19  C   UNL     1       0.275  -3.971   4.640  0.00  0.00    +0.246 C 
ATOM     20  O   UNL     1       0.181  -4.655   3.486  0.00  0.00    -0.271 OA
ATOM     21  C   UNL     1       0.400  -4.711   5.947  0.00  0.00    +0.114 C 
ENDBRANCH   2  18
TORSDOF 3
