REMARK  Name = ZINC60156255
REMARK  12 active torsions:
REMARK  status: ('A' for Active; 'I' for Inactive)
REMARK    1  A    between atoms: C_1  and  C_2
REMARK    2  A    between atoms: N_5  and  C_8
REMARK    3  A    between atoms: C_8  and  C_10
REMARK    4  A    between atoms: C_8  and  C_11
REMARK    5  A    between atoms: C_11  and  N_12
REMARK    6  A    between atoms: C_13  and  C_15
REMARK    7  A    between atoms: C_17  and  O_31
REMARK    8  A    between atoms: C_18  and  O_24
REMARK    9  A    between atoms: C_20  and  N_21
REMARK   10  A    between atoms: O_24  and  C_25
REMARK   11  A    between atoms: C_25  and  C_26
REMARK   12  A    between atoms: O_31  and  C_32
REMARK                            x       y       z     vdW  Elec       q    Type
REMARK                         _______ _______ _______ _____ _____    ______ ____
ROOT
ATOM      1  C   UNL     1       2.186  -3.667   4.967  0.00  0.00    +0.070 A 
ATOM      2  C   UNL     1       1.940  -2.312   5.207  0.00  0.00    +0.064 A 
ATOM      3  C   UNL     1       1.134  -1.936   6.264  0.00  0.00    +0.162 A 
ATOM      4  C   UNL     1       0.568  -2.908   7.089  0.00  0.00    +0.165 A 
ATOM      5  C   UNL     1       0.812  -4.253   6.850  0.00  0.00    +0.083 A 
ATOM      6  C   UNL     1       1.611  -4.635   5.794  0.00  0.00    +0.142 A 
ENDROOT
BRANCH   1   8
ATOM      7  N   UNL     1       2.776  -3.634   2.594  0.00  0.00    -0.313 N 
ATOM      8  C   UNL     1       3.046  -4.074   3.839  0.00  0.00    +0.246 C 
ATOM      9  O   UNL     1       3.997  -4.805   4.033  0.00  0.00    -0.270 OA
ATOM     10  H   UNL     1       2.017  -3.050   2.439  0.00  0.00    +0.149 HD
BRANCH   7  11
ATOM     11  C   UNL     1       3.630  -4.038   1.474  0.00  0.00    +0.089 C 
BRANCH  11  12
ATOM     12  C   UNL     1       3.195  -3.297   0.208  0.00  0.00    -0.054 C 
ATOM     13  C   UNL     1       4.152  -3.637  -0.937  0.00  0.00    -0.012 C 
BRANCH  12  18
ATOM     14  C   UNL     1       3.960   2.355   0.199  0.00  0.00    +0.007 C 
ATOM     15  C   UNL     1       4.008   0.870  -0.166  0.00  0.00    -0.018 C 
ATOM     16  C   UNL     1       4.638   0.080   0.985  0.00  0.00    -0.016 C 
ATOM     17  C   UNL     1       4.610  -1.413   0.648  0.00  0.00    -0.078 C 
ATOM     18  N   UNL     1       3.222  -1.849   0.455  0.00  0.00    +0.382 N 
ATOM     19  C   UNL     1       2.635  -1.147  -0.693  0.00  0.00    -0.078 C 
ATOM     20  C   UNL     1       2.586   0.355  -0.407  0.00  0.00    -0.016 C 
ATOM     21  H   UNL     1       2.687  -1.641   1.284  0.00  0.00    -0.081 HD
ENDBRANCH  12  18
ENDBRANCH  11  12
ENDBRANCH   7  11
ENDBRANCH   1   8
BRANCH   6  22
ATOM     22  N   UNL     1       1.865  -6.071   5.539  0.00  0.00    +0.057 N 
ATOM     23  O   UNL     1       1.474  -6.902   6.324  0.00  0.00    -0.126 OA
ATOM     24  O   UNL     1       2.463  -6.412   4.545  0.00  0.00    -0.126 OA
ENDBRANCH   6  22
BRANCH   3  25
ATOM     25  O   UNL     1       0.893  -0.619   6.501  0.00  0.00    -0.491 OA
ATOM     26  C   UNL     1       1.505   0.322   5.617  0.00  0.00    +0.277 C 
ENDBRANCH   3  25
BRANCH   4  27
ATOM     27  O   UNL     1      -0.224  -2.537   8.128  0.00  0.00    -0.482 OA
BRANCH  27  28
ATOM     28  C   UNL     1      -0.771  -3.584   8.932  0.00  0.00    +0.285 C 
BRANCH  28  29
ATOM     29  C   UNL     1      -1.616  -2.986  10.028  0.00  0.00    +0.086 A 
ATOM     30  C   UNL     1      -1.778  -1.643  10.147  0.00  0.00    +0.073 A 
ATOM     31  S   UNL     1      -2.843  -1.566  11.578  0.00  0.00    -0.083 S 
ATOM     32  C   UNL     1      -2.966  -3.220  11.864  0.00  0.00    +0.156 A 
ATOM     33  N   UNL     1      -2.236  -3.743  10.911  0.00  0.00    -0.249 NA
ENDBRANCH  28  29
ENDBRANCH  27  28
ENDBRANCH   4  27
TORSDOF 9
