REMARK  Name = ZINC37262303
REMARK  4 active torsions:
REMARK  status: ('A' for Active; 'I' for Inactive)
REMARK    1  A    between atoms: C_1  and  O_2
REMARK    2  A    between atoms: O_2  and  C_3
REMARK    3  A    between atoms: C_9  and  N_14
REMARK    4  A    between atoms: N_14  and  C_15
REMARK                            x       y       z     vdW  Elec       q    Type
REMARK                         _______ _______ _______ _____ _____    ______ ____
ROOT
ATOM      1  C   UNL     1      -1.201  -0.638   0.010  0.00  0.00    +0.121 A 
ATOM      2  C   UNL     1      -2.375   0.100   0.019  0.00  0.00    +0.049 A 
ATOM      3  C   UNL     1      -3.594  -0.546   0.029  0.00  0.00    +0.049 A 
ATOM      4  C   UNL     1      -3.651  -1.936   0.029  0.00  0.00    +0.126 A 
ATOM      5  C   UNL     1      -2.479  -2.672   0.016  0.00  0.00    +0.018 A 
ATOM      6  C   UNL     1      -1.256  -2.022   0.003  0.00  0.00    +0.054 A 
ATOM      7  C   UNL     1      -2.498  -4.180   0.004  0.00  0.00    +0.108 C 
ATOM      8  C   UNL     1      -3.873  -4.682   0.451  0.00  0.00    +0.068 C 
ATOM      9  C   UNL     1      -4.946  -3.910  -0.329  0.00  0.00    +0.231 C 
ATOM     10  O   UNL     1      -4.872  -2.534   0.045  0.00  0.00    -0.492 OA
ENDROOT
BRANCH   1  12
ATOM     11  C   UNL     1      -0.017   1.425   0.010  0.00  0.00    +0.277 C 
ATOM     12  O   UNL     1       0.002  -0.004   0.002  0.00  0.00    -0.495 OA
ENDBRANCH   1  12
BRANCH   7  13
ATOM     13  N   UNL     1      -1.474  -4.688   0.919  0.00  0.00    -0.335 N 
ATOM     14  H   UNL     1      -1.710  -4.922   1.830  0.00  0.00    +0.147 HD
BRANCH  13  15
ATOM     15  C   UNL     1      -0.154  -4.834   0.480  0.00  0.00    +0.064 A 
ATOM     16  C   UNL     1       0.187  -4.493  -0.822  0.00  0.00    +0.041 A 
ATOM     17  C   UNL     1       1.492  -4.639  -1.254  0.00  0.00    +0.020 A 
ATOM     18  C   UNL     1       2.459  -5.124  -0.390  0.00  0.00    +0.018 A 
ATOM     19  C   UNL     1       2.123  -5.465   0.907  0.00  0.00    +0.041 A 
ATOM     20  C   UNL     1       0.820  -5.316   1.347  0.00  0.00    +0.144 A 
ATOM     21  F   UNL     1       0.493  -5.644   2.616  0.00  0.00    -0.204 F 
ATOM     22 BR   UNL     1       1.958  -4.175  -3.027  0.00  0.00    -0.050 Br
ENDBRANCH  13  15
ENDBRANCH   7  13
TORSDOF 3
