REMARK  Name = ZINC04155573
REMARK  6 active torsions:
REMARK  status: ('A' for Active; 'I' for Inactive)
REMARK    1  A    between atoms: C_2  and  C_10
REMARK    2  A    between atoms: C_4  and  O_9
REMARK    3  A    between atoms: C_5  and  O_8
REMARK    4  A    between atoms: C_6  and  O_7
REMARK    5  A    between atoms: N_12  and  N_13
REMARK    6  A    between atoms: C_14  and  C_15
REMARK                            x       y       z     vdW  Elec       q    Type
REMARK                         _______ _______ _______ _____ _____    ______ ____
ROOT
ATOM      1  C   UNL     1      -2.501   1.005   0.019  0.00  0.00    +0.263 C 
ATOM      2  O   UNL     1      -2.486  -0.211   0.013  0.00  0.00    -0.268 OA
ATOM      3  N   UNL     1      -3.676   1.665   0.029  0.00  0.00    -0.203 N 
ATOM      4  H   UNL     1      -3.688   2.635   0.034  0.00  0.00    +0.178 HD
ENDROOT
BRANCH   1   6
ATOM      5  C   UNL     1      -0.013   1.076   0.008  0.00  0.00    +0.062 A 
ATOM      6  C   UNL     1      -1.232   1.758   0.017  0.00  0.00    +0.045 A 
ATOM      7  C   UNL     1      -1.247   3.156   0.031  0.00  0.00    +0.062 A 
ATOM      8  C   UNL     1      -0.057   3.859   0.022  0.00  0.00    +0.163 A 
ATOM      9  C   UNL     1       1.156   3.176   0.007  0.00  0.00    +0.201 A 
ATOM     10  C   UNL     1       1.175   1.784   0.000  0.00  0.00    +0.163 A 
BRANCH  10  11
ATOM     11  O   UNL     1       2.361   1.120  -0.014  0.00  0.00    -0.503 OA
ATOM     12  H   UNL     1       2.696   0.932  -0.901  0.00  0.00    +0.292 HD
ENDBRANCH  10  11
BRANCH   9  13
ATOM     13  O   UNL     1       2.325   3.870  -0.001  0.00  0.00    -0.501 OA
ATOM     14  H   UNL     1       2.655   4.074  -0.886  0.00  0.00    +0.292 HD
ENDBRANCH   9  13
BRANCH   8  15
ATOM     15  O   UNL     1      -0.071   5.219   0.029  0.00  0.00    -0.503 OA
ATOM     16  H   UNL     1      -0.084   5.616  -0.852  0.00  0.00    +0.292 HD
ENDBRANCH   8  15
ENDBRANCH   1   6
BRANCH   3  17
ATOM     17  N   UNL     1      -4.881   0.950   0.030  0.00  0.00    -0.187 NA
ATOM     18  C   UNL     1      -6.013   1.585   0.039  0.00  0.00    +0.139 C 
BRANCH  18  19
ATOM     19  C   UNL     1      -7.280   0.833   0.041  0.00  0.00    +0.012 A 
ATOM     20  C   UNL     1      -8.500   1.515   0.056  0.00  0.00    +0.060 A 
ATOM     21  C   UNL     1      -9.686   0.806   0.054  0.00  0.00    +0.167 A 
ATOM     22  C   UNL     1      -9.665  -0.589   0.046  0.00  0.00    +0.167 A 
ATOM     23  C   UNL     1      -8.454  -1.266   0.036  0.00  0.00    +0.065 A 
ATOM     24  C   UNL     1      -7.266  -0.564   0.033  0.00  0.00    +0.030 A 
ATOM     25 BR   UNL     1      -5.619  -1.493   0.021  0.00  0.00    -0.050 Br
ATOM     26  O   UNL     1     -10.952  -1.043   0.051  0.00  0.00    -0.453 OA
ATOM     27  C   UNL     1     -11.758   0.080  -0.351  0.00  0.00    +0.466 C 
ATOM     28  O   UNL     1     -10.986   1.222   0.063  0.00  0.00    -0.453 OA
ENDBRANCH  18  19
ENDBRANCH   3  17
TORSDOF 6
