REMARK  Name = ZINC58981197
REMARK  9 active torsions:
REMARK  status: ('A' for Active; 'I' for Inactive)
REMARK    1  A    between atoms: C_1  and  C_2
REMARK    2  A    between atoms: C_4  and  C_32
REMARK    3  A    between atoms: N_5  and  C_7
REMARK    4  A    between atoms: C_10  and  C_28
REMARK    5  A    between atoms: C_12  and  N_13
REMARK    6  A    between atoms: C_14  and  C_16
REMARK    7  A    between atoms: C_16  and  C_17
REMARK    8  A    between atoms: C_17  and  C_19
REMARK    9  A    between atoms: C_17  and  N_24
REMARK                            x       y       z     vdW  Elec       q    Type
REMARK                         _______ _______ _______ _____ _____    ______ ____
ROOT
ATOM      1  N   UNL     1      -0.160  -1.833   3.395  0.00  0.00    -0.284 N 
ATOM      2  C   UNL     1       0.412  -1.571   4.587  0.00  0.00    +0.219 C 
ATOM      3  O   UNL     1       0.956  -2.460   5.207  0.00  0.00    -0.275 OA
ATOM      4  H   UNL     1      -0.649  -1.138   2.928  0.00  0.00    +0.155 HD
ENDROOT
BRANCH   1  10
ATOM      5  C   UNL     1       0.046  -3.257   1.448  0.00  0.00    +0.087 A 
ATOM      6  C   UNL     1       0.162  -4.524   0.895  0.00  0.00    +0.030 A 
ATOM      7  C   UNL     1       0.180  -5.636   1.715  0.00  0.00    +0.014 A 
ATOM      8  C   UNL     1       0.082  -5.490   3.087  0.00  0.00    +0.057 A 
ATOM      9  C   UNL     1      -0.034  -4.232   3.646  0.00  0.00    +0.037 A 
ATOM     10  C   UNL     1      -0.048  -3.110   2.831  0.00  0.00    +0.060 A 
BRANCH   5  15
ATOM     11  C   UNL     1       1.127   1.216  -0.406  0.00  0.00    +0.067 C 
ATOM     12  C   UNL     1       0.516  -0.145  -0.193  0.00  0.00    +0.061 A 
ATOM     13  C   UNL     1      -0.467  -0.736  -0.993  0.00  0.00    +0.047 A 
ATOM     14  C   UNL     1      -0.750  -1.954  -0.475  0.00  0.00    +0.042 A 
ATOM     15  N   UNL     1       0.028  -2.127   0.617  0.00  0.00    -0.235 N 
ATOM     16  N   UNL     1       0.817  -0.979   0.770  0.00  0.00    -0.171 NA
ATOM     17  C   UNL     1      -1.752  -2.940  -1.017  0.00  0.00    +0.066 C 
ENDBRANCH   5  15
BRANCH   8  18
ATOM     18  C   UNL     1       0.101  -6.708   3.975  0.00  0.00    +0.417 C 
ATOM     19  F   UNL     1       0.224  -7.858   3.187  0.00  0.00    -0.166 F 
ATOM     20  F   UNL     1       1.186  -6.627   4.855  0.00  0.00    -0.166 F 
ATOM     21  F   UNL     1      -1.090  -6.770   4.707  0.00  0.00    -0.166 F 
ENDBRANCH   8  18
ENDBRANCH   1  10
BRANCH   2  22
ATOM     22  C   UNL     1       0.374  -0.173   5.149  0.00  0.00    +0.123 C 
BRANCH  22  23
ATOM     23  C   UNL     1       1.089  -0.148   6.502  0.00  0.00    +0.120 C 
BRANCH  23  24
ATOM     24  N   UNL     1       0.348  -0.971   7.461  0.00  0.00    -0.292 N 
ATOM     25  C   UNL     1       0.986  -1.515   8.516  0.00  0.00    +0.298 C 
ATOM     26  O   UNL     1       2.176  -1.323   8.672  0.00  0.00    -0.253 OA
ATOM     27  N   UNL     1       0.304  -2.272   9.398  0.00  0.00    -0.313 N 
ATOM     28  H   UNL     1      -0.602  -1.125   7.336  0.00  0.00    +0.151 HD
ATOM     29  H   UNL     1      -0.645  -2.426   9.274  0.00  0.00    +0.146 HD
ATOM     30  H   UNL     1       0.763  -2.664  10.158  0.00  0.00    +0.146 HD
ENDBRANCH  23  24
BRANCH  23  31
ATOM     31  C   UNL     1       1.160   1.270   7.006  0.00  0.00    +0.010 A 
ATOM     32  C   UNL     1       2.195   2.144   6.954  0.00  0.00    +0.013 A 
ATOM     33  C   UNL     1       2.031   3.409   7.487  0.00  0.00    +0.008 A 
ATOM     34  C   UNL     1       0.840   3.739   8.045  0.00  0.00    +0.045 A 
ATOM     35  S   UNL     1      -0.100   2.238   7.820  0.00  0.00    -0.100 S 
ENDBRANCH  23  31
ENDBRANCH  22  23
ENDBRANCH   2  22
TORSDOF 7
