REMARK  Name = ZINC20390636
REMARK  5 active torsions:
REMARK  status: ('A' for Active; 'I' for Inactive)
REMARK    1  A    between atoms: C_1  and  O_2
REMARK    2  A    between atoms: O_2  and  C_3
REMARK    3  A    between atoms: C_6  and  O_20
REMARK    4  A    between atoms: C_7  and  C_9
REMARK    5  A    between atoms: C_12  and  C_15
REMARK                            x       y       z     vdW  Elec       q    Type
REMARK                         _______ _______ _______ _____ _____    ______ ____
ROOT
ATOM      1  C   UNL     1       1.369   1.884  -0.001  0.00  0.00    +0.129 C 
ATOM      2  C   UNL     1       2.214   0.595  -0.016  0.00  0.00    +0.086 C 
ATOM      3  C   UNL     1       1.187  -0.514  -0.012  0.00  0.00    +0.075 C 
ATOM      4  N   UNL     1       0.002  -0.004   0.002  0.00  0.00    -0.190 NA
ATOM      5  N   UNL     1      -0.017   1.389   0.010  0.00  0.00    -0.261 N 
ATOM      6  H   UNL     1      -0.814   1.942   0.017  0.00  0.00    +0.169 HD
ENDROOT
BRANCH   1  11
ATOM      7  C   UNL     1       1.033   3.343  -3.471  0.00  0.00    +0.121 A 
ATOM      8  C   UNL     1       2.113   4.212  -3.512  0.00  0.00    +0.049 A 
ATOM      9  C   UNL     1       2.950   4.326  -2.419  0.00  0.00    +0.049 A 
ATOM     10  C   UNL     1       2.710   3.572  -1.280  0.00  0.00    +0.122 A 
ATOM     11  C   UNL     1       1.630   2.704  -1.238  0.00  0.00    +0.019 A 
ATOM     12  C   UNL     1       0.796   2.585  -2.334  0.00  0.00    +0.054 A 
BRANCH   7  14
ATOM     13  C   UNL     1       0.515   4.038  -5.685  0.00  0.00    +0.277 C 
ATOM     14  O   UNL     1       0.209   3.231  -4.546  0.00  0.00    -0.495 OA
ENDBRANCH   7  14
BRANCH  10  15
ATOM     15  O   UNL     1       3.534   3.685  -0.204  0.00  0.00    -0.506 OA
ATOM     16  H   UNL     1       3.343   3.087   0.699  0.00  0.00    +0.292 HD
ENDBRANCH  10  15
ENDBRANCH   1  11
BRANCH   3  17
ATOM     17  C   UNL     1       1.491  -1.950  -0.023  0.00  0.00    +0.035 A 
ATOM     18  C   UNL     1       0.622  -3.026  -0.015  0.00  0.00    +0.017 A 
ATOM     19  C   UNL     1       1.152  -4.296  -0.032  0.00  0.00    +0.008 A 
ATOM     20  C   UNL     1       2.501  -4.453  -0.046  0.00  0.00    +0.046 A 
ATOM     21  S   UNL     1       3.080  -2.764  -0.043  0.00  0.00    -0.095 S 
ENDBRANCH   3  17
TORSDOF 4
