REMARK  Name = ZINC20220533
REMARK  7 active torsions:
REMARK  status: ('A' for Active; 'I' for Inactive)
REMARK    1  A    between atoms: C_1  and  O_2
REMARK    2  A    between atoms: O_2  and  C_3
REMARK    3  A    between atoms: C_3  and  C_5
REMARK    4  A    between atoms: C_5  and  N_6
REMARK    5  A    between atoms: N_14  and  N_15
REMARK    6  A    between atoms: C_16  and  C_18
REMARK    7  A    between atoms: C_19  and  C_29
REMARK                            x       y       z     vdW  Elec       q    Type
REMARK                         _______ _______ _______ _____ _____    ______ ____
ROOT
ATOM      1  N   UNL     1       5.308  -3.329  -3.516  0.00  0.00    -0.201 N 
ATOM      2  C   UNL     1       6.517  -3.622  -4.036  0.00  0.00    +0.286 C 
ATOM      3  O   UNL     1       6.616  -3.927  -5.209  0.00  0.00    -0.267 OA
ATOM      4  H   UNL     1       5.229  -3.086  -2.580  0.00  0.00    +0.178 HD
ENDROOT
BRANCH   2   5
ATOM      5  C   UNL     1       7.715  -3.572  -3.184  0.00  0.00    +0.177 A 
ATOM      6  C   UNL     1       9.018  -3.844  -3.591  0.00  0.00    +0.109 A 
ATOM      7  N   UNL     1       9.803  -3.678  -2.486  0.00  0.00    -0.187 N 
ATOM      8  N   UNL     1       8.949  -3.309  -1.438  0.00  0.00    -0.058 NA
ATOM      9  N   UNL     1       7.743  -3.252  -1.880  0.00  0.00    -0.124 NA
ATOM     10  C   UNL     1      11.190  -3.844  -2.415  0.00  0.00    +0.241 A 
ATOM     11  C   UNL     1      12.014  -3.667  -1.216  0.00  0.00    +0.206 A 
ATOM     12  N   UNL     1      13.257  -3.907  -1.534  0.00  0.00    -0.032 NA
ATOM     13  O   UNL     1      13.296  -4.241  -2.910  0.00  0.00    -0.239 OA
ATOM     14  N   UNL     1      11.969  -4.188  -3.401  0.00  0.00    -0.027 NA
ATOM     15  N   UNL     1      11.552  -3.304   0.044  0.00  0.00    -0.337 N 
ATOM     16  H   UNL     1      10.606  -3.145   0.186  0.00  0.00    +0.144 HD
ATOM     17  H   UNL     1      12.175  -3.211   0.781  0.00  0.00    +0.144 HD
BRANCH   6  18
ATOM     18  C   UNL     1       9.461  -4.233  -4.945  0.00  0.00    +0.003 A 
ATOM     19  C   UNL     1      10.592  -3.639  -5.510  0.00  0.00    +0.010 A 
ATOM     20  C   UNL     1      11.001  -4.008  -6.775  0.00  0.00    +0.001 A 
ATOM     21  C   UNL     1      10.294  -4.963  -7.483  0.00  0.00    +0.000 A 
ATOM     22  C   UNL     1       9.173  -5.556  -6.929  0.00  0.00    +0.001 A 
ATOM     23  C   UNL     1       8.756  -5.201  -5.663  0.00  0.00    +0.010 A 
ENDBRANCH   6  18
ENDBRANCH   2   5
BRANCH   1  32
ATOM     24  N   UNL     1       1.354  -2.503  -2.345  0.00  0.00    -0.255 N 
ATOM     25  C   UNL     1       0.727  -2.721  -3.567  0.00  0.00    +0.047 A 
ATOM     26  C   UNL     1      -0.608  -2.636  -3.948  0.00  0.00    +0.024 A 
ATOM     27  C   UNL     1      -0.976  -2.910  -5.250  0.00  0.00    +0.002 A 
ATOM     28  C   UNL     1      -0.025  -3.273  -6.190  0.00  0.00    +0.001 A 
ATOM     29  C   UNL     1       1.305  -3.362  -5.830  0.00  0.00    +0.012 A 
ATOM     30  C   UNL     1       1.685  -3.088  -4.520  0.00  0.00    +0.028 A 
ATOM     31  C   UNL     1       2.991  -3.091  -3.821  0.00  0.00    +0.153 C 
ATOM     32  N   UNL     1       4.167  -3.376  -4.327  0.00  0.00    -0.174 NA
ATOM     33  C   UNL     1       2.681  -2.699  -2.432  0.00  0.00    +0.272 C 
ATOM     34  O   UNL     1       3.484  -2.576  -1.526  0.00  0.00    -0.268 OA
BRANCH  24  35
ATOM     35  C   UNL     1       0.657  -2.104  -1.120  0.00  0.00    +0.234 C 
BRANCH  35  36
ATOM     36  C   UNL     1       0.598  -0.600  -1.043  0.00  0.00    +0.325 C 
ATOM     37  O   UNL     1       1.088   0.070  -1.921  0.00  0.00    -0.249 OA
BRANCH  36  39
ATOM     38  C   UNL     1      -0.017   1.425   0.010  0.00  0.00    +0.280 C 
ATOM     39  O   UNL     1       0.002  -0.004   0.002  0.00  0.00    -0.467 OA
ENDBRANCH  36  39
ENDBRANCH  35  36
ENDBRANCH  24  35
ENDBRANCH   1  32
TORSDOF 6
