REMARK  Name = ZINC15446447
REMARK  7 active torsions:
REMARK  status: ('A' for Active; 'I' for Inactive)
REMARK    1  A    between atoms: C_13  and  C_14
REMARK    2  A    between atoms: C_14  and  O_15
REMARK    3  A    between atoms: O_15  and  C_16
REMARK    4  A    between atoms: N_18  and  CA_19
REMARK    5  A    between atoms: CA_19  and  C_21
REMARK    6  A    between atoms: CA_19  and  C_30
REMARK    7  A    between atoms: C_21  and  C_22
REMARK                            x       y       z     vdW  Elec       q    Type
REMARK                         _______ _______ _______ _____ _____    ______ ____
ROOT
ATOM      1  C   UNL     1      -2.414   6.954  -2.284  0.00  0.00    +0.401 C 
ATOM      2  O   UNL     1      -1.932   7.507  -3.252  0.00  0.00    -0.226 OA
ATOM      3  N   UNL     1      -3.742   6.733  -2.225  0.00  0.00    -0.268 N 
ATOM      4  H   UNL     1      -4.127   6.291  -1.452  0.00  0.00    +0.153 HD
ENDROOT
BRANCH   1   5
ATOM      5  O   UNL     1      -1.621   6.561  -1.269  0.00  0.00    -0.449 OA
BRANCH   5   6
ATOM      6  C   UNL     1      -0.201   6.832  -1.400  0.00  0.00    +0.246 C 
BRANCH   6  19
ATOM      7  C   UNL     1       1.018   2.092  -0.078  0.00  0.00    +0.001 A 
ATOM      8  C   UNL     1      -0.286   2.550  -0.045  0.00  0.00    +0.000 A 
ATOM      9  C   UNL     1      -0.545   3.909  -0.062  0.00  0.00    +0.005 A 
ATOM     10  C   UNL     1       0.498   4.810  -0.122  0.00  0.00    -0.029 A 
ATOM     11  C   UNL     1       1.814   4.358  -0.161  0.00  0.00    -0.014 A 
ATOM     12  C   UNL     1       2.067   2.986  -0.138  0.00  0.00    +0.009 A 
ATOM     13  C   UNL     1       2.733   5.521  -0.223  0.00  0.00    -0.014 A 
ATOM     14  C   UNL     1       4.127   5.590  -0.277  0.00  0.00    +0.009 A 
ATOM     15  C   UNL     1       4.755   6.817  -0.330  0.00  0.00    +0.001 A 
ATOM     16  C   UNL     1       4.009   7.982  -0.329  0.00  0.00    +0.000 A 
ATOM     17  C   UNL     1       2.627   7.922  -0.276  0.00  0.00    +0.005 A 
ATOM     18  C   UNL     1       1.992   6.699  -0.223  0.00  0.00    -0.029 A 
ATOM     19  C   UNL     1       0.533   6.318  -0.159  0.00  0.00    +0.088 C 
ENDBRANCH   6  19
ENDBRANCH   5   6
ENDBRANCH   1   5
BRANCH   3  20
ATOM     20  CA  UNL     1      -4.605   7.160  -3.330  0.00  0.00    +0.189 C 
BRANCH  20  21
ATOM     21  C   UNL     1      -4.662   6.073  -4.372  0.00  0.00    +0.376 C 
ATOM     22  O   UNL     1      -4.045   5.047  -4.209  0.00  0.00    -0.244 OA
ATOM     23  OXT UNL     1      -5.398   6.244  -5.481  0.00  0.00    -0.244 OA
ENDBRANCH  20  21
BRANCH  20  24
ATOM     24  C   UNL     1      -6.014   7.432  -2.800  0.00  0.00    +0.037 C 
BRANCH  24  25
ATOM     25  C   UNL     1      -5.972   8.605  -1.818  0.00  0.00    -0.006 C 
ATOM     26  C   UNL     1      -7.339   8.756  -1.156  0.00  0.00    +0.026 C 
ATOM     27  C   UNL     1      -7.247   9.738   0.015  0.00  0.00    +0.166 C 
ATOM     28  S   UNL     1      -6.785  11.375  -0.625  0.00  0.00    -0.031 S 
ATOM     29  O   UNL     1      -6.430  12.205   0.472  0.00  0.00    -0.174 OA
ATOM     30  O   UNL     1      -7.795  11.808  -1.527  0.00  0.00    -0.174 OA
ATOM     31  C   UNL     1      -5.283  10.999  -1.577  0.00  0.00    +0.166 C 
ATOM     32  C   UNL     1      -5.593   9.877  -2.570  0.00  0.00    +0.026 C 
ENDBRANCH  24  25
ENDBRANCH  20  24
ENDBRANCH   3  20
TORSDOF 7
