REMARK  Name = ZINC10591429
REMARK  9 active torsions:
REMARK  status: ('A' for Active; 'I' for Inactive)
REMARK    1  A    between atoms: C_1  and  C_2
REMARK    2  A    between atoms: C_5  and  N_9
REMARK    3  A    between atoms: C_7  and  C_8
REMARK    4  A    between atoms: C_10  and  C_14
REMARK    5  A    between atoms: C_14  and  N_15
REMARK    6  A    between atoms: C_16  and  C_18
REMARK    7  A    between atoms: C_18  and  C_19
REMARK    8  A    between atoms: C_19  and  C_20
REMARK    9  A    between atoms: C_19  and  C_21
REMARK                            x       y       z     vdW  Elec       q    Type
REMARK                         _______ _______ _______ _____ _____    ______ ____
ROOT
ATOM      1  N   UNL     1       3.587   2.125  -0.019  0.00  0.00    -0.196 N 
ATOM      2  C   UNL     1       4.745   1.788   0.588  0.00  0.00    +0.174 A 
ATOM      3  N   UNL     1       5.611   2.730   0.323  0.00  0.00    -0.111 NA
ATOM      4  N   UNL     1       5.077   3.645  -0.403  0.00  0.00    -0.023 NA
ATOM      5  N   UNL     1       3.847   3.352  -0.655  0.00  0.00    -0.039 NA
ENDROOT
BRANCH   1  10
ATOM      6  C   UNL     1      -1.294  -0.774   0.010  0.00  0.00    +0.044 C 
ATOM      7  C   UNL     1       0.002  -0.004   0.002  0.00  0.00    -0.047 A 
ATOM      8  C   UNL     1       1.207  -0.682  -0.014  0.00  0.00    +0.006 A 
ATOM      9  C   UNL     1       2.396   0.021  -0.021  0.00  0.00    +0.028 A 
ATOM     10  C   UNL     1       2.381   1.409  -0.013  0.00  0.00    +0.069 A 
ATOM     11  C   UNL     1       1.169   2.087   0.002  0.00  0.00    +0.031 A 
ATOM     12  C   UNL     1      -0.017   1.378   0.010  0.00  0.00    -0.046 A 
ATOM     13  C   UNL     1      -1.332   2.113   0.020  0.00  0.00    +0.044 C 
ENDBRANCH   1  10
BRANCH   2  14
ATOM     14  C   UNL     1       4.992   0.553   1.416  0.00  0.00    +0.182 C 
BRANCH  14  15
ATOM     15  N   UNL     1       5.470  -0.528   0.549  0.00  0.00    -0.308 N 
ATOM     16  C   UNL     1       5.758  -1.735   1.074  0.00  0.00    +0.214 C 
ATOM     17  O   UNL     1       5.623  -1.927   2.264  0.00  0.00    -0.276 OA
ATOM     18  H   UNL     1       5.578  -0.374  -0.403  0.00  0.00    +0.149 HD
BRANCH  16  19
ATOM     19  C   UNL     1       6.250  -2.846   0.183  0.00  0.00    +0.098 C 
BRANCH  19  20
ATOM     20  C   UNL     1       6.501  -4.100   1.023  0.00  0.00    -0.008 C 
ATOM     21  C   UNL     1       5.176  -4.601   1.601  0.00  0.00    +0.008 C 
ATOM     22  C   UNL     1       7.117  -5.189   0.142  0.00  0.00    +0.008 C 
ENDBRANCH  19  20
ENDBRANCH  16  19
ENDBRANCH  14  15
ENDBRANCH   2  14
TORSDOF 5
