REMARK  Name = ZINC64151859
REMARK  3 active torsions:
REMARK  status: ('A' for Active; 'I' for Inactive)
REMARK    1  A    between atoms: C_1  and  C_2
REMARK    2  A    between atoms: C_6  and  C_8
REMARK    3  A    between atoms: C_23  and  C_25
REMARK                            x       y       z     vdW  Elec       q    Type
REMARK                         _______ _______ _______ _____ _____    ______ ____
ROOT
ATOM      1  C   UNL     1      -0.290  -2.654   2.429  0.00  0.00    +0.151 C 
ATOM      2  C   UNL     1       0.718  -2.272   3.519  0.00  0.00    +0.133 C 
ATOM      3  C   UNL     1       0.459  -3.203   4.697  0.00  0.00    -0.035 C 
ATOM      4  C   UNL     1       0.228  -2.423   5.747  0.00  0.00    -0.001 A 
ATOM      5  C   UNL     1      -0.014  -2.737   7.164  0.00  0.00    +0.010 A 
ATOM      6  C   UNL     1      -0.229  -1.675   7.985  0.00  0.00    +0.001 A 
ATOM      7  C   UNL     1      -0.227  -0.348   7.542  0.00  0.00    +0.002 A 
ATOM      8  C   UNL     1      -0.009   0.032   6.258  0.00  0.00    +0.026 A 
ATOM      9  C   UNL     1       0.234  -0.997   5.301  0.00  0.00    +0.043 A 
ATOM     10  N   UNL     1       0.498  -0.910   4.010  0.00  0.00    -0.375 N 
ATOM     11  C   UNL     1       0.418  -4.704   4.549  0.00  0.00    +0.052 C 
ATOM     12  C   UNL     1      -0.539  -5.009   3.383  0.00  0.00    +0.113 C 
ATOM     13  N   UNL     1      -0.239  -4.115   2.259  0.00  0.00    -0.289 N 
ATOM     14  C   UNL     1       0.087  -4.637   1.060  0.00  0.00    +0.241 C 
ATOM     15  O   UNL     1       0.441  -3.908   0.158  0.00  0.00    -0.273 OA
ATOM     16  H   UNL     1       0.535  -0.101   3.475  0.00  0.00    +0.160 HD
ENDROOT
BRANCH  14  17
ATOM     17  C   UNL     1       0.011  -6.126   0.841  0.00  0.00    +0.207 C 
ATOM     18  C   UNL     1       1.354  -6.774   1.090  0.00  0.00    -0.001 C 
ATOM     19  C   UNL     1       1.913  -7.039  -0.077  0.00  0.00    +0.127 C 
ATOM     20  C   UNL     1       3.268  -7.700  -0.225  0.00  0.00    +0.076 C 
ATOM     21  C   UNL     1       4.015  -7.594   1.108  0.00  0.00    +0.008 C 
ATOM     22  C   UNL     1       3.106  -8.082   2.240  0.00  0.00    +0.005 C 
ATOM     23  C   UNL     1       1.966  -7.075   2.435  0.00  0.00    +0.036 C 
ATOM     24  O   UNL     1       1.129  -6.636  -1.109  0.00  0.00    -0.410 OA
ATOM     25  N   UNL     1      -0.241  -6.436  -0.591  0.00  0.00    -0.140 NA
ATOM     26  H   UNL     1      -0.696  -5.663  -1.054  0.00  0.00    +0.168 HD
ENDBRANCH  14  17
BRANCH   1  32
ATOM     27  C   UNL     1       3.046  -0.308  -0.252  0.00  0.00    +0.065 C 
ATOM     28  C   UNL     1       1.653  -0.870  -0.132  0.00  0.00    +0.039 A 
ATOM     29  C   UNL     1       0.774  -0.750  -1.191  0.00  0.00    +0.023 A 
ATOM     30  C   UNL     1      -0.506  -1.270  -1.070  0.00  0.00    +0.004 A 
ATOM     31  C   UNL     1      -0.854  -1.895   0.118  0.00  0.00    +0.025 A 
ATOM     32  C   UNL     1       0.078  -1.978   1.134  0.00  0.00    +0.064 A 
ATOM     33  N   UNL     1       1.288  -1.476   0.981  0.00  0.00    -0.255 NA
ENDBRANCH   1  32
TORSDOF 2
