REMARK  Name = ZINC30499953
REMARK  11 active torsions:
REMARK  status: ('A' for Active; 'I' for Inactive)
REMARK    1  A    between atoms: C_1  and  C_2
REMARK    2  A    between atoms: C_2  and  C_3
REMARK    3  A    between atoms: N_5  and  C_6
REMARK    4  A    between atoms: C_9  and  C_12
REMARK    5  A    between atoms: C_12  and  C_14
REMARK    6  A    between atoms: C_12  and  N_15
REMARK    7  A    between atoms: N_15  and  C_16
REMARK    8  A    between atoms: C_16  and  C_18
REMARK    9  A    between atoms: C_16  and  C_19
REMARK   10  A    between atoms: N_21  and  C_22
REMARK   11  A    between atoms: C_25  and  C_29
REMARK                            x       y       z     vdW  Elec       q    Type
REMARK                         _______ _______ _______ _____ _____    ______ ____
ROOT
ATOM      1  N   UNL     1      -5.734  -2.317   1.344  0.00  0.00    +0.391 N 
ATOM      2  H   UNL     1      -5.258  -3.170   0.838  0.00  0.00    -0.084 HD
ATOM      3  H   UNL     1      -5.086  -1.969   2.162  0.00  0.00    -0.084 HD
ENDROOT
BRANCH   1   4
ATOM      4  C   UNL     1      -5.935  -1.227   0.381  0.00  0.00    -0.043 C 
ATOM      5  C   UNL     1      -6.267  -1.814  -0.993  0.00  0.00    -0.009 C 
BRANCH   4   9
ATOM      6  C   UNL     1      -2.368   1.110   0.107  0.00  0.00    +0.033 A 
ATOM      7  C   UNL     1      -2.288  -0.273   0.197  0.00  0.00    +0.023 A 
ATOM      8  C   UNL     1      -3.443  -1.025   0.290  0.00  0.00    +0.004 A 
ATOM      9  C   UNL     1      -4.677  -0.403   0.284  0.00  0.00    -0.062 A 
ATOM     10  C   UNL     1      -4.760   0.974   0.190  0.00  0.00    +0.004 A 
ATOM     11  C   UNL     1      -3.609   1.733   0.102  0.00  0.00    +0.023 A 
BRANCH   6  14
ATOM     12  C   UNL     1      -1.142   3.088   0.603  0.00  0.00    +0.217 C 
ATOM     13  O   UNL     1      -2.128   3.552   1.136  0.00  0.00    -0.275 OA
ATOM     14  N   UNL     1      -1.200   1.876   0.017  0.00  0.00    -0.286 N 
ATOM     15  H   UNL     1      -0.329   1.488  -0.531  0.00  0.00    +0.155 HD
BRANCH  12  17
ATOM     16  C   UNL     1      -0.053   5.194   1.331  0.00  0.00    +0.013 C 
ATOM     17  C   UNL     1       0.150   3.865   0.601  0.00  0.00    +0.093 C 
ENDBRANCH  12  17
ENDBRANCH   6  14
ENDBRANCH   4   9
ENDBRANCH   1   4
BRANCH   1  18
ATOM     18  C   UNL     1      -7.014  -2.761   1.913  0.00  0.00    +0.014 C 
ATOM     19  C   UNL     1      -7.381  -1.869   3.100  0.00  0.00    -0.004 C 
BRANCH  18  20
ATOM     20  C   UNL     1      -6.889  -4.189   2.377  0.00  0.00    +0.203 C 
ATOM     21  O   UNL     1      -5.837  -4.779   2.248  0.00  0.00    -0.277 OA
ATOM     22  N   UNL     1      -7.946  -4.811   2.937  0.00  0.00    -0.287 N 
ATOM     23  H   UNL     1      -8.920  -4.302   2.986  0.00  0.00    +0.155 HD
BRANCH  22  24
ATOM     24  C   UNL     1      -7.804  -6.099   3.455  0.00  0.00    +0.035 A 
ATOM     25  C   UNL     1      -6.956  -7.008   2.830  0.00  0.00    +0.024 A 
ATOM     26  C   UNL     1      -6.809  -8.278   3.341  0.00  0.00    +0.022 A 
ATOM     27  C   UNL     1      -7.521  -8.658   4.482  0.00  0.00    +0.070 A 
ATOM     28  C   UNL     1      -8.377  -7.743   5.104  0.00  0.00    +0.060 A 
ATOM     29  C   UNL     1      -8.514  -6.471   4.590  0.00  0.00    +0.044 A 
ATOM     30 CL   UNL     1      -9.265  -8.209   6.522  0.00  0.00    -0.082 Cl
BRANCH  27  31
ATOM     31  C   UNL     1      -7.376  -9.980   5.012  0.00  0.00    +0.101 C 
ATOM     32  N   UNL     1      -7.260 -11.029   5.432  0.00  0.00    -0.191 NA
ENDBRANCH  27  31
ENDBRANCH  22  24
ENDBRANCH  18  20
ENDBRANCH   1  18
TORSDOF 8
