REMARK  Name = ZINC41083790
REMARK  6 active torsions:
REMARK  status: ('A' for Active; 'I' for Inactive)
REMARK    1  A    between atoms: C_1  and  C_2
REMARK    2  A    between atoms: C_2  and  O_3
REMARK    3  A    between atoms: O_3  and  C_4
REMARK    4  A    between atoms: C_6  and  C_11
REMARK    5  A    between atoms: C_9  and  O_10
REMARK    6  A    between atoms: C_23  and  C_24
REMARK                            x       y       z     vdW  Elec       q    Type
REMARK                         _______ _______ _______ _____ _____    ______ ____
ROOT
ATOM      1  C   UNL     1      -0.214  -4.949  -0.488  0.00  0.00    +0.025 C 
ATOM      2  C   UNL     1      -0.010  -6.307  -0.388  0.00  0.00    +0.085 A 
ATOM      3  C   UNL     1      -0.466  -7.252  -1.447  0.00  0.00    +0.160 A 
ATOM      4  N   UNL     1      -0.494  -6.948  -2.717  0.00  0.00    -0.281 NA
ATOM      5  N   UNL     1      -0.865  -8.506  -0.941  0.00  0.00    -0.212 N 
ATOM      6  C   UNL     1      -0.330  -8.907   0.268  0.00  0.00    +0.199 A 
ATOM      7  N   UNL     1       0.415  -8.203   1.076  0.00  0.00    -0.182 NA
ATOM      8  C   UNL     1       0.682  -6.910   0.778  0.00  0.00    +0.283 A 
ATOM      9  O   UNL     1       1.466  -6.259   1.448  0.00  0.00    -0.265 OA
ATOM     10  S   UNL     1      -0.912 -10.574   0.434  0.00  0.00    -0.031 S 
ATOM     11  C   UNL     1      -1.929 -10.630  -1.034  0.00  0.00    +0.101 A 
ATOM     12  N   UNL     1      -1.741  -9.371  -1.563  0.00  0.00    -0.283 N 
ATOM     13  C   UNL     1      -2.694 -11.654  -1.509  0.00  0.00    +0.102 C 
ATOM     14  H   UNL     1      -0.800  -7.601  -3.365  0.00  0.00    +0.188 HD
ATOM     15  H   UNL     1      -2.218  -9.098  -2.362  0.00  0.00    +0.188 HD
ENDROOT
BRANCH  13  16
ATOM     16  C   UNL     1      -3.426 -11.492  -2.696  0.00  0.00    +0.242 C 
ATOM     17  O   UNL     1      -3.305 -10.472  -3.353  0.00  0.00    -0.271 OA
ATOM     18  N   UNL     1      -4.263 -12.464  -3.110  0.00  0.00    -0.298 N 
ATOM     19  C   UNL     1      -5.116 -12.265  -4.290  0.00  0.00    +0.108 C 
ATOM     20  C   UNL     1      -4.886 -13.423  -5.266  0.00  0.00    +0.019 C 
ATOM     21  C   UNL     1      -5.116 -14.751  -4.540  0.00  0.00    +0.003 C 
ATOM     22  C   UNL     1      -4.117 -14.884  -3.388  0.00  0.00    +0.019 C 
ATOM     23  C   UNL     1      -4.335 -13.745  -2.394  0.00  0.00    +0.108 C 
ENDBRANCH  13  16
BRANCH   1  26
ATOM     24  C   UNL     1       0.999  -2.031   1.525  0.00  0.00    +0.162 A 
ATOM     25  C   UNL     1       0.723  -2.847   0.448  0.00  0.00    +0.057 A 
ATOM     26  C   UNL     1       0.082  -4.078   0.651  0.00  0.00    -0.021 A 
ATOM     27  C   UNL     1      -0.275  -4.471   1.949  0.00  0.00    +0.012 A 
ATOM     28  C   UNL     1       0.005  -3.649   3.017  0.00  0.00    +0.050 A 
ATOM     29  C   UNL     1       0.645  -2.432   2.814  0.00  0.00    +0.158 A 
BRANCH  29  30
ATOM     30  O   UNL     1       0.922  -1.629   3.873  0.00  0.00    -0.503 OA
ATOM     31  H   UNL     1       0.218  -1.002   4.087  0.00  0.00    +0.292 HD
ENDBRANCH  29  30
BRANCH  24  32
ATOM     32  O   UNL     1       1.621  -0.837   1.332  0.00  0.00    -0.489 OA
BRANCH  32  34
ATOM     33  C   UNL     1       2.642   0.877  -0.032  0.00  0.00    +0.048 C 
ATOM     34  C   UNL     1       1.954  -0.490  -0.013  0.00  0.00    +0.226 C 
ENDBRANCH  32  34
ENDBRANCH  24  32
ENDBRANCH   1  26
TORSDOF 5
