REMARK  Name = ZINC38769043
REMARK  8 active torsions:
REMARK  status: ('A' for Active; 'I' for Inactive)
REMARK    1  A    between atoms: C_1  and  C_2
REMARK    2  A    between atoms: C_2  and  C_4
REMARK    3  A    between atoms: C_2  and  N_21
REMARK    4  A    between atoms: C_22  and  C_24
REMARK    5  A    between atoms: C_27  and  C_30
REMARK    6  A    between atoms: C_30  and  C_31
REMARK    7  A    between atoms: C_30  and  C_32
REMARK    8  A    between atoms: C_30  and  C_33
REMARK                            x       y       z     vdW  Elec       q    Type
REMARK                         _______ _______ _______ _____ _____    ______ ____
ROOT
ATOM      1  C   UNL     1       0.835  -0.501   1.155  0.00  0.00    +0.236 C 
ATOM      2  O   UNL     1       0.295  -0.971   2.135  0.00  0.00    -0.274 OA
ATOM      3  N   UNL     1       2.179  -0.423   1.099  0.00  0.00    -0.300 N 
ATOM      4  C   UNL     1       2.843   0.249  -0.026  0.00  0.00    +0.106 C 
ATOM      5  C   UNL     1       3.865  -0.713  -0.640  0.00  0.00    +0.009 C 
ATOM      6  C   UNL     1       4.817  -1.205   0.451  0.00  0.00    -0.037 C 
ATOM      7  C   UNL     1       4.030  -1.955   1.526  0.00  0.00    +0.009 C 
ATOM      8  C   UNL     1       3.008  -1.002   2.165  0.00  0.00    +0.106 C 
ATOM      9  C   UNL     1       5.866  -2.134  -0.162  0.00  0.00    +0.140 C 
ATOM     10  C   UNL     1       6.680  -1.264  -1.116  0.00  0.00    +0.042 C 
ATOM     11  N   UNL     1       6.613  -1.831  -2.256  0.00  0.00    -0.243 NA
ATOM     12  C   UNL     1       5.793  -2.910  -2.232  0.00  0.00    +0.216 C 
ATOM     13  N   UNL     1       5.287  -3.151  -1.041  0.00  0.00    -0.264 NA
ATOM     14  C   UNL     1       7.271   0.050  -0.670  0.00  0.00    +0.034 C 
ATOM     15  C   UNL     1       6.136   0.803   0.049  0.00  0.00    -0.076 C 
ATOM     16  N   UNL     1       5.510  -0.058   1.055  0.00  0.00    +0.385 N 
ATOM     17  H   UNL     1       4.843   0.486   1.583  0.00  0.00    -0.085 HD
ATOM     18  H   UNL     1       6.222  -0.399   1.684  0.00  0.00    -0.085 HD
ENDROOT
BRANCH   1  20
ATOM     19  C   UNL     1      -0.187   1.508   0.122  0.00  0.00    +0.038 C 
ATOM     20  C   UNL     1       0.002  -0.006   0.001  0.00  0.00    +0.156 C 
BRANCH  20  21
ATOM     21  N   UNL     1      -1.306  -0.664   0.025  0.00  0.00    -0.300 N 
ATOM     22  C   UNL     1      -2.016  -0.792  -1.114  0.00  0.00    +0.245 C 
ATOM     23  O   UNL     1      -1.571  -0.361  -2.159  0.00  0.00    -0.270 OA
ATOM     24  H   UNL     1      -1.661  -1.009   0.859  0.00  0.00    +0.150 HD
BRANCH  22  25
ATOM     25  C   UNL     1      -3.337  -1.457  -1.090  0.00  0.00    +0.037 A 
ATOM     26  C   UNL     1      -3.853  -1.949   0.110  0.00  0.00    +0.013 A 
ATOM     27  C   UNL     1      -5.086  -2.568   0.125  0.00  0.00    +0.005 A 
ATOM     28  C   UNL     1      -5.810  -2.703  -1.046  0.00  0.00    -0.042 A 
ATOM     29  C   UNL     1      -5.304  -2.218  -2.240  0.00  0.00    +0.005 A 
ATOM     30  C   UNL     1      -4.075  -1.592  -2.267  0.00  0.00    +0.013 A 
BRANCH  28  31
ATOM     31  C   UNL     1      -7.156  -3.380  -1.023  0.00  0.00    -0.013 C 
ATOM     32  C   UNL     1      -8.096  -2.614  -0.090  0.00  0.00    +0.015 C 
ATOM     33  C   UNL     1      -7.742  -3.399  -2.436  0.00  0.00    +0.015 C 
ATOM     34  C   UNL     1      -6.995  -4.816  -0.518  0.00  0.00    +0.015 C 
ENDBRANCH  28  31
ENDBRANCH  22  25
ENDBRANCH  20  21
ENDBRANCH   1  20
TORSDOF 4
