REMARK  Name = ZINC40163735
REMARK  7 active torsions:
REMARK  status: ('A' for Active; 'I' for Inactive)
REMARK    1  A    between atoms: C_1  and  C_2
REMARK    2  A    between atoms: C_6  and  N_8
REMARK    3  A    between atoms: N_8  and  C_9
REMARK    4  A    between atoms: C_9  and  C_10
REMARK    5  A    between atoms: N_14  and  C_15
REMARK    6  A    between atoms: C_17  and  C_22
REMARK    7  A    between atoms: C_20  and  C_21
REMARK                            x       y       z     vdW  Elec       q    Type
REMARK                         _______ _______ _______ _____ _____    ______ ____
ROOT
ATOM      1  C   UNL     1       0.084  -4.774   3.796  0.00  0.00    +0.153 A 
ATOM      2  N   UNL     1       0.074  -4.041   4.863  0.00  0.00    -0.157 NA
ATOM      3  N   UNL     1       0.092  -4.891   5.977  0.00  0.00    -0.254 N 
ATOM      4  C   UNL     1       0.114  -6.159   5.515  0.00  0.00    +0.180 A 
ATOM      5  N   UNL     1       0.104  -6.098   4.168  0.00  0.00    -0.274 N 
ATOM      6  S   UNL     1       0.142  -7.583   6.465  0.00  0.00    -0.011 S 
ATOM      7  H   UNL     1       0.090  -4.619   6.908  0.00  0.00    +0.191 HD
ENDROOT
BRANCH   5   8
ATOM      8  C   UNL     1       0.115  -7.195   3.297  0.00  0.00    +0.053 A 
ATOM      9  C   UNL     1       1.322  -7.727   2.864  0.00  0.00    +0.030 A 
ATOM     10  C   UNL     1       1.330  -8.809   2.005  0.00  0.00    -0.048 A 
ATOM     11  C   UNL     1       0.137  -9.361   1.576  0.00  0.00    +0.004 A 
ATOM     12  C   UNL     1      -1.067  -8.833   2.005  0.00  0.00    +0.005 A 
ATOM     13  C   UNL     1      -1.081  -7.756   2.869  0.00  0.00    -0.026 A 
ATOM     14  C   UNL     1      -2.393  -7.186   3.343  0.00  0.00    +0.046 C 
ATOM     15  C   UNL     1       2.639  -9.387   1.534  0.00  0.00    +0.044 C 
ENDBRANCH   5   8
BRANCH   1  16
ATOM     16  C   UNL     1       0.071  -4.261   2.379  0.00  0.00    +0.178 C 
BRANCH  16  17
ATOM     17  N   UNL     1       0.051  -2.796   2.390  0.00  0.00    -0.337 N 
ATOM     18  H   UNL     1       0.049  -2.318   3.234  0.00  0.00    +0.147 HD
BRANCH  17  24
ATOM     19  C   UNL     1      -0.018   1.503   0.010  0.00  0.00    +0.044 C 
ATOM     20  C   UNL     1       0.002  -0.004   0.002  0.00  0.00    -0.049 A 
ATOM     21  C   UNL     1       0.006  -0.688  -1.200  0.00  0.00    +0.003 A 
ATOM     22  C   UNL     1       0.024  -2.071  -1.212  0.00  0.00    +0.002 A 
ATOM     23  C   UNL     1       0.039  -2.773  -0.023  0.00  0.00    +0.023 A 
ATOM     24  C   UNL     1       0.036  -2.089   1.186  0.00  0.00    +0.028 A 
ATOM     25  C   UNL     1       0.023  -0.700   1.194  0.00  0.00    +0.026 A 
ENDBRANCH  17  24
ENDBRANCH  16  17
ENDBRANCH   1  16
TORSDOF 4
