REMARK  Name = ZINC43519029
REMARK  6 active torsions:
REMARK  status: ('A' for Active; 'I' for Inactive)
REMARK    1  A    between atoms: C_1  and  C_2
REMARK    2  A    between atoms: C_2  and  C_4
REMARK    3  A    between atoms: C_2  and  O_6
REMARK    4  A    between atoms: O_6  and  C_7
REMARK    5  A    between atoms: C_7  and  C_9
REMARK    6  A    between atoms: C_11  and  N_17
REMARK                            x       y       z     vdW  Elec       q    Type
REMARK                         _______ _______ _______ _____ _____    ______ ____
ROOT
ATOM      1  C   UNL     1       0.535  -1.149  -3.519  0.00  0.00    +0.062 A 
ATOM      2  C   UNL     1      -0.248  -1.360  -4.655  0.00  0.00    +0.039 A 
ATOM      3  C   UNL     1       0.342  -1.807  -5.825  0.00  0.00    +0.045 A 
ATOM      4  C   UNL     1       1.713  -2.045  -5.867  0.00  0.00    +0.080 A 
ATOM      5  C   UNL     1       2.490  -1.836  -4.740  0.00  0.00    +0.062 A 
ATOM      6  C   UNL     1       1.911  -1.385  -3.571  0.00  0.00    +0.036 A 
ATOM      7 CL   UNL     1       4.199  -2.135  -4.800  0.00  0.00    -0.082 Cl
ATOM      8 CL   UNL     1       2.450  -2.605  -7.335  0.00  0.00    -0.080 Cl
ENDROOT
BRANCH   3   9
ATOM      9  N   UNL     1      -0.439  -2.020  -6.965  0.00  0.00    -0.357 N 
ATOM     10  H   UNL     1      -1.394  -1.855  -6.936  0.00  0.00    +0.142 HD
ATOM     11  H   UNL     1      -0.025  -2.333  -7.785  0.00  0.00    +0.142 HD
ENDBRANCH   3   9
BRANCH   1  12
ATOM     12  C   UNL     1      -0.088  -0.673  -2.267  0.00  0.00    +0.341 C 
ATOM     13  O   UNL     1      -1.285  -0.469  -2.224  0.00  0.00    -0.245 OA
BRANCH  12  14
ATOM     14  O   UNL     1       0.671  -0.465  -1.174  0.00  0.00    -0.443 OA
BRANCH  14  16
ATOM     15  C   UNL     1      -0.019   1.526   0.010  0.00  0.00    +0.068 C 
ATOM     16  C   UNL     1       0.002  -0.004   0.002  0.00  0.00    +0.275 C 
BRANCH  16  17
ATOM     17  C   UNL     1       0.714  -0.492   1.195  0.00  0.00    +0.107 C 
ATOM     18  N   UNL     1       1.263  -0.868   2.115  0.00  0.00    -0.193 NA
ENDBRANCH  16  17
ENDBRANCH  14  16
ENDBRANCH  12  14
ENDBRANCH   1  12
TORSDOF 5
