REMARK  Name = ZINC54527508
REMARK  6 active torsions:
REMARK  status: ('A' for Active; 'I' for Inactive)
REMARK    1  A    between atoms: C_1  and  C_2
REMARK    2  A    between atoms: C_5  and  C_8
REMARK    3  A    between atoms: C_8  and  N_9
REMARK    4  A    between atoms: C_11  and  C_18
REMARK    5  A    between atoms: C_12  and  C_17
REMARK    6  A    between atoms: C_13  and  C_16
REMARK                            x       y       z     vdW  Elec       q    Type
REMARK                         _______ _______ _______ _____ _____    ______ ____
ROOT
ATOM      1  N   UNL     1       1.387  -4.759  -0.046  0.00  0.00    -0.323 N 
ATOM      2  C   UNL     1       1.687  -6.107  -0.048  0.00  0.00    +0.154 A 
ATOM      3  C   UNL     1       3.024  -6.537  -0.161  0.00  0.00    +0.109 A 
ATOM      4  C   UNL     1       3.264  -7.919  -0.156  0.00  0.00    -0.013 A 
ATOM      5  C   UNL     1       2.174  -8.765  -0.040  0.00  0.00    +0.035 A 
ATOM      6  N   UNL     1       0.956  -8.269   0.061  0.00  0.00    -0.280 N 
ATOM      7  N   UNL     1       0.719  -7.009   0.063  0.00  0.00    -0.158 NA
ATOM      8  C   UNL     1       2.380 -10.258  -0.030  0.00  0.00    +0.065 C 
ATOM      9  C   UNL     1       4.663  -8.465  -0.273  0.00  0.00    +0.046 C 
ATOM     10  H   UNL     1       2.101  -4.103  -0.052  0.00  0.00    +0.148 HD
ATOM     11  H   UNL     1       0.209  -8.883   0.140  0.00  0.00    +0.189 HD
ENDROOT
BRANCH   3  12
ATOM     12  C   UNL     1       4.130  -5.571  -0.280  0.00  0.00    +0.390 C 
ATOM     13  O   UNL     1       4.744  -5.217   0.717  0.00  0.00    -0.240 OA
ATOM     14  O   UNL     1       4.433  -5.122  -1.377  0.00  0.00    -0.240 OA
ENDBRANCH   3  12
BRANCH   1  15
ATOM     15  C   UNL     1      -0.011  -4.320  -0.035  0.00  0.00    +0.138 C 
BRANCH  15  20
ATOM     16  C   UNL     1      -0.218   1.455  -0.037  0.00  0.00    +0.044 C 
ATOM     17  C   UNL     1      -0.164  -0.051  -0.036  0.00  0.00    -0.050 A 
ATOM     18  C   UNL     1      -0.148  -0.742  -1.233  0.00  0.00    +0.003 A 
ATOM     19  C   UNL     1      -0.099  -2.124  -1.233  0.00  0.00    +0.005 A 
ATOM     20  C   UNL     1      -0.064  -2.814  -0.035  0.00  0.00    -0.030 A 
ATOM     21  C   UNL     1      -0.079  -2.122   1.161  0.00  0.00    +0.005 A 
ATOM     22  C   UNL     1      -0.124  -0.740   1.161  0.00  0.00    +0.003 A 
ENDBRANCH  15  20
ENDBRANCH   1  15
TORSDOF 3
