REMARK  Name = ZINC39467214
REMARK  7 active torsions:
REMARK  status: ('A' for Active; 'I' for Inactive)
REMARK    1  A    between atoms: C_1  and  O_2
REMARK    2  A    between atoms: O_2  and  C_3
REMARK    3  A    between atoms: P_12  and  C_31
REMARK    4  A    between atoms: C_20  and  S_21
REMARK    5  A    between atoms: S_21  and  O_24
REMARK    6  A    between atoms: O_24  and  C_25
REMARK    7  A    between atoms: C_36  and  O_37
REMARK                            x       y       z     vdW  Elec       q    Type
REMARK                         _______ _______ _______ _____ _____    ______ ____
ROOT
ATOM      1  C   UNL     1       0.367  -0.604  -1.046  0.00  0.00    +0.144 C 
ATOM      2  C   UNL     1       0.985   0.130  -1.980  0.00  0.00    +0.024 C 
ATOM      3  C   UNL     1       1.777  -0.577  -3.046  0.00  0.00    +0.019 C 
ATOM      4  C   UNL     1       2.834   0.336  -3.658  0.00  0.00    -0.002 C 
ATOM      5  C   UNL     1       3.637  -0.445  -4.708  0.00  0.00    -0.020 C 
ATOM      6  C   UNL     1       4.697   0.510  -5.273  0.00  0.00    +0.157 C 
ATOM      7  O   UNL     1       5.420  -0.151  -6.328  0.00  0.00    -0.316 OA
ATOM      8  P   UNL     1       6.021  -1.632  -6.021  0.00  0.00    +0.291 P 
ATOM      9  O   UNL     1       7.292  -1.524  -5.270  0.00  0.00    -0.269 OA
ATOM     10  N   UNL     1       4.875  -2.384  -5.101  0.00  0.00    -0.288 NA
ATOM     11  N   UNL     1       4.266  -1.627  -4.120  0.00  0.00    +0.398 N 
ATOM     12  C   UNL     1       3.268  -2.514  -3.498  0.00  0.00    -0.046 C 
ATOM     13  C   UNL     1       2.497  -1.776  -2.413  0.00  0.00    +0.006 C 
ATOM     14  C   UNL     1       1.481  -2.651  -1.734  0.00  0.00    +0.009 C 
ATOM     15  C   UNL     1       0.470  -2.076  -1.087  0.00  0.00    +0.165 C 
ATOM     16  H   UNL     1       4.650  -3.317  -5.242  0.00  0.00    +0.111 HD
ATOM     17  H   UNL     1       4.943  -1.340  -3.429  0.00  0.00    -0.055 HD
ENDROOT
BRANCH   8  18
ATOM     18  C   UNL     1       6.283  -2.538  -7.571  0.00  0.00    +0.091 A 
ATOM     19  C   UNL     1       5.270  -3.316  -8.096  0.00  0.00    +0.018 A 
ATOM     20  C   UNL     1       5.469  -4.007  -9.277  0.00  0.00    +0.001 A 
ATOM     21  C   UNL     1       6.683  -3.921  -9.935  0.00  0.00    +0.004 A 
ATOM     22  C   UNL     1       7.699  -3.144  -9.413  0.00  0.00    +0.046 A 
ATOM     23  C   UNL     1       7.500  -2.445  -8.231  0.00  0.00    +0.131 A 
BRANCH  23  24
ATOM     24  O   UNL     1       8.496  -1.676  -7.719  0.00  0.00    -0.506 OA
ATOM     25  H   UNL     1       9.085  -2.147  -7.114  0.00  0.00    +0.292 HD
ENDBRANCH  23  24
ENDBRANCH   8  18
BRANCH  15  26
ATOM     26  S   UNL     1      -0.744  -3.070  -0.285  0.00  0.00    +0.154 S 
ATOM     27  O   UNL     1      -0.338  -4.422  -0.455  0.00  0.00    -0.131 OA
ATOM     28  O   UNL     1      -0.959  -2.495   0.996  0.00  0.00    -0.131 OA
BRANCH  26  29
ATOM     29  O   UNL     1      -2.043  -2.906  -1.060  0.00  0.00    -0.342 OA
BRANCH  29  30
ATOM     30  C   UNL     1      -2.070  -3.574  -2.243  0.00  0.00    +0.157 A 
ATOM     31  C   UNL     1      -1.588  -2.968  -3.394  0.00  0.00    +0.048 A 
ATOM     32  C   UNL     1      -1.616  -3.650  -4.596  0.00  0.00    +0.004 A 
ATOM     33  C   UNL     1      -2.124  -4.934  -4.651  0.00  0.00    +0.000 A 
ATOM     34  C   UNL     1      -2.606  -5.540  -3.505  0.00  0.00    +0.004 A 
ATOM     35  C   UNL     1      -2.575  -4.865  -2.301  0.00  0.00    +0.048 A 
ENDBRANCH  29  30
ENDBRANCH  26  29
ENDBRANCH  15  26
BRANCH   1  37
ATOM     36  C   UNL     1      -0.491   1.423  -0.147  0.00  0.00    +0.277 C 
ATOM     37  O   UNL     1      -0.347   0.004  -0.062  0.00  0.00    -0.493 OA
ENDBRANCH   1  37
TORSDOF 6
