REMARK  Name = ZINC67177061
REMARK  4 active torsions:
REMARK  status: ('A' for Active; 'I' for Inactive)
REMARK    1  A    between atoms: C_4  and  O_25
REMARK    2  A    between atoms: C_5  and  C_7
REMARK    3  A    between atoms: C_7  and  C_8
REMARK    4  A    between atoms: C_14  and  C_17
REMARK                            x       y       z     vdW  Elec       q    Type
REMARK                         _______ _______ _______ _____ _____    ______ ____
ROOT
ATOM      1  C   UNL     1       1.372  -2.695   1.389  0.00  0.00    +0.220 C 
ATOM      2  O   UNL     1       1.451  -1.911   2.311  0.00  0.00    -0.275 OA
ATOM      3  N   UNL     1       1.413  -4.021   1.627  0.00  0.00    -0.296 N 
ATOM      4  C   UNL     1       1.325  -4.991   0.524  0.00  0.00    +0.136 C 
ATOM      5  C   UNL     1       2.481  -5.989   0.664  0.00  0.00    +0.179 C 
ATOM      6  O   UNL     1       2.478  -6.530   1.987  0.00  0.00    -0.369 OA
ATOM      7  C   UNL     1       2.693  -5.561   3.016  0.00  0.00    +0.166 C 
ATOM      8  C   UNL     1       1.554  -4.542   2.996  0.00  0.00    +0.144 C 
ENDROOT
BRANCH   7   9
ATOM      9  C   UNL     1       2.732  -6.250   4.356  0.00  0.00    -0.016 A 
ATOM     10  C   UNL     1       1.928  -7.350   4.591  0.00  0.00    +0.009 A 
ATOM     11  C   UNL     1       1.964  -7.983   5.819  0.00  0.00    +0.040 A 
ATOM     12  C   UNL     1       2.805  -7.516   6.814  0.00  0.00    +0.142 A 
ATOM     13  C   UNL     1       3.610  -6.414   6.578  0.00  0.00    +0.076 A 
ATOM     14  C   UNL     1       3.577  -5.785   5.346  0.00  0.00    +0.029 A 
ATOM     15 CL   UNL     1       4.666  -5.826   7.825  0.00  0.00    -0.081 Cl
ATOM     16  F   UNL     1       2.840  -8.134   8.015  0.00  0.00    -0.204 F 
ENDBRANCH   7   9
BRANCH   1  17
ATOM     17  C   UNL     1       1.227  -2.187  -0.022  0.00  0.00    +0.134 C 
BRANCH  17  22
ATOM     18  C   UNL     1      -0.017   1.378   0.010  0.00  0.00    +0.001 A 
ATOM     19  C   UNL     1       1.170   2.088   0.002  0.00  0.00    +0.004 A 
ATOM     20  C   UNL     1       2.377   1.417  -0.013  0.00  0.00    +0.046 A 
ATOM     21  C   UNL     1       2.399   0.030  -0.021  0.00  0.00    +0.120 A 
ATOM     22  C   UNL     1       1.207  -0.680  -0.013  0.00  0.00    +0.003 A 
ATOM     23  C   UNL     1       0.002  -0.004   0.002  0.00  0.00    +0.008 A 
BRANCH  21  24
ATOM     24  O   UNL     1       3.586  -0.632  -0.037  0.00  0.00    -0.506 OA
ATOM     25  H   UNL     1       3.938  -0.829   0.842  0.00  0.00    +0.292 HD
ENDBRANCH  21  24
ENDBRANCH  17  22
ENDBRANCH   1  17
TORSDOF 4
