REMARK  Name = ZINC35347061
REMARK  5 active torsions:
REMARK  status: ('A' for Active; 'I' for Inactive)
REMARK    1  A    between atoms: C_1  and  C_2
REMARK    2  A    between atoms: C_6  and  N_20
REMARK    3  A    between atoms: C_7  and  S_8
REMARK    4  A    between atoms: S_8  and  N_11
REMARK    5  A    between atoms: C_15  and  C_17
REMARK                            x       y       z     vdW  Elec       q    Type
REMARK                         _______ _______ _______ _____ _____    ______ ____
ROOT
ATOM      1  S   UNL     1       1.256  -0.196   2.630  0.00  0.00    +0.064 S 
ATOM      2  O   UNL     1       1.714  -1.301   3.398  0.00  0.00    -0.153 OA
ATOM      3  O   UNL     1       2.114   0.865   2.235  0.00  0.00    -0.153 OA
ENDROOT
BRANCH   1  10
ATOM      4  C   UNL     1       0.970   1.342   0.043  0.00  0.00    +0.046 C 
ATOM      5  C   UNL     1       0.475  -0.081   0.018  0.00  0.00    -0.022 A 
ATOM      6  C   UNL     1      -0.062  -0.605  -1.144  0.00  0.00    +0.005 A 
ATOM      7  C   UNL     1      -0.517  -1.910  -1.172  0.00  0.00    +0.002 A 
ATOM      8  C   UNL     1      -0.436  -2.696  -0.038  0.00  0.00    +0.025 A 
ATOM      9  C   UNL     1       0.104  -2.173   1.130  0.00  0.00    +0.051 A 
ATOM     10  C   UNL     1       0.565  -0.863   1.153  0.00  0.00    +0.129 A 
BRANCH   9  11
ATOM     11  N   UNL     1       0.187  -2.965   2.278  0.00  0.00    -0.356 N 
ATOM     12  H   UNL     1       0.185  -3.931   2.201  0.00  0.00    +0.142 HD
ATOM     13  H   UNL     1       0.247  -2.547   3.151  0.00  0.00    +0.142 HD
ENDBRANCH   9  11
ENDBRANCH   1  10
BRANCH   1  14
ATOM     14  N   UNL     1       0.015   0.491   3.485  0.00  0.00    -0.165 NA
ATOM     15  C   UNL     1      -0.441   1.888   3.364  0.00  0.00    +0.110 C 
ATOM     16  C   UNL     1      -1.915   1.866   3.840  0.00  0.00    +0.019 C 
ATOM     17  C   UNL     1      -1.854   0.832   4.995  0.00  0.00    +0.031 C 
ATOM     18  C   UNL     1      -0.819  -0.192   4.484  0.00  0.00    +0.165 C 
BRANCH  18  19
ATOM     19  C   UNL     1       0.039  -0.664   5.630  0.00  0.00    +0.229 C 
ATOM     20  O   UNL     1       1.233  -0.454   5.620  0.00  0.00    -0.274 OA
ATOM     21  N   UNL     1      -0.521  -1.320   6.666  0.00  0.00    -0.328 N 
ATOM     22  H   UNL     1      -1.477  -1.488   6.674  0.00  0.00    +0.145 HD
ATOM     23  H   UNL     1       0.030  -1.624   7.403  0.00  0.00    +0.145 HD
ENDBRANCH  18  19
ENDBRANCH   1  14
TORSDOF 4
