REMARK  Name = ZINC34909260
REMARK  9 active torsions:
REMARK  status: ('A' for Active; 'I' for Inactive)
REMARK    1  A    between atoms: C_1  and  C_2
REMARK    2  A    between atoms: C_2  and  O_3
REMARK    3  A    between atoms: O_3  and  C_4
REMARK    4  A    between atoms: C_4  and  C_6
REMARK    5  A    between atoms: C_8  and  C_20
REMARK    6  A    between atoms: C_14  and  C_15
REMARK    7  A    between atoms: C_14  and  O_19
REMARK    8  A    between atoms: C_22  and  N_27
REMARK    9  A    between atoms: C_25  and  O_26
REMARK                            x       y       z     vdW  Elec       q    Type
REMARK                         _______ _______ _______ _____ _____    ______ ____
ROOT
ATOM      1  C   UNL     1       1.467  -2.354  -2.568  0.00  0.00    +0.181 C 
ATOM      2  C   UNL     1       1.567  -3.878  -2.445  0.00  0.00    +0.124 C 
ATOM      3  N   UNL     1       2.406  -4.213  -1.293  0.00  0.00    -0.319 N 
ATOM      4  C   UNL     1       3.386  -3.394  -0.882  0.00  0.00    +0.133 C 
ATOM      5  S   UNL     1       4.336  -3.860   0.464  0.00  0.00    -0.019 S 
ATOM      6  N   UNL     1       3.651  -2.225  -1.484  0.00  0.00    -0.291 N 
ATOM      7  C   UNL     1       2.882  -1.772  -2.650  0.00  0.00    +0.244 C 
ATOM      8  H   UNL     1       2.250  -5.043  -0.817  0.00  0.00    +0.148 HD
ATOM      9  H   UNL     1       4.366  -1.666  -1.142  0.00  0.00    +0.151 HD
ENDROOT
BRANCH   2  10
ATOM     10  C   UNL     1       0.191  -4.460  -2.254  0.00  0.00    +0.017 A 
ATOM     11  C   UNL     1      -0.281  -4.714  -0.980  0.00  0.00    +0.041 A 
ATOM     12  C   UNL     1      -1.544  -5.248  -0.804  0.00  0.00    +0.127 A 
ATOM     13  C   UNL     1      -2.338  -5.528  -1.901  0.00  0.00    +0.036 A 
ATOM     14  C   UNL     1      -1.871  -5.276  -3.175  0.00  0.00    +0.048 A 
ATOM     15  C   UNL     1      -0.606  -4.735  -3.355  0.00  0.00    +0.122 A 
BRANCH  12  16
ATOM     16  N   UNL     1      -2.047  -5.520   0.561  0.00  0.00    +0.056 N 
ATOM     17  O   UNL     1      -1.354  -5.275   1.521  0.00  0.00    -0.126 OA
ATOM     18  O   UNL     1      -3.152  -5.986   0.717  0.00  0.00    -0.126 OA
ENDBRANCH  12  16
BRANCH  15  19
ATOM     19  O   UNL     1      -0.146  -4.481  -4.609  0.00  0.00    -0.506 OA
ATOM     20  H   UNL     1       0.325  -5.222  -5.012  0.00  0.00    +0.292 HD
ENDBRANCH  15  19
ENDBRANCH   2  10
BRANCH   7  21
ATOM     21  C   UNL     1       2.808  -0.244  -2.659  0.00  0.00    +0.436 C 
ATOM     22  F   UNL     1       2.309   0.206  -1.432  0.00  0.00    -0.166 F 
ATOM     23  F   UNL     1       4.087   0.284  -2.865  0.00  0.00    -0.166 F 
ATOM     24  F   UNL     1       1.959   0.175  -3.689  0.00  0.00    -0.166 F 
ENDBRANCH   7  21
BRANCH   1  25
ATOM     25  C   UNL     1       0.759  -1.794  -1.361  0.00  0.00    +0.317 C 
ATOM     26  O   UNL     1       1.162  -2.052  -0.251  0.00  0.00    -0.250 OA
BRANCH  25  27
ATOM     27  O   UNL     1      -0.319  -1.010  -1.518  0.00  0.00    -0.465 OA
BRANCH  27  29
ATOM     28  C   UNL     1      -2.142   0.352  -0.707  0.00  0.00    +0.048 C 
ATOM     29  C   UNL     1      -0.940  -0.515  -0.330  0.00  0.00    +0.229 C 
ENDBRANCH  27  29
ENDBRANCH  25  27
ENDBRANCH   1  25
BRANCH   7  30
ATOM     30  O   UNL     1       3.517  -2.228  -3.846  0.00  0.00    -0.364 OA
ATOM     31  H   UNL     1       4.419  -1.898  -3.963  0.00  0.00    +0.212 HD
ENDBRANCH   7  30
TORSDOF 8
