REMARK  Name = ZINC61518825
REMARK  2 active torsions:
REMARK  status: ('A' for Active; 'I' for Inactive)
REMARK    1  A    between atoms: C_1  and  C_2
REMARK    2  A    between atoms: C_6  and  C_18
REMARK                            x       y       z     vdW  Elec       q    Type
REMARK                         _______ _______ _______ _____ _____    ______ ____
ROOT
ATOM      1  C   UNL     1       0.008   1.528  -0.005  0.00  0.00    +0.028 C 
ATOM      2  C   UNL     1       0.015  -0.002  -0.007  0.00  0.00    +0.073 C 
ATOM      3  C   UNL     1       0.632  -0.512  -1.313  0.00  0.00    +0.023 C 
ATOM      4  C   UNL     1       0.765  -2.035  -1.250  0.00  0.00    +0.016 C 
ATOM      5  C   UNL     1       1.692  -2.421  -0.095  0.00  0.00    +0.092 C 
ATOM      6  C   UNL     1       1.087  -1.933   1.225  0.00  0.00    +0.121 C 
ATOM      7  N   UNL     1       0.819  -0.492   1.122  0.00  0.00    -0.296 N 
ATOM      8  C   UNL     1       1.316   0.385   2.064  0.00  0.00    +0.223 A 
ATOM      9  N   UNL     1       2.139  -0.051   3.013  0.00  0.00    -0.184 NA
ATOM     10  C   UNL     1       2.613   0.791   3.914  0.00  0.00    +0.228 A 
ATOM     11  N   UNL     1       2.269   2.070   3.873  0.00  0.00    -0.187 NA
ATOM     12  C   UNL     1       1.449   2.508   2.930  0.00  0.00    +0.228 A 
ATOM     13  N   UNL     1       0.976   1.671   2.022  0.00  0.00    -0.184 NA
ATOM     14 CL   UNL     1       1.000   4.184   2.881  0.00  0.00    -0.041 Cl
ATOM     15 CL   UNL     1       3.688   0.222   5.153  0.00  0.00    -0.041 Cl
ENDROOT
BRANCH   5  16
ATOM     16  C   UNL     1       1.848  -3.919  -0.055  0.00  0.00    +0.215 C 
ATOM     17  O   UNL     1       1.274  -4.611  -0.869  0.00  0.00    -0.276 OA
ATOM     18  N   UNL     1       2.625  -4.490   0.887  0.00  0.00    -0.329 N 
ATOM     19  H   UNL     1       3.084  -3.937   1.538  0.00  0.00    +0.145 HD
ATOM     20  H   UNL     1       2.726  -5.455   0.913  0.00  0.00    +0.145 HD
ENDBRANCH   5  16
TORSDOF 1
