REMARK  Name = ZINC10609616
REMARK  12 active torsions:
REMARK  status: ('A' for Active; 'I' for Inactive)
REMARK    1  A    between atoms: C_1  and  C_2
REMARK    2  A    between atoms: C_2  and  C_3
REMARK    3  A    between atoms: C_2  and  C_4
REMARK    4  A    between atoms: C_2  and  C_5
REMARK    5  A    between atoms: C_8  and  C_11
REMARK    6  A    between atoms: N_13  and  C_14
REMARK    7  A    between atoms: C_14  and  C_15
REMARK    8  A    between atoms: C_15  and  O_17
REMARK    9  A    between atoms: O_17  and  C_18
REMARK   10  A    between atoms: C_18  and  C_19
REMARK   11  A    between atoms: N_21  and  C_22
REMARK   12  A    between atoms: C_23  and  C_31
REMARK                            x       y       z     vdW  Elec       q    Type
REMARK                         _______ _______ _______ _____ _____    ______ ____
ROOT
ATOM      1  C   UNL     1      -1.330   1.944   0.019  0.00  0.00    +0.328 C 
ENDROOT
BRANCH   1   2
ATOM      2  C   UNL     1      -0.014   1.209   0.009  0.00  0.00    +0.255 C 
ATOM      3  O   UNL     1       0.002  -0.004   0.002  0.00  0.00    -0.272 OA
ATOM      4  N   UNL     1       1.143   1.898   0.001  0.00  0.00    -0.277 N 
ATOM      5  H   UNL     1       1.130   2.868   0.007  0.00  0.00    +0.155 HD
BRANCH   4   6
ATOM      6  C   UNL     1       2.354   1.221  -0.014  0.00  0.00    +0.084 A 
ATOM      7  C   UNL     1       3.637   1.749  -0.029  0.00  0.00    +0.068 A 
ATOM      8  C   UNL     1       4.748   0.813  -0.039  0.00  0.00    -0.023 A 
ATOM      9  C   UNL     1       4.401  -0.492  -0.044  0.00  0.00    -0.004 A 
ATOM     10  S   UNL     1       2.630  -0.489  -0.026  0.00  0.00    -0.077 S 
ATOM     11  C   UNL     1       5.323  -1.672  -0.060  0.00  0.00    +0.043 C 
ATOM     12  C   UNL     1       6.726  -1.184  -0.449  0.00  0.00    +0.005 C 
ATOM     13  C   UNL     1       7.070   0.049   0.392  0.00  0.00    +0.005 C 
ATOM     14  C   UNL     1       6.212   1.236  -0.050  0.00  0.00    +0.037 C 
BRANCH   7  15
ATOM     15  C   UNL     1       3.863   3.198  -0.031  0.00  0.00    +0.244 C 
ATOM     16  O   UNL     1       3.970   3.799   1.023  0.00  0.00    -0.270 OA
ATOM     17  N   UNL     1       3.952   3.865  -1.199  0.00  0.00    -0.325 N 
ATOM     18  H   UNL     1       3.867   3.386  -2.038  0.00  0.00    +0.145 HD
ATOM     19  H   UNL     1       4.102   4.823  -1.200  0.00  0.00    +0.145 HD
ENDBRANCH   7  15
ENDBRANCH   4   6
ENDBRANCH   1   2
BRANCH   1  20
ATOM     20  O   UNL     1      -2.420   0.986   0.019  0.00  0.00    -0.454 OA
BRANCH  20  21
ATOM     21  C   UNL     1      -3.667   1.482   0.028  0.00  0.00    +0.325 C 
ATOM     22  O   UNL     1      -3.842   2.678   0.035  0.00  0.00    -0.249 OA
BRANCH  21  23
ATOM     23  C   UNL     1      -4.850   0.548   0.028  0.00  0.00    +0.225 C 
BRANCH  23  26
ATOM     24  C   UNL     1      -7.282   0.701   0.040  0.00  0.00    +0.245 C 
ATOM     25  O   UNL     1      -7.329  -0.514   0.034  0.00  0.00    -0.270 OA
ATOM     26  N   UNL     1      -6.089   1.329   0.038  0.00  0.00    -0.301 N 
ATOM     27  H   UNL     1      -6.052   2.298   0.043  0.00  0.00    +0.150 HD
BRANCH  24  31
ATOM     28  C   UNL     1     -10.875   2.966   0.071  0.00  0.00    -0.042 A 
ATOM     29  C   UNL     1     -10.932   1.583   0.063  0.00  0.00    +0.005 A 
ATOM     30  C   UNL     1      -9.769   0.842   0.053  0.00  0.00    +0.013 A 
ATOM     31  C   UNL     1      -8.533   1.489   0.051  0.00  0.00    +0.037 A 
ATOM     32  C   UNL     1      -8.482   2.884   0.064  0.00  0.00    +0.013 A 
ATOM     33  C   UNL     1      -9.653   3.614   0.069  0.00  0.00    +0.005 A 
BRANCH  28  35
ATOM     34  C   UNL     1     -12.960   3.423   1.333  0.00  0.00    +0.015 C 
ATOM     35  C   UNL     1     -12.150   3.769   0.082  0.00  0.00    -0.013 C 
ATOM     36  C   UNL     1     -11.812   5.261   0.090  0.00  0.00    +0.015 C 
ATOM     37  C   UNL     1     -12.972   3.438  -1.165  0.00  0.00    +0.015 C 
ENDBRANCH  28  35
ENDBRANCH  24  31
ENDBRANCH  23  26
ENDBRANCH  21  23
ENDBRANCH  20  21
ENDBRANCH   1  20
TORSDOF 9
