REMARK  Name = ZINC00124021
REMARK  5 active torsions:
REMARK  status: ('A' for Active; 'I' for Inactive)
REMARK    1  A    between atoms: C_1  and  C_2
REMARK    2  A    between atoms: C_2  and  C_3
REMARK    3  A    between atoms: C_2  and  N_4
REMARK    4  A    between atoms: C_8  and  C_12
REMARK    5  A    between atoms: C_14  and  C_17
REMARK                            x       y       z     vdW  Elec       q    Type
REMARK                         _______ _______ _______ _____ _____    ______ ____
ROOT
ATOM      1  N   UNL     1       4.094  -0.465  -0.039  0.00  0.00    -0.293 N 
ATOM      2  C   UNL     1       3.429   0.707  -0.026  0.00  0.00    +0.336 C 
ATOM      3  O   UNL     1       4.044   1.755  -0.026  0.00  0.00    -0.248 OA
ATOM      4  N   UNL     1       2.081   0.717  -0.014  0.00  0.00    -0.180 N 
ATOM      5  C   UNL     1       1.279   1.829  -0.000  0.00  0.00    +0.117 A 
ATOM      6  C   UNL     1      -0.017   1.392   0.010  0.00  0.00    +0.053 A 
ATOM      7  C   UNL     1       0.002  -0.004   0.002  0.00  0.00    +0.135 A 
ATOM      8  N   UNL     1       1.246  -0.408  -0.012  0.00  0.00    -0.171 NA
ATOM      9  H   UNL     1       3.603  -1.301  -0.039  0.00  0.00    +0.151 HD
ENDROOT
BRANCH   5  10
ATOM     10  C   UNL     1       1.729   3.231   0.003  0.00  0.00    +0.186 A 
ATOM     11  C   UNL     1       0.941   4.346   0.106  0.00  0.00    +0.082 A 
ATOM     12  C   UNL     1       1.866   5.420   0.060  0.00  0.00    +0.114 A 
ATOM     13  N   UNL     1       3.053   4.880  -0.069  0.00  0.00    -0.078 NA
ATOM     14  O   UNL     1       2.996   3.673  -0.102  0.00  0.00    -0.353 OA
BRANCH  12  15
ATOM     15  C   UNL     1       1.552   6.869   0.136  0.00  0.00    +0.004 A 
ATOM     16  C   UNL     1       0.231   7.292   0.267  0.00  0.00    +0.010 A 
ATOM     17  C   UNL     1      -0.056   8.640   0.343  0.00  0.00    +0.001 A 
ATOM     18  C   UNL     1       0.965   9.571   0.277  0.00  0.00    +0.000 A 
ATOM     19  C   UNL     1       2.278   9.157   0.141  0.00  0.00    +0.001 A 
ATOM     20  C   UNL     1       2.576   7.811   0.070  0.00  0.00    +0.010 A 
ENDBRANCH  12  15
ENDBRANCH   5  10
BRANCH   1  22
ATOM     21  C   UNL     1       6.066  -1.789   0.545  0.00  0.00    +0.027 C 
ATOM     22  C   UNL     1       5.559  -0.475  -0.053  0.00  0.00    +0.069 C 
ATOM     23  C   UNL     1       6.057  -0.345  -1.494  0.00  0.00    +0.027 C 
ENDBRANCH   1  22
TORSDOF 3
