REMARK  Name = ZINC09466397
REMARK  10 active torsions:
REMARK  status: ('A' for Active; 'I' for Inactive)
REMARK    1  A    between atoms: C_1  and  C_2
REMARK    2  A    between atoms: C_2  and  C_3
REMARK    3  A    between atoms: C_3  and  C_4
REMARK    4  A    between atoms: C_4  and  N_5
REMARK    5  A    between atoms: C_6  and  N_35
REMARK    6  A    between atoms: C_7  and  N_14
REMARK    7  A    between atoms: N_14  and  C_15
REMARK    8  A    between atoms: C_20  and  C_22
REMARK    9  A    between atoms: C_22  and  S_23
REMARK   10  A    between atoms: S_23  and  C_24
REMARK                            x       y       z     vdW  Elec       q    Type
REMARK                         _______ _______ _______ _____ _____    ______ ____
ROOT
ATOM      1  N   UNL     1       8.614  -2.202  -0.030  0.00  0.00    -0.260 N 
ATOM      2  C   UNL     1       8.222  -0.949  -0.343  0.00  0.00    +0.231 C 
ATOM      3  O   UNL     1       9.049  -0.102  -0.607  0.00  0.00    -0.274 OA
ENDROOT
BRANCH   1   6
ATOM      4  N   UNL     1      12.069  -2.248   1.219  0.00  0.00    -0.280 N 
ATOM      5  C   UNL     1      10.733  -1.939   1.118  0.00  0.00    +0.127 A 
ATOM      6  C   UNL     1       9.987  -2.499   0.101  0.00  0.00    +0.140 A 
ATOM      7  C   UNL     1      10.619  -3.376  -0.801  0.00  0.00    +0.277 A 
ATOM      8  O   UNL     1       9.982  -3.889  -1.706  0.00  0.00    -0.266 OA
ATOM      9  N   UNL     1      11.932  -3.642  -0.660  0.00  0.00    -0.273 N 
ATOM     10  H   UNL     1      12.384  -4.258  -1.305  0.00  0.00    +0.173 HD
ATOM     11  C   UNL     1      12.643  -3.086   0.337  0.00  0.00    +0.331 A 
ATOM     12  O   UNL     1      13.826  -3.346   0.444  0.00  0.00    -0.246 OA
BRANCH   5  13
ATOM     13  N   UNL     1      10.147  -1.082   2.019  0.00  0.00    -0.343 N 
ATOM     14  H   UNL     1       9.188  -0.939   1.999  0.00  0.00    +0.144 HD
ATOM     15  H   UNL     1      10.693  -0.621   2.675  0.00  0.00    +0.144 HD
ENDBRANCH   5  13
BRANCH   4  16
ATOM     16  C   UNL     1      12.873  -1.660   2.294  0.00  0.00    +0.128 C 
BRANCH  16  17
ATOM     17  C   UNL     1      12.830  -2.572   3.521  0.00  0.00    +0.021 C 
BRANCH  17  19
ATOM     18  C   UNL     1      13.626  -2.871   5.870  0.00  0.00    +0.004 C 
ATOM     19  C   UNL     1      13.669  -1.959   4.643  0.00  0.00    -0.002 C 
ENDBRANCH  17  19
ENDBRANCH  16  17
ENDBRANCH   4  16
ENDBRANCH   1   6
BRANCH   1  20
ATOM     20  C   UNL     1       7.615  -3.253   0.175  0.00  0.00    +0.082 C 
ATOM     21  C   UNL     1       6.801  -3.468  -1.118  0.00  0.00    +0.023 C 
ATOM     22  C   UNL     1       5.362  -3.752  -0.618  0.00  0.00    +0.002 C 
ATOM     23  C   UNL     1       5.223  -2.791   0.589  0.00  0.00    +0.002 C 
ATOM     24  C   UNL     1       6.612  -2.823   1.260  0.00  0.00    +0.023 C 
ENDBRANCH   1  20
BRANCH   2  25
ATOM     25  C   UNL     1       6.755  -0.603  -0.365  0.00  0.00    +0.173 C 
BRANCH  25  26
ATOM     26  S   UNL     1       6.541   1.075  -1.010  0.00  0.00    -0.078 S 
BRANCH  26  27
ATOM     27  C   UNL     1       4.787   1.213  -0.927  0.00  0.00    +0.169 A 
ATOM     28  N   UNL     1       4.066   2.312  -1.304  0.00  0.00    -0.318 N 
ATOM     29  H   UNL     1       4.437   3.166  -1.671  0.00  0.00    +0.169 HD
ATOM     30  C   UNL     1       2.731   2.026  -1.086  0.00  0.00    +0.159 A 
ATOM     31  C   UNL     1       2.695   0.719  -0.568  0.00  0.00    +0.110 A 
ATOM     32  N   UNL     1       3.977   0.278  -0.494  0.00  0.00    -0.220 NA
ATOM     33  C   UNL     1       1.459   0.152  -0.246  0.00  0.00    +0.053 A 
ATOM     34  C   UNL     1       0.319   0.909  -0.455  0.00  0.00    +0.061 A 
ATOM     35  C   UNL     1       0.435   2.190  -0.969  0.00  0.00    +0.133 A 
ATOM     36  N   UNL     1       1.611   2.705  -1.266  0.00  0.00    -0.234 NA
ATOM     37 CL   UNL     1      -1.245   0.258  -0.074  0.00  0.00    -0.082 Cl
ENDBRANCH  26  27
ENDBRANCH  25  26
ENDBRANCH   2  25
TORSDOF 9
