REMARK  Name = ZINC33939930
REMARK  9 active torsions:
REMARK  status: ('A' for Active; 'I' for Inactive)
REMARK    1  A    between atoms: C_1  and  C_2
REMARK    2  A    between atoms: C_8  and  C_10
REMARK    3  A    between atoms: N_16  and  C_32
REMARK    4  A    between atoms: C_17  and  C_25
REMARK    5  A    between atoms: C_22  and  C_24
REMARK    6  A    between atoms: N_27  and  C_28
REMARK    7  A    between atoms: C_28  and  C_29
REMARK    8  A    between atoms: C_28  and  C_30
REMARK    9  A    between atoms: C_28  and  C_31
REMARK                            x       y       z     vdW  Elec       q    Type
REMARK                         _______ _______ _______ _____ _____    ______ ____
ROOT
ATOM      1  C   UNL     1      -3.479  -3.732   0.159  0.00  0.00    +0.126 C 
ATOM      2  C   UNL     1      -5.014  -3.744   0.261  0.00  0.00    +0.128 C 
ATOM      3  C   UNL     1      -5.651  -2.388   0.376  0.00  0.00    +0.228 C 
ATOM      4  O   UNL     1      -5.393  -1.430  -0.322  0.00  0.00    -0.275 OA
ATOM      5  N   UNL     1      -6.561  -2.403   1.383  0.00  0.00    -0.255 N 
ATOM      6  C   UNL     1      -6.521  -3.695   2.109  0.00  0.00    +0.203 C 
ATOM      7  C   UNL     1      -5.200  -4.305   1.719  0.00  0.00    +0.128 C 
ATOM      8  C   UNL     1      -4.901  -5.760   1.673  0.00  0.00    +0.009 C 
ATOM      9  C   UNL     1      -3.571  -5.807   1.528  0.00  0.00    +0.007 C 
ATOM     10  C   UNL     1      -3.061  -4.361   1.527  0.00  0.00    +0.098 C 
ATOM     11  O   UNL     1      -4.059  -3.729   2.410  0.00  0.00    -0.355 OA
ATOM     12  C   UNL     1      -1.591  -4.181   1.913  0.00  0.00    +0.047 C 
ENDROOT
BRANCH   1  20
ATOM     13  C   UNL     1      -1.146   2.780   0.013  0.00  0.00    +0.089 C 
ATOM     14  C   UNL     1      -1.458   1.522  -0.757  0.00  0.00    +0.136 A 
ATOM     15  C   UNL     1      -1.951   0.383  -0.240  0.00  0.00    +0.091 A 
ATOM     16  C   UNL     1      -2.100  -0.548  -1.293  0.00  0.00    +0.168 A 
ATOM     17  N   UNL     1      -1.704   0.030  -2.398  0.00  0.00    -0.063 NA
ATOM     18  O   UNL     1      -1.298   1.348  -2.078  0.00  0.00    -0.358 OA
ATOM     19  N   UNL     1      -2.582  -1.851  -1.174  0.00  0.00    -0.267 N 
ATOM     20  C   UNL     1      -2.957  -2.324   0.031  0.00  0.00    +0.225 C 
ATOM     21  O   UNL     1      -2.876  -1.616   1.012  0.00  0.00    -0.275 OA
ATOM     22  H   UNL     1      -2.648  -2.417  -1.959  0.00  0.00    +0.156 HD
ENDBRANCH   1  20
BRANCH   5  23
ATOM     23  C   UNL     1      -7.420  -1.343   1.694  0.00  0.00    +0.056 A 
ATOM     24  C   UNL     1      -6.976  -0.299   2.494  0.00  0.00    +0.025 A 
ATOM     25  C   UNL     1      -7.826   0.746   2.799  0.00  0.00    +0.002 A 
ATOM     26  C   UNL     1      -9.119   0.754   2.308  0.00  0.00    +0.002 A 
ATOM     27  C   UNL     1      -9.565  -0.284   1.511  0.00  0.00    +0.022 A 
ATOM     28  C   UNL     1      -8.718  -1.330   1.197  0.00  0.00    +0.062 A 
ATOM     29 CL   UNL     1      -9.276  -2.629   0.190  0.00  0.00    -0.082 Cl
ENDBRANCH   5  23
BRANCH   6  30
ATOM     30  C   UNL     1      -6.591  -3.467   3.597  0.00  0.00    +0.238 C 
ATOM     31  O   UNL     1      -6.166  -2.436   4.073  0.00  0.00    -0.274 OA
ATOM     32  N   UNL     1      -7.125  -4.410   4.399  0.00  0.00    -0.309 N 
ATOM     33  H   UNL     1      -7.465  -5.235   4.018  0.00  0.00    +0.149 HD
BRANCH  32  34
ATOM     34  C   UNL     1      -7.192  -4.188   5.845  0.00  0.00    +0.026 C 
ATOM     35  C   UNL     1      -8.031  -2.941   6.131  0.00  0.00    +0.031 C 
ATOM     36  C   UNL     1      -7.838  -5.402   6.518  0.00  0.00    +0.031 C 
ATOM     37  C   UNL     1      -5.779  -3.991   6.398  0.00  0.00    +0.031 C 
ENDBRANCH  32  34
ENDBRANCH   6  30
TORSDOF 4
