REMARK  Name = ZINC67467505
REMARK  9 active torsions:
REMARK  status: ('A' for Active; 'I' for Inactive)
REMARK    1  A    between atoms: C_1  and  C_2
REMARK    2  A    between atoms: C_2  and  N_3
REMARK    3  A    between atoms: C_4  and  C_28
REMARK    4  A    between atoms: C_5  and  C_9
REMARK    5  A    between atoms: C_6  and  C_8
REMARK    6  A    between atoms: C_9  and  N_10
REMARK    7  A    between atoms: N_13  and  N_14
REMARK    8  A    between atoms: C_15  and  C_17
REMARK    9  A    between atoms: C_24  and  C_27
REMARK                            x       y       z     vdW  Elec       q    Type
REMARK                         _______ _______ _______ _____ _____    ______ ____
ROOT
ATOM      1  N   UNL     1       4.288  -0.378   3.666  0.00  0.00    -0.294 N 
ATOM      2  C   UNL     1       5.513  -0.488   4.218  0.00  0.00    +0.316 C 
ATOM      3  O   UNL     1       6.079  -1.564   4.233  0.00  0.00    -0.251 OA
ATOM      4  N   UNL     1       6.109   0.594   4.756  0.00  0.00    -0.218 N 
ATOM      5  H   UNL     1       3.837   0.480   3.654  0.00  0.00    +0.151 HD
ATOM      6  H   UNL     1       6.990   0.515   5.154  0.00  0.00    +0.174 HD
ENDROOT
BRANCH   4   7
ATOM      7  N   UNL     1       5.457   1.834   4.739  0.00  0.00    -0.229 N 
ATOM      8  C   UNL     1       6.053   2.917   5.277  0.00  0.00    +0.267 C 
ATOM      9  O   UNL     1       7.159   2.817   5.776  0.00  0.00    -0.268 OA
ATOM     10  H   UNL     1       4.576   1.913   4.341  0.00  0.00    +0.173 HD
BRANCH   8  11
ATOM     11  C   UNL     1       5.371   4.214   5.260  0.00  0.00    +0.076 A 
ATOM     12  C   UNL     1       5.804   5.434   5.746  0.00  0.00    +0.024 A 
ATOM     13  C   UNL     1       4.943   6.510   5.593  0.00  0.00    -0.036 A 
ATOM     14  C   UNL     1       3.752   6.259   4.978  0.00  0.00    -0.006 A 
ATOM     15  S   UNL     1       3.768   4.633   4.600  0.00  0.00    -0.088 S 
ATOM     16  C   UNL     1       2.661   7.250   4.697  0.00  0.00    +0.043 C 
ATOM     17  C   UNL     1       3.234   8.664   4.864  0.00  0.00    +0.009 C 
ATOM     18  C   UNL     1       4.001   8.731   6.188  0.00  0.00    -0.009 C 
ATOM     19  C   UNL     1       5.289   7.914   6.083  0.00  0.00    +0.039 C 
ATOM     20  C   UNL     1       4.349  10.188   6.500  0.00  0.00    +0.008 C 
ENDBRANCH   8  11
ENDBRANCH   4   7
BRANCH   1  21
ATOM     21  C   UNL     1       3.640  -1.555   3.082  0.00  0.00    +0.144 C 
BRANCH  21  24
ATOM     22  N   UNL     1       0.711  -0.489   1.189  0.00  0.00    -0.268 N 
ATOM     23  C   UNL     1       2.035  -0.732   1.279  0.00  0.00    +0.041 A 
ATOM     24  C   UNL     1       2.291  -1.165   2.535  0.00  0.00    +0.013 A 
ATOM     25  C   UNL     1       1.081  -1.189   3.237  0.00  0.00    +0.065 A 
ATOM     26  N   UNL     1       0.134  -0.778   2.432  0.00  0.00    -0.176 NA
ATOM     27  C   UNL     1       0.900  -1.609   4.673  0.00  0.00    +0.068 C 
ATOM     28  C   UNL     1       3.048  -0.551   0.178  0.00  0.00    +0.065 C 
BRANCH  22  30
ATOM     29  C   UNL     1      -0.019   1.526   0.010  0.00  0.00    +0.029 C 
ATOM     30  C   UNL     1       0.002  -0.004   0.002  0.00  0.00    +0.140 C 
ENDBRANCH  22  30
ENDBRANCH  21  24
ENDBRANCH   1  21
TORSDOF 5
