REMARK  Name = ZINC36058876
REMARK  12 active torsions:
REMARK  status: ('A' for Active; 'I' for Inactive)
REMARK    1  A    between atoms: C_1  and  C_2
REMARK    2  A    between atoms: C_2  and  C_3
REMARK    3  A    between atoms: C_3  and  C_5
REMARK    4  A    between atoms: C_3  and  N_6
REMARK    5  A    between atoms: N_6  and  C_7
REMARK    6  A    between atoms: C_9  and  C_10
REMARK    7  A    between atoms: C_15  and  C_35
REMARK    8  A    between atoms: C_16  and  C_30
REMARK    9  A    between atoms: C_17  and  C_20
REMARK   10  A    between atoms: C_23  and  C_26
REMARK   11  A    between atoms: N_32  and  C_33
REMARK   12  A    between atoms: N_32  and  C_34
REMARK                            x       y       z     vdW  Elec       q    Type
REMARK                         _______ _______ _______ _____ _____    ______ ____
ROOT
ATOM      1  C   UNL     1      -5.577   1.060  -2.308  0.00  0.00    +0.048 C 
ATOM      2  C   UNL     1      -6.217   1.285  -3.476  0.00  0.00    +0.072 C 
ATOM      3  S   UNL     1      -7.923   1.065  -3.010  0.00  0.00    -0.060 S 
ATOM      4  C   UNL     1      -7.702   0.709  -1.385  0.00  0.00    +0.166 C 
ATOM      5  N   UNL     1      -8.562   0.432  -0.428  0.00  0.00    -0.230 NA
ATOM      6  C   UNL     1      -8.236   0.167   0.827  0.00  0.00    +0.051 C 
ATOM      7  C   UNL     1      -6.913   0.164   1.221  0.00  0.00    +0.060 C 
ATOM      8  C   UNL     1      -5.866   0.473   0.175  0.00  0.00    +0.148 C 
ATOM      9  N   UNL     1      -6.347   0.751  -1.204  0.00  0.00    -0.267 N 
ATOM     10  C   UNL     1      -9.317  -0.135   1.833  0.00  0.00    +0.066 C 
ENDROOT
BRANCH   8  11
ATOM     11  C   UNL     1      -4.922  -0.700   0.103  0.00  0.00    -0.022 A 
ATOM     12  C   UNL     1      -3.716  -0.659   0.778  0.00  0.00    +0.006 A 
ATOM     13  C   UNL     1      -2.850  -1.734   0.712  0.00  0.00    +0.013 A 
ATOM     14  C   UNL     1      -3.191  -2.851  -0.028  0.00  0.00    +0.055 A 
ATOM     15  C   UNL     1      -4.397  -2.892  -0.702  0.00  0.00    +0.013 A 
ATOM     16  C   UNL     1      -5.264  -1.819  -0.633  0.00  0.00    +0.006 A 
BRANCH  14  17
ATOM     17  C   UNL     1      -2.246  -4.023  -0.100  0.00  0.00    +0.417 C 
ATOM     18  F   UNL     1      -2.529  -4.915   0.940  0.00  0.00    -0.166 F 
ATOM     19  F   UNL     1      -2.405  -4.674  -1.329  0.00  0.00    -0.166 F 
ATOM     20  F   UNL     1      -0.929  -3.569   0.021  0.00  0.00    -0.166 F 
ENDBRANCH  14  17
ENDBRANCH   8  11
BRANCH   7  21
ATOM     21  C   UNL     1      -6.553  -0.115   2.548  0.00  0.00    +0.246 C 
ATOM     22  O   UNL     1      -6.157  -1.228   2.850  0.00  0.00    -0.270 OA
ATOM     23  N   UNL     1      -6.644   0.846   3.487  0.00  0.00    -0.304 N 
ATOM     24  C   UNL     1      -6.155   0.592   4.845  0.00  0.00    +0.132 C 
ATOM     25  C   UNL     1      -7.230   2.146   3.151  0.00  0.00    +0.132 C 
ENDBRANCH   7  21
BRANCH   1  28
ATOM     26  C   UNL     1      -3.390   1.542  -3.278  0.00  0.00    +0.239 C 
ATOM     27  O   UNL     1      -4.004   1.779  -4.463  0.00  0.00    -0.271 OA
ATOM     28  C   UNL     1      -4.112   1.136  -2.216  0.00  0.00    +0.091 C 
BRANCH  26  29
ATOM     29  N   UNL     1      -2.022   1.717  -3.160  0.00  0.00    -0.309 N 
ATOM     30  H   UNL     1      -1.572   1.476  -2.335  0.00  0.00    +0.149 HD
BRANCH  29  31
ATOM     31  C   UNL     1      -1.254   2.265  -4.280  0.00  0.00    +0.070 C 
ATOM     32  C   UNL     1      -1.256   3.793  -4.201  0.00  0.00    +0.028 C 
BRANCH  31  34
ATOM     33  C   UNL     1       0.198   0.236  -4.416  0.00  0.00    +0.005 C 
ATOM     34  C   UNL     1       0.186   1.753  -4.211  0.00  0.00    +0.018 C 
ENDBRANCH  31  34
ENDBRANCH  29  31
ENDBRANCH  26  29
ENDBRANCH   1  28
TORSDOF 7
