REMARK  Name = ZINC08742503
REMARK  8 active torsions:
REMARK  status: ('A' for Active; 'I' for Inactive)
REMARK    1  A    between atoms: C_1  and  C_2
REMARK    2  A    between atoms: N_4  and  C_5
REMARK    3  A    between atoms: C_7  and  O_27
REMARK    4  A    between atoms: C_9  and  O_26
REMARK    5  A    between atoms: C_11  and  C_24
REMARK    6  A    between atoms: C_14  and  O_16
REMARK    7  A    between atoms: O_16  and  C_17
REMARK    8  A    between atoms: C_24  and  O_25
REMARK                            x       y       z     vdW  Elec       q    Type
REMARK                         _______ _______ _______ _____ _____    ______ ____
ROOT
ATOM      1  C   UNL     1       0.002  -0.004   0.002  0.00  0.00    +0.173 C 
ATOM      2  C   UNL     1      -0.019   1.528   0.010  0.00  0.00    +0.172 C 
ATOM      3  C   UNL     1       1.422   2.047  -0.001  0.00  0.00    +0.176 C 
ATOM      4  C   UNL     1       2.174   1.469   1.202  0.00  0.00    +0.179 C 
ATOM      5  O   UNL     1       2.128   0.042   1.149  0.00  0.00    -0.332 OA
ATOM      6  C   UNL     1       0.808  -0.502   1.204  0.00  0.00    +0.331 C 
ENDROOT
BRANCH   1  10
ATOM      7  C   UNL     1      -3.076  -2.260  -0.306  0.00  0.00    +0.109 C 
ATOM      8  C   UNL     1      -1.665  -1.736  -0.394  0.00  0.00    +0.210 C 
ATOM      9  O   UNL     1      -0.796  -2.417  -0.897  0.00  0.00    -0.276 OA
ATOM     10  N   UNL     1      -1.369  -0.513   0.087  0.00  0.00    -0.304 N 
ATOM     11  H   UNL     1      -2.064   0.031   0.490  0.00  0.00    +0.149 HD
ENDBRANCH   1  10
BRANCH   3  12
ATOM     12  O   UNL     1       2.068   1.638  -1.208  0.00  0.00    -0.387 OA
ATOM     13  H   UNL     1       2.986   1.933  -1.283  0.00  0.00    +0.210 HD
ENDBRANCH   3  12
BRANCH   2  14
ATOM     14  O   UNL     1      -0.685   1.990   1.187  0.00  0.00    -0.387 OA
ATOM     15  H   UNL     1      -0.734   2.953   1.258  0.00  0.00    +0.210 HD
ENDBRANCH   2  14
BRANCH   6  16
ATOM     16  O   UNL     1       0.879  -1.929   1.172  0.00  0.00    -0.462 OA
BRANCH  16  17
ATOM     17  C   UNL     1       1.379  -2.547   2.275  0.00  0.00    +0.124 A 
ATOM     18  C   UNL     1       1.797  -1.795   3.363  0.00  0.00    +0.047 A 
ATOM     19  C   UNL     1       2.300  -2.426   4.484  0.00  0.00    +0.018 A 
ATOM     20  C   UNL     1       2.396  -3.805   4.519  0.00  0.00    +0.014 A 
ATOM     21  C   UNL     1       1.984  -4.556   3.433  0.00  0.00    +0.018 A 
ATOM     22  C   UNL     1       1.476  -3.930   2.312  0.00  0.00    +0.047 A 
ATOM     23  I   UNL     1       3.166  -4.758   6.219  0.00  0.00    -0.044 I 
ENDBRANCH  16  17
ENDBRANCH   6  16
BRANCH   4  24
ATOM     24  C   UNL     1       3.631   1.935   1.165  0.00  0.00    +0.190 C 
BRANCH  24  25
ATOM     25  O   UNL     1       4.303   1.492   2.346  0.00  0.00    -0.392 OA
ATOM     26  H   UNL     1       5.233   1.753   2.390  0.00  0.00    +0.210 HD
ENDBRANCH  24  25
ENDBRANCH   4  24
TORSDOF 7
