REMARK  Name = ZINC19798558
REMARK  6 active torsions:
REMARK  status: ('A' for Active; 'I' for Inactive)
REMARK    1  A    between atoms: C_1  and  C_2
REMARK    2  A    between atoms: C_2  and  N_3
REMARK    3  A    between atoms: N_3  and  C_4
REMARK    4  A    between atoms: N_3  and  C_5
REMARK    5  A    between atoms: C_14  and  O_16
REMARK    6  A    between atoms: C_22  and  C_24
REMARK                            x       y       z     vdW  Elec       q    Type
REMARK                         _______ _______ _______ _____ _____    ______ ____
ROOT
ATOM      1  C   UNL     1      -0.796   5.647  -0.754  0.00  0.00    -0.008 C 
ATOM      2  C   UNL     1      -0.264   5.548  -2.168  0.00  0.00    -0.055 A 
ATOM      3  C   UNL     1       0.014   6.540  -3.094  0.00  0.00    +0.002 A 
ATOM      4  C   UNL     1       0.500   6.210  -4.343  0.00  0.00    +0.000 A 
ATOM      5  C   UNL     1       0.709   4.883  -4.673  0.00  0.00    +0.000 A 
ATOM      6  C   UNL     1       0.431   3.892  -3.752  0.00  0.00    +0.004 A 
ATOM      7  C   UNL     1      -0.056   4.221  -2.498  0.00  0.00    -0.037 A 
ATOM      8  C   UNL     1      -0.434   3.344  -1.329  0.00  0.00    +0.023 C 
ATOM      9  C   UNL     1      -0.482   4.280  -0.108  0.00  0.00    +0.116 C 
ATOM     10  C   UNL     1       0.621   2.262  -1.114  0.00  0.00    +0.033 C 
ATOM     11  C   UNL     1       0.250   1.426   0.116  0.00  0.00    +0.109 C 
ATOM     12  N   UNL     1      -1.121   0.926  -0.050  0.00  0.00    -0.297 N 
ATOM     13  C   UNL     1      -2.196   1.886  -0.336  0.00  0.00    +0.109 C 
ATOM     14  C   UNL     1      -1.807   2.717  -1.558  0.00  0.00    +0.033 C 
ATOM     15  C   UNL     1      -1.388  -0.392   0.053  0.00  0.00    +0.247 C 
ATOM     16  O   UNL     1      -0.479  -1.187   0.185  0.00  0.00    -0.270 OA
ENDROOT
BRANCH  15  17
ATOM     17  C   UNL     1      -2.789  -0.870   0.006  0.00  0.00    +0.042 A 
ATOM     18  C   UNL     1      -3.106  -2.115  -0.552  0.00  0.00    +0.033 A 
ATOM     19  C   UNL     1      -4.422  -2.526  -0.577  0.00  0.00    +0.113 A 
ATOM     20  N   UNL     1      -5.381  -1.764  -0.085  0.00  0.00    -0.241 NA
ATOM     21  C   UNL     1      -5.130  -0.581   0.451  0.00  0.00    +0.117 A 
ATOM     22  C   UNL     1      -3.828  -0.094   0.521  0.00  0.00    +0.056 A 
ATOM     23  N   UNL     1      -6.177   0.182   0.955  0.00  0.00    -0.343 N 
ATOM     24  H   UNL     1      -5.975   1.166   1.402  0.00  0.00    +0.144 HD
ATOM     25  H   UNL     1      -7.208  -0.199   0.906  0.00  0.00    +0.144 HD
ENDBRANCH  15  17
BRANCH   1  26
ATOM     26  N   UNL     1      -2.246   5.883  -0.770  0.00  0.00    +0.384 N 
ATOM     27  C   UNL     1      -2.586   7.013  -1.644  0.00  0.00    -0.095 C 
ATOM     28  H   UNL     1      -2.730   4.983  -1.177  0.00  0.00    -0.081 HD
BRANCH  26  30
ATOM     29  C   UNL     1      -4.280   5.930   0.593  0.00  0.00    -0.017 C 
ATOM     30  C   UNL     1      -2.759   6.096   0.590  0.00  0.00    -0.082 C 
ENDBRANCH  26  30
ENDBRANCH   1  26
BRANCH   9  31
ATOM     31  O   UNL     1       0.780   4.308   0.562  0.00  0.00    -0.392 OA
ATOM     32  H   UNL     1       1.150   3.408   1.075  0.00  0.00    +0.210 HD
ENDBRANCH   9  31
TORSDOF 4
