REMARK  Name = ZINC05551026
REMARK  7 active torsions:
REMARK  status: ('A' for Active; 'I' for Inactive)
REMARK    1  A    between atoms: C_1  and  C_2
REMARK    2  A    between atoms: C_4  and  C_25
REMARK    3  A    between atoms: C_13  and  N_15
REMARK    4  A    between atoms: N_15  and  C_16
REMARK    5  A    between atoms: C_29  and  O_32
REMARK    6  A    between atoms: C_30  and  O_31
REMARK    7  A    between atoms: O_32  and  C_33
REMARK                            x       y       z     vdW  Elec       q    Type
REMARK                         _______ _______ _______ _____ _____    ______ ____
ROOT
ATOM      1  C   UNL     1      -0.955   6.559  -2.464  0.00  0.00    +0.014 C 
ATOM      2  C   UNL     1      -1.213   7.113  -1.062  0.00  0.00    +0.057 C 
ATOM      3  C   UNL     1      -0.036   7.990  -0.627  0.00  0.00    +0.064 C 
ATOM      4  C   UNL     1      -0.143   8.292   0.847  0.00  0.00    +0.006 A 
ATOM      5  C   UNL     1       0.590   9.348   1.365  0.00  0.00    +0.057 A 
ATOM      6  C   UNL     1       0.524   9.653   2.712  0.00  0.00    +0.167 A 
ATOM      7  C   UNL     1      -0.286   8.893   3.554  0.00  0.00    +0.170 A 
ATOM      8  C   UNL     1      -1.018   7.841   3.036  0.00  0.00    +0.095 A 
ATOM      9  C   UNL     1      -0.949   7.538   1.680  0.00  0.00    +0.131 A 
ATOM     10  O   UNL     1      -1.688   6.496   1.212  0.00  0.00    -0.470 OA
ATOM     11  C   UNL     1      -1.344   5.955  -0.064  0.00  0.00    +0.264 C 
ATOM     12  O   UNL     1      -0.181   9.387   4.822  0.00  0.00    -0.452 OA
ATOM     13  C   UNL     1       1.011  10.194   4.824  0.00  0.00    +0.466 C 
ATOM     14  O   UNL     1       1.136  10.623   3.455  0.00  0.00    -0.453 OA
ENDROOT
BRANCH   3  15
ATOM     15  C   UNL     1      -0.058   9.280  -1.405  0.00  0.00    +0.006 A 
ATOM     16  C   UNL     1      -1.149  10.124  -1.315  0.00  0.00    +0.008 A 
ATOM     17  C   UNL     1      -1.172  11.309  -2.027  0.00  0.00    +0.004 A 
ATOM     18  C   UNL     1      -0.103  11.655  -2.834  0.00  0.00    +0.049 A 
ATOM     19  C   UNL     1       0.993  10.814  -2.929  0.00  0.00    +0.162 A 
ATOM     20  C   UNL     1       1.019   9.624  -2.207  0.00  0.00    +0.162 A 
BRANCH  20  21
ATOM     21  O   UNL     1       2.095   8.797  -2.293  0.00  0.00    -0.503 OA
ATOM     22  H   UNL     1       2.031   8.140  -3.000  0.00  0.00    +0.292 HD
ENDBRANCH  20  21
BRANCH  19  23
ATOM     23  O   UNL     1       2.045  11.153  -3.721  0.00  0.00    -0.491 OA
ATOM     24  C   UNL     1       1.953  12.391  -4.428  0.00  0.00    +0.277 C 
ENDBRANCH  19  23
ENDBRANCH   3  15
BRANCH  11  25
ATOM     25  N   UNL     1      -0.069   5.239   0.030  0.00  0.00    -0.309 N 
ATOM     26  H   UNL     1       0.766   5.721  -0.072  0.00  0.00    +0.150 HD
BRANCH  25  27
ATOM     27  C   UNL     1      -0.057   3.863   0.268  0.00  0.00    +0.030 A 
ATOM     28  C   UNL     1      -1.241   3.195   0.554  0.00  0.00    +0.023 A 
ATOM     29  C   UNL     1      -1.225   1.834   0.789  0.00  0.00    +0.002 A 
ATOM     30  C   UNL     1      -0.033   1.136   0.740  0.00  0.00    +0.000 A 
ATOM     31  C   UNL     1       1.149   1.799   0.461  0.00  0.00    +0.002 A 
ATOM     32  C   UNL     1       1.139   3.159   0.220  0.00  0.00    +0.023 A 
ENDBRANCH  25  27
ENDBRANCH  11  25
TORSDOF 5
