REMARK  Name = ZINC16808587
REMARK  5 active torsions:
REMARK  status: ('A' for Active; 'I' for Inactive)
REMARK    1  A    between atoms: C_1  and  C_2
REMARK    2  A    between atoms: C_2  and  C_3
REMARK    3  A    between atoms: C_3  and  C_4
REMARK    4  A    between atoms: C_5  and  C_20
REMARK    5  A    between atoms: C_16  and  C_19
REMARK                            x       y       z     vdW  Elec       q    Type
REMARK                         _______ _______ _______ _____ _____    ______ ____
ROOT
ATOM      1  C   UNL     1      -0.018   1.401  -0.003  0.00  0.00    +0.038 A 
ATOM      2  C   UNL     1       1.168   2.077  -0.005  0.00  0.00    +0.050 A 
ATOM      3  N   UNL     1       2.318   1.407  -0.016  0.00  0.00    -0.221 NA
ATOM      4  C   UNL     1       2.345   0.090  -0.024  0.00  0.00    +0.201 A 
ATOM      5  N   UNL     1       1.195  -0.637  -0.022  0.00  0.00    -0.295 N 
ATOM      6  H   UNL     1       1.232  -1.607  -0.028  0.00  0.00    +0.172 HD
ATOM      7  C   UNL     1       0.002  -0.005  -0.011  0.00  0.00    +0.256 A 
ATOM      8  O   UNL     1      -1.039  -0.641  -0.010  0.00  0.00    -0.267 OA
ATOM      9  N   UNL     1       3.553  -0.560  -0.035  0.00  0.00    -0.270 N 
ATOM     10  C   UNL     1       4.734   0.169  -0.147  0.00  0.00    +0.125 A 
ATOM     11  C   UNL     1       5.948  -0.500  -0.267  0.00  0.00    +0.044 A 
ATOM     12  C   UNL     1       7.114   0.236  -0.379  0.00  0.00    +0.008 A 
ATOM     13  C   UNL     1       7.026   1.622  -0.366  0.00  0.00    -0.032 A 
ATOM     14  C   UNL     1       5.788   2.220  -0.244  0.00  0.00    +0.116 A 
ATOM     15  N   UNL     1       4.692   1.492  -0.145  0.00  0.00    -0.240 NA
ATOM     16  C   UNL     1       8.270   2.464  -0.486  0.00  0.00    +0.045 C 
ATOM     17  C   UNL     1       1.175   3.584   0.004  0.00  0.00    +0.066 C 
ATOM     18  H   UNL     1       3.584  -1.527   0.036  0.00  0.00    +0.156 HD
ENDROOT
BRANCH   1  19
ATOM     19  C   UNL     1      -1.326   2.149   0.003  0.00  0.00    +0.042 C 
BRANCH  19  21
ATOM     20  C   UNL     1      -3.160   3.062  -1.427  0.00  0.00    +0.004 C 
ATOM     21  C   UNL     1      -1.832   2.302  -1.433  0.00  0.00    +0.001 C 
ENDBRANCH  19  21
ENDBRANCH   1  19
TORSDOF 2
