REMARK  Name = ZINC09244275
REMARK  7 active torsions:
REMARK  status: ('A' for Active; 'I' for Inactive)
REMARK    1  A    between atoms: C_6  and  N_7
REMARK    2  A    between atoms: C_10  and  C_11
REMARK    3  A    between atoms: N_12  and  C_13
REMARK    4  A    between atoms: C_13  and  C_14
REMARK    5  A    between atoms: C_14  and  C_15
REMARK    6  A    between atoms: C_15  and  N_50
REMARK    7  A    between atoms: C_21  and  O_25
REMARK                            x       y       z     vdW  Elec       q    Type
REMARK                         _______ _______ _______ _____ _____    ______ ____
ROOT
ATOM      1  N   UNL     1      -0.078   6.262   0.019  0.00  0.00    -0.192 N 
ATOM      2  C   UNL     1      -1.258   6.909  -0.088  0.00  0.00    +0.245 C 
ATOM      3  O   UNL     1      -2.301   6.297  -0.229  0.00  0.00    -0.274 OA
ATOM      4  C   UNL     1      -1.242   8.382  -0.029  0.00  0.00    +0.199 C 
ATOM      5  C   UNL     1       0.066   9.029   0.144  0.00  0.00    +0.198 C 
ATOM      6  N   UNL     1       1.141   8.264   0.235  0.00  0.00    -0.131 NA
ATOM      7  C   UNL     1       1.070   6.936   0.180  0.00  0.00    +0.339 C 
ATOM      8  O   UNL     1       2.104   6.299   0.276  0.00  0.00    -0.250 OA
ENDROOT
BRANCH   1  14
ATOM      9  C   UNL     1       0.569   4.216  -1.093  0.00  0.00    +0.025 A 
ATOM     10  C   UNL     1       0.591   2.836  -1.141  0.00  0.00    +0.016 A 
ATOM     11  C   UNL     1      -0.005   2.097  -0.135  0.00  0.00    +0.013 A 
ATOM     12  C   UNL     1      -0.629   2.738   0.920  0.00  0.00    +0.016 A 
ATOM     13  C   UNL     1      -0.650   4.118   0.976  0.00  0.00    +0.025 A 
ATOM     14  C   UNL     1      -0.053   4.862  -0.033  0.00  0.00    +0.046 A 
ATOM     15  I   UNL     1       0.031   0.004  -0.214  0.00  0.00    -0.044 I 
ENDBRANCH   1  14
BRANCH   4  16
ATOM     16  C   UNL     1      -2.409   9.124  -0.130  0.00  0.00    +0.099 C 
ATOM     17  N   UNL     1      -2.349  10.465  -0.219  0.00  0.00    -0.295 NA
BRANCH  17  18
ATOM     18  C   UNL     1      -3.582  11.249  -0.327  0.00  0.00    +0.139 C 
BRANCH  18  19
ATOM     19  C   UNL     1      -3.235  12.737  -0.413  0.00  0.00    +0.005 C 
BRANCH  19  20
ATOM     20  C   UNL     1      -4.523  13.555  -0.526  0.00  0.00    -0.077 C 
BRANCH  20  26
ATOM     21  C   UNL     1      -3.577  15.455   0.640  0.00  0.00    -0.079 C 
ATOM     22  C   UNL     1      -3.112  16.902   0.467  0.00  0.00    -0.019 C 
ATOM     23  C   UNL     1      -4.314  17.779   0.103  0.00  0.00    -0.004 C 
ATOM     24  C   UNL     1      -4.962  17.238  -1.174  0.00  0.00    -0.019 C 
ATOM     25  C   UNL     1      -5.373  15.781  -0.954  0.00  0.00    -0.079 C 
ATOM     26  N   UNL     1      -4.169  14.986  -0.631  0.00  0.00    +0.380 N 
ATOM     27  H   UNL     1      -3.480  15.104  -1.383  0.00  0.00    -0.082 HD
ENDBRANCH  20  26
ENDBRANCH  19  20
ENDBRANCH  18  19
ENDBRANCH  17  18
ENDBRANCH   4  16
BRANCH   5  28
ATOM     28  O   UNL     1       0.168  10.373   0.208  0.00  0.00    -0.496 OA
ATOM     29  H   UNL     1       1.073  10.694   0.322  0.00  0.00    +0.293 HD
ENDBRANCH   5  28
TORSDOF 7
