REMARK  Name = ZINC62063544
REMARK  5 active torsions:
REMARK  status: ('A' for Active; 'I' for Inactive)
REMARK    1  A    between atoms: C_1  and  C_2
REMARK    2  A    between atoms: C_2  and  C_3
REMARK    3  A    between atoms: C_3  and  C_5
REMARK    4  A    between atoms: C_3  and  N_6
REMARK    5  A    between atoms: N_9  and  C_10
REMARK                            x       y       z     vdW  Elec       q    Type
REMARK                         _______ _______ _______ _____ _____    ______ ____
ROOT
ATOM      1  N   UNL     1       2.125  -0.091  -1.209  0.00  0.00    -0.297 N 
ATOM      2  C   UNL     1       2.824   0.051  -2.353  0.00  0.00    +0.300 C 
ATOM      3  O   UNL     1       2.287  -0.157  -3.424  0.00  0.00    -0.253 OA
ATOM      4  N   UNL     1       4.118   0.425  -2.309  0.00  0.00    -0.296 N 
ATOM      5  H   UNL     1       2.553   0.075  -0.355  0.00  0.00    +0.151 HD
ATOM      6  H   UNL     1       4.546   0.592  -1.455  0.00  0.00    +0.151 HD
ENDROOT
BRANCH   4   7
ATOM      7  C   UNL     1       4.878   0.581  -3.552  0.00  0.00    +0.079 C 
ATOM      8  C   UNL     1       5.448  -0.776  -3.977  0.00  0.00    +0.050 C 
ATOM      9  C   UNL     1       6.305  -0.591  -5.232  0.00  0.00    +0.161 C 
ATOM     10  O   UNL     1       7.342   0.354  -4.963  0.00  0.00    -0.380 OA
ATOM     11  C   UNL     1       6.869   1.655  -4.607  0.00  0.00    +0.161 C 
ATOM     12  C   UNL     1       6.035   1.560  -3.327  0.00  0.00    +0.050 C 
ENDBRANCH   4   7
BRANCH   1  13
ATOM     13  C   UNL     1       0.718  -0.497  -1.257  0.00  0.00    +0.071 C 
ATOM     14  C   UNL     1       0.630  -2.023  -1.329  0.00  0.00    +0.028 C 
BRANCH  13  16
ATOM     15  C   UNL     1      -0.019   1.526   0.010  0.00  0.00    +0.005 C 
ATOM     16  C   UNL     1       0.002  -0.004   0.002  0.00  0.00    +0.019 C 
ENDBRANCH  13  16
ENDBRANCH   1  13
TORSDOF 3
