REMARK  Name = ZINC39217231
REMARK  6 active torsions:
REMARK  status: ('A' for Active; 'I' for Inactive)
REMARK    1  A    between atoms: C_1  and  C_2
REMARK    2  A    between atoms: C_6  and  N_8
REMARK    3  A    between atoms: C_9  and  S_17
REMARK    4  A    between atoms: C_15  and  N_16
REMARK    5  A    between atoms: S_17  and  C_18
REMARK    6  A    between atoms: C_18  and  C_19
REMARK                            x       y       z     vdW  Elec       q    Type
REMARK                         _______ _______ _______ _____ _____    ______ ____
ROOT
ATOM      1  N   UNL     1       0.065  -2.791   2.387  0.00  0.00    -0.260 N 
ATOM      2  C   UNL     1      -0.022  -4.257   2.390  0.00  0.00    +0.228 C 
ATOM      3  N   UNL     1       0.918  -4.790   3.380  0.00  0.00    -0.284 N 
ATOM      4  C   UNL     1       1.214  -4.084   4.488  0.00  0.00    +0.242 C 
ATOM      5  O   UNL     1       1.903  -4.588   5.358  0.00  0.00    -0.271 OA
ATOM      6  C   UNL     1       0.736  -2.776   4.650  0.00  0.00    +0.106 C 
ATOM      7  C   UNL     1       0.151  -2.135   3.596  0.00  0.00    +0.095 C 
ATOM      8  H   UNL     1       1.330  -5.657   3.237  0.00  0.00    +0.152 HD
ENDROOT
BRANCH   1  14
ATOM      9  C   UNL     1       2.433   0.069  -0.834  0.00  0.00    +0.044 C 
ATOM     10  C   UNL     1       1.200  -0.682  -0.401  0.00  0.00    -0.049 A 
ATOM     11  C   UNL     1       0.067  -0.665  -1.194  0.00  0.00    +0.003 A 
ATOM     12  C   UNL     1      -1.067  -1.352  -0.801  0.00  0.00    +0.002 A 
ATOM     13  C   UNL     1      -1.071  -2.058   0.386  0.00  0.00    +0.023 A 
ATOM     14  C   UNL     1       0.065  -2.078   1.185  0.00  0.00    +0.038 A 
ATOM     15  C   UNL     1       1.204  -1.391   0.784  0.00  0.00    +0.027 A 
ENDBRANCH   1  14
BRANCH   7  16
ATOM     16  N   UNL     1      -0.344  -0.864   3.741  0.00  0.00    -0.346 N 
ATOM     17  H   UNL     1      -0.834  -0.449   3.014  0.00  0.00    +0.143 HD
ATOM     18  H   UNL     1      -0.204  -0.380   4.570  0.00  0.00    +0.143 HD
ENDBRANCH   7  16
BRANCH   2  19
ATOM     19  S   UNL     1      -1.710  -4.764   2.819  0.00  0.00    -0.111 S 
BRANCH  19  20
ATOM     20  C   UNL     1      -1.973  -4.062   4.470  0.00  0.00    +0.146 C 
BRANCH  20  21
ATOM     21  C   UNL     1      -3.357  -4.414   4.951  0.00  0.00    +0.120 A 
ATOM     22  N   UNL     1      -3.747  -3.970   6.175  0.00  0.00    -0.310 N 
ATOM     23  H   UNL     1      -3.136  -3.441   6.711  0.00  0.00    +0.170 HD
ATOM     24  C   UNL     1      -4.980  -4.259   6.652  0.00  0.00    +0.259 A 
ATOM     25  O   UNL     1      -5.343  -3.867   7.746  0.00  0.00    -0.267 OA
ATOM     26  C   UNL     1      -5.865  -5.064   5.797  0.00  0.00    +0.065 A 
ATOM     27  C   UNL     1      -7.153  -5.417   6.195  0.00  0.00    +0.015 A 
ATOM     28  C   UNL     1      -7.940  -6.174   5.354  0.00  0.00    +0.001 A 
ATOM     29  C   UNL     1      -7.460  -6.586   4.118  0.00  0.00    +0.002 A 
ATOM     30  C   UNL     1      -6.190  -6.249   3.707  0.00  0.00    +0.028 A 
ATOM     31  C   UNL     1      -5.373  -5.482   4.541  0.00  0.00    +0.078 A 
ATOM     32  N   UNL     1      -4.118  -5.122   4.173  0.00  0.00    -0.233 NA
ENDBRANCH  20  21
ENDBRANCH  19  20
ENDBRANCH   2  19
TORSDOF 5
