REMARK  Name = ZINC65482852
REMARK  11 active torsions:
REMARK  status: ('A' for Active; 'I' for Inactive)
REMARK    1  A    between atoms: C_1  and  C_2
REMARK    2  A    between atoms: C_2  and  N_3
REMARK    3  A    between atoms: N_3  and  C_4
REMARK    4  A    between atoms: N_3  and  C_6
REMARK    5  A    between atoms: C_4  and  C_5
REMARK    6  A    between atoms: C_6  and  C_7
REMARK    7  A    between atoms: C_6  and  C_25
REMARK    8  A    between atoms: C_7  and  N_8
REMARK    9  A    between atoms: N_11  and  N_12
REMARK   10  A    between atoms: C_13  and  C_15
REMARK   11  A    between atoms: C_16  and  C_24
REMARK                            x       y       z     vdW  Elec       q    Type
REMARK                         _______ _______ _______ _____ _____    ______ ____
ROOT
ATOM      1  N   UNL     1       0.717  -2.086  -3.538  0.00  0.00    -0.299 N 
ATOM      2  C   UNL     1       1.414  -2.868  -4.387  0.00  0.00    +0.316 C 
ATOM      3  O   UNL     1       2.086  -2.363  -5.265  0.00  0.00    -0.251 OA
ATOM      4  N   UNL     1       1.366  -4.209  -4.261  0.00  0.00    -0.218 N 
ATOM      5  H   UNL     1       0.240  -2.484  -2.793  0.00  0.00    +0.150 HD
ATOM      6  H   UNL     1       1.926  -4.769  -4.822  0.00  0.00    +0.174 HD
ENDROOT
BRANCH   4   7
ATOM      7  N   UNL     1       0.508  -4.794  -3.321  0.00  0.00    -0.227 N 
ATOM      8  C   UNL     1       0.536  -6.127  -3.121  0.00  0.00    +0.296 C 
ATOM      9  O   UNL     1       1.307  -6.821  -3.756  0.00  0.00    -0.265 OA
ATOM     10  H   UNL     1      -0.107  -4.241  -2.815  0.00  0.00    +0.173 HD
BRANCH   8  11
ATOM     11  C   UNL     1      -0.364  -6.741  -2.135  0.00  0.00    +0.195 A 
ATOM     12  C   UNL     1      -0.420  -8.067  -1.846  0.00  0.00    +0.008 A 
ATOM     13  C   UNL     1      -1.449  -8.215  -0.818  0.00  0.00    +0.024 A 
ATOM     14  C   UNL     1      -1.973  -9.302  -0.114  0.00  0.00    +0.012 A 
ATOM     15  C   UNL     1      -2.959  -9.099   0.809  0.00  0.00    +0.001 A 
ATOM     16  C   UNL     1      -3.442  -7.820   1.053  0.00  0.00    +0.004 A 
ATOM     17  C   UNL     1      -2.938  -6.735   0.370  0.00  0.00    +0.047 A 
ATOM     18  C   UNL     1      -1.935  -6.917  -0.574  0.00  0.00    +0.136 A 
ATOM     19  O   UNL     1      -1.257  -6.072  -1.375  0.00  0.00    -0.450 OA
ATOM     20  C   UNL     1       0.411  -9.163  -2.461  0.00  0.00    +0.048 C 
ENDBRANCH   8  11
ENDBRANCH   4   7
BRANCH   1  21
ATOM     21  C   UNL     1       0.679  -0.636  -3.741  0.00  0.00    +0.098 C 
BRANCH  21  22
ATOM     22  C   UNL     1      -0.102   0.019  -2.600  0.00  0.00    +0.016 C 
BRANCH  22  23
ATOM     23  C   UNL     1      -0.070   1.517  -2.764  0.00  0.00    +0.093 A 
ATOM     24  C   UNL     1      -1.096   2.286  -3.171  0.00  0.00    +0.043 A 
ATOM     25  C   UNL     1      -0.628   3.620  -3.181  0.00  0.00    +0.041 A 
ATOM     26  C   UNL     1       0.655   3.586  -2.780  0.00  0.00    +0.195 A 
ATOM     27  O   UNL     1       0.987   2.310  -2.524  0.00  0.00    -0.469 OA
ENDBRANCH  22  23
BRANCH  22  28
ATOM     28  N   UNL     1       0.509  -0.346  -1.316  0.00  0.00    +0.387 N 
ATOM     29  H   UNL     1       0.425  -1.342  -1.174  0.00  0.00    -0.081 HD
BRANCH  28  31
ATOM     30  C   UNL     1       2.766  -1.154  -1.818  0.00  0.00    -0.017 C 
ATOM     31  C   UNL     1       1.930   0.028  -1.325  0.00  0.00    -0.081 C 
ENDBRANCH  28  31
BRANCH  28  32
ATOM     32  C   UNL     1      -0.177   0.362  -0.228  0.00  0.00    -0.081 C 
ATOM     33  C   UNL     1      -1.619  -0.138  -0.123  0.00  0.00    -0.017 C 
ENDBRANCH  28  32
ENDBRANCH  22  28
ENDBRANCH  21  22
ENDBRANCH   1  21
TORSDOF 8
