REMARK  Name = ZINC43682368
REMARK  9 active torsions:
REMARK  status: ('A' for Active; 'I' for Inactive)
REMARK    1  A    between atoms: C_1  and  C_2
REMARK    2  A    between atoms: C_2  and  C_3
REMARK    3  A    between atoms: C_4  and  C_19
REMARK    4  A    between atoms: N_6  and  C_9
REMARK    5  A    between atoms: C_7  and  C_8
REMARK    6  A    between atoms: C_9  and  C_10
REMARK    7  A    between atoms: C_13  and  C_15
REMARK    8  A    between atoms: C_16  and  C_17
REMARK    9  A    between atoms: C_17  and  O_18
REMARK                            x       y       z     vdW  Elec       q    Type
REMARK                         _______ _______ _______ _____ _____    ______ ____
ROOT
ATOM      1  C   UNL     1       0.997  -1.614   4.643  0.00  0.00    +0.186 C 
ENDROOT
BRANCH   1   5
ATOM      2  C   UNL     1       0.731  -0.503   1.223  0.00  0.00    -0.004 A 
ATOM      3  C   UNL     1       2.104  -0.754   1.317  0.00  0.00    +0.063 A 
ATOM      4  N   UNL     1       2.361  -1.174   2.529  0.00  0.00    -0.176 NA
ATOM      5  N   UNL     1       1.158  -1.204   3.246  0.00  0.00    -0.263 N 
ATOM      6  C   UNL     1       0.174  -0.783   2.424  0.00  0.00    +0.040 A 
ATOM      7  C   UNL     1      -1.285  -0.651   2.779  0.00  0.00    +0.065 C 
ATOM      8  C   UNL     1       3.113  -0.571   0.212  0.00  0.00    +0.068 C 
BRANCH   2  10
ATOM      9  C   UNL     1      -0.019   1.526   0.010  0.00  0.00    +0.009 C 
ATOM     10  C   UNL     1       0.002  -0.004   0.002  0.00  0.00    +0.035 C 
ENDBRANCH   2  10
ENDBRANCH   1   5
BRANCH   1  11
ATOM     11  C   UNL     1       1.157  -0.414   5.541  0.00  0.00    +0.012 A 
ATOM     12  C   UNL     1       0.209   0.449   5.989  0.00  0.00    +0.014 A 
ATOM     13  C   UNL     1       0.583   1.488   6.811  0.00  0.00    +0.025 A 
ATOM     14  C   UNL     1       1.906   1.617   7.150  0.00  0.00    +0.062 A 
ATOM     15  S   UNL     1       2.641   0.233   6.294  0.00  0.00    -0.083 S 
BRANCH  14  16
ATOM     16  C   UNL     1       2.534   2.601   7.979  0.00  0.00    -0.057 C 
ATOM     17  C   UNL     1       3.048   3.408   8.659  0.00  0.00    -0.069 C 
BRANCH  17  18
ATOM     18  C   UNL     1       3.693   4.420   9.511  0.00  0.00    +0.244 C 
BRANCH  18  19
ATOM     19  O   UNL     1       5.096   4.159   9.583  0.00  0.00    -0.383 OA
ATOM     20  H   UNL     1       5.586   4.788  10.130  0.00  0.00    +0.211 HD
ENDBRANCH  18  19
ENDBRANCH  17  18
ENDBRANCH  14  16
ENDBRANCH   1  11
TORSDOF 6
