REMARK  Name = ZINC64684403
REMARK  10 active torsions:
REMARK  status: ('A' for Active; 'I' for Inactive)
REMARK    1  A    between atoms: C_1  and  C_2
REMARK    2  A    between atoms: C_3  and  C_7
REMARK    3  A    between atoms: C_11  and  S_15
REMARK    4  A    between atoms: N_13  and  C_14
REMARK    5  A    between atoms: S_15  and  C_16
REMARK    6  A    between atoms: C_16  and  C_17
REMARK    7  A    between atoms: N_19  and  CA_20
REMARK    8  A    between atoms: CA_20  and  CB_22
REMARK    9  A    between atoms: CA_20  and  C_32
REMARK   10  A    between atoms: CB_22  and  CG_23
REMARK                            x       y       z     vdW  Elec       q    Type
REMARK                         _______ _______ _______ _____ _____    ______ ____
ROOT
ATOM      1  C   UNK A   0      -7.808  -1.793  -0.266  0.00  0.00    +0.224 C 
ATOM      2  O   UNK A   0      -8.266  -2.322  -1.256  0.00  0.00    -0.275 OA
ATOM      3  N   TRP A   1      -8.538  -1.733   0.866  0.00  0.00    -0.301 N 
ATOM      4  H   TRP A   1      -8.172  -1.310   1.658  0.00  0.00    +0.150 HD
ENDROOT
BRANCH   1   5
ATOM      5  C   UNK A   0      -6.422  -1.203  -0.300  0.00  0.00    +0.167 C 
BRANCH   5   6
ATOM      6  S   UNK A   0      -5.704  -1.441  -1.948  0.00  0.00    -0.116 S 
BRANCH   6  10
ATOM      7  C   UNK A   0      -1.951  -1.135  -2.915  0.00  0.00    +0.174 C 
ATOM      8  N   UNK A   0      -1.804  -1.470  -1.480  0.00  0.00    -0.233 NA
ATOM      9  N   UNK A   0      -3.168  -1.798  -1.038  0.00  0.00    -0.229 NA
ATOM     10  C   UNK A   0      -4.007  -0.822  -1.782  0.00  0.00    +0.200 C 
ATOM     11  N   UNK A   0      -3.356  -0.721  -3.110  0.00  0.00    -0.260 NA
ATOM     12  C   UNK A   0      -4.027  -1.582  -4.093  0.00  0.00    +0.109 C 
ATOM     13  H   UNK A   0      -1.184  -2.255  -1.354  0.00  0.00    +0.143 HD
ATOM     14  H   UNK A   0      -3.410  -2.746  -1.286  0.00  0.00    +0.143 HD
BRANCH   7  17
ATOM     15  C   UNK A   0       0.938  -0.681  -1.815  0.00  0.00    +0.086 C 
ATOM     16  C   UNK A   0       0.220   0.196  -2.809  0.00  0.00    +0.108 A 
ATOM     17  C   UNK A   0      -1.024  -0.004  -3.280  0.00  0.00    +0.026 A 
ATOM     18  C   UNK A   0      -1.295   1.050  -4.182  0.00  0.00    +0.048 A 
ATOM     19  C   UNK A   0      -0.200   1.830  -4.210  0.00  0.00    +0.195 A 
ATOM     20  O   UNK A   0       0.712   1.312  -3.372  0.00  0.00    -0.468 OA
ENDBRANCH   7  17
ENDBRANCH   6  10
ENDBRANCH   5   6
ENDBRANCH   1   5
BRANCH   3  21
ATOM     21  CA  TRP A   1      -9.886  -2.307   0.899  0.00  0.00    +0.190 C 
BRANCH  21  22
ATOM     22  C   TRP A   1     -10.875  -1.296   0.378  0.00  0.00    +0.376 C 
ATOM     23  O   TRP A   1     -11.888  -1.671  -0.188  0.00  0.00    -0.244 OA
ATOM     24  OXT TRP A   1     -10.663  -0.104   0.523  0.00  0.00    -0.244 OA
ENDBRANCH  21  22
BRANCH  21  25
ATOM     25  CB  TRP A   1     -10.246  -2.678   2.339  0.00  0.00    +0.067 C 
BRANCH  25  26
ATOM     26  CG  TRP A   1      -9.333  -3.777   2.818  0.00  0.00    -0.039 C 
ATOM     27  CD2 TRP A   1      -8.192  -3.634   3.529  0.00  0.00    -0.001 A 
ATOM     28  CE3 TRP A   1      -7.485  -2.457   4.048  0.00  0.00    +0.010 A 
ATOM     29  CZ3 TRP A   1      -6.336  -2.633   4.739  0.00  0.00    +0.001 A 
ATOM     30  CH2 TRP A   1      -5.804  -3.909   4.971  0.00  0.00    +0.002 A 
ATOM     31  CZ2 TRP A   1      -6.396  -5.038   4.526  0.00  0.00    +0.026 A 
ATOM     32  CE2 TRP A   1      -7.610  -4.970   3.788  0.00  0.00    +0.043 A 
ATOM     33  NE1 TRP A   1      -8.362  -5.903   3.257  0.00  0.00    -0.380 N 
ATOM     34  CD1 TRP A   1      -9.511  -5.264   2.606  0.00  0.00    +0.144 C 
ATOM     35  HE1 TRP A   1      -8.190  -6.857   3.293  0.00  0.00    +0.160 HD
ENDBRANCH  25  26
ENDBRANCH  21  25
ENDBRANCH   3  21
TORSDOF 8
