REMARK  Name = ZINC03830517
REMARK  6 active torsions:
REMARK  status: ('A' for Active; 'I' for Inactive)
REMARK    1  A    between atoms: C_1  and  C_2
REMARK    2  A    between atoms: CA_3  and  C_25
REMARK    3  A    between atoms: CA_7  and  N_11
REMARK    4  A    between atoms: C_12  and  CA_14
REMARK    5  A    between atoms: CA_14  and  C_16
REMARK    6  A    between atoms: CA_14  and  N_22
REMARK                            x       y       z     vdW  Elec       q    Type
REMARK                         _______ _______ _______ _____ _____    ______ ____
ROOT
ATOM      1  N   UNL     1      -1.265  -5.243   0.109  0.00  0.00    -0.303 N 
ATOM      2  C   UNL     1      -1.521  -6.355  -0.608  0.00  0.00    +0.203 C 
ATOM      3  O   UNL     1      -1.557  -6.300  -1.819  0.00  0.00    -0.277 OA
ATOM      4  H   UNL     1      -1.236  -5.286   1.078  0.00  0.00    +0.149 HD
ENDROOT
BRANCH   1  10
ATOM      5  C   UNL     1      -0.018   1.503   0.010  0.00  0.00    +0.042 C 
ATOM      6  C   UNL     1       0.002  -0.004   0.002  0.00  0.00    -0.034 C 
ATOM      7  CA  UNL     1      -1.181  -0.600   0.005  0.00  0.00    +0.126 C 
ATOM      8  N   UNL     1      -1.279  -2.001  -0.050  0.00  0.00    -0.249 N 
ATOM      9  C   UNL     1      -0.200  -2.985   0.223  0.00  0.00    +0.169 C 
ATOM     10  CA  UNL     1      -1.030  -3.969  -0.574  0.00  0.00    +0.191 C 
ATOM     11  C   UNL     1      -2.129  -2.958  -0.392  0.00  0.00    +0.244 C 
ATOM     12  O   UNL     1      -3.335  -3.003  -0.511  0.00  0.00    -0.273 OA
ATOM     13  S   UNL     1       1.294  -2.345  -0.608  0.00  0.00    -0.131 S 
ATOM     14  C   UNL     1       1.355  -0.640  -0.014  0.00  0.00    +0.103 C 
BRANCH   7  15
ATOM     15  C   UNL     1      -2.406   0.213   0.067  0.00  0.00    +0.401 C 
ATOM     16  O   UNL     1      -2.328   1.434   0.115  0.00  0.00    -0.239 OA
ATOM     17  OXT UNL     1      -3.502  -0.330   0.070  0.00  0.00    -0.239 OA
ENDBRANCH   7  15
ENDBRANCH   1  10
BRANCH   2  18
ATOM     18  CA  UNL     1      -1.763  -7.666   0.095  0.00  0.00    +0.039 C 
BRANCH  18  19
ATOM     19  C   UNL     1      -3.182  -7.710   0.601  0.00  0.00    -0.075 C 
ATOM     20  C   UNL     1      -3.384  -7.740   1.883  0.00  0.00    -0.024 C 
ATOM     21  C   UNL     1      -4.754  -7.785   2.489  0.00  0.00    +0.054 C 
ATOM     22  C   UNL     1      -5.772  -8.257   1.495  0.00  0.00    -0.027 C 
ATOM     23  C   UNL     1      -5.570  -8.227   0.213  0.00  0.00    -0.026 C 
ATOM     24  C   UNL     1      -4.300  -7.711  -0.398  0.00  0.00    +0.056 C 
ENDBRANCH  18  19
BRANCH  18  25
ATOM     25  N   UNL     1      -1.544  -8.773  -0.845  0.00  0.00    +0.388 N 
ATOM     26  H1  UNL     1      -2.181  -8.686  -1.623  0.00  0.00    -0.088 HD
ATOM     27  H2  UNL     1      -0.594  -8.743  -1.184  0.00  0.00    -0.088 HD
ATOM     28  H3  UNL     1      -1.706  -9.651  -0.374  0.00  0.00    -0.088 HD
ENDBRANCH  18  25
ENDBRANCH   2  18
TORSDOF 5
