REMARK  Name = ZINC15902272
REMARK  9 active torsions:
REMARK  status: ('A' for Active; 'I' for Inactive)
REMARK    1  A    between atoms: C_1  and  C_2
REMARK    2  A    between atoms: C_8  and  C_10
REMARK    3  A    between atoms: C_10  and  C_12
REMARK    4  A    between atoms: C_10  and  S_13
REMARK    5  A    between atoms: S_13  and  C_14
REMARK    6  A    between atoms: C_14  and  C_15
REMARK    7  A    between atoms: N_17  and  N_18
REMARK    8  A    between atoms: C_19  and  C_21
REMARK    9  A    between atoms: C_21  and  C_22
REMARK                            x       y       z     vdW  Elec       q    Type
REMARK                         _______ _______ _______ _____ _____    ______ ____
ROOT
ATOM      1  C   UNL     1      -8.268   1.276   2.889  0.00  0.00    +0.239 C 
ATOM      2  O   UNL     1      -8.856   0.575   2.092  0.00  0.00    -0.273 OA
ATOM      3  N   UNL     1      -6.984   1.621   2.665  0.00  0.00    -0.234 N 
ATOM      4  H   UNL     1      -6.515   2.181   3.302  0.00  0.00    +0.173 HD
ENDROOT
BRANCH   3   5
ATOM      5  N   UNL     1      -6.329   1.169   1.513  0.00  0.00    -0.234 N 
ATOM      6  C   UNL     1      -5.045   1.513   1.289  0.00  0.00    +0.230 C 
ATOM      7  O   UNL     1      -4.457   2.214   2.085  0.00  0.00    -0.274 OA
ATOM      8  H   UNL     1      -6.799   0.608   0.875  0.00  0.00    +0.173 HD
BRANCH   6   9
ATOM      9  C   UNL     1      -4.340   1.027   0.049  0.00  0.00    +0.104 C 
BRANCH   9  10
ATOM     10  C   UNL     1      -2.904   1.556   0.038  0.00  0.00    -0.020 C 
ATOM     11  C   UNL     1      -2.188   1.063  -1.221  0.00  0.00    +0.011 C 
ATOM     12  C   UNL     1      -0.753   1.593  -1.232  0.00  0.00    -0.010 C 
ATOM     13  C   UNL     1      -0.013   1.086   0.008  0.00  0.00    +0.007 C 
ATOM     14  C   UNL     1      -0.729   1.579   1.267  0.00  0.00    -0.010 C 
ATOM     15  C   UNL     1      -2.164   1.050   1.278  0.00  0.00    +0.011 C 
ATOM     16  C   UNL     1      -0.750   3.109   1.275  0.00  0.00    +0.007 C 
ATOM     17  C   UNL     1      -1.490   3.616   0.036  0.00  0.00    -0.010 C 
ATOM     18  C   UNL     1      -0.773   3.123  -1.223  0.00  0.00    +0.007 C 
ATOM     19  C   UNL     1      -2.925   3.086   0.047  0.00  0.00    +0.011 C 
ENDBRANCH   9  10
ENDBRANCH   6   9
ENDBRANCH   3   5
BRANCH   1  20
ATOM     20  C   UNL     1      -8.973   1.762   4.129  0.00  0.00    +0.167 C 
BRANCH  20  21
ATOM     21  S   UNL     1     -10.675   1.134   4.142  0.00  0.00    -0.139 S 
BRANCH  21  22
ATOM     22  C   UNL     1     -11.377   1.800   5.676  0.00  0.00    +0.130 C 
ATOM     23  C   UNL     1     -11.442   3.326   5.588  0.00  0.00    +0.029 C 
BRANCH  22  31
ATOM     24  C   UNL     1     -17.813  -0.797   6.394  0.00  0.00    +0.089 C 
ATOM     25  C   UNL     1     -16.577  -0.151   6.965  0.00  0.00    +0.136 A 
ATOM     26  C   UNL     1     -15.456   0.188   6.288  0.00  0.00    +0.091 A 
ATOM     27  C   UNL     1     -14.613   0.752   7.282  0.00  0.00    +0.168 A 
ATOM     28  N   UNL     1     -15.282   0.693   8.404  0.00  0.00    -0.063 NA
ATOM     29  O   UNL     1     -16.374   0.200   8.243  0.00  0.00    -0.358 OA
ATOM     30  N   UNL     1     -13.328   1.262   7.099  0.00  0.00    -0.267 N 
ATOM     31  C   UNL     1     -12.766   1.249   5.874  0.00  0.00    +0.231 C 
ATOM     32  O   UNL     1     -13.377   0.793   4.931  0.00  0.00    -0.274 OA
ATOM     33  H   UNL     1     -12.839   1.627   7.853  0.00  0.00    +0.156 HD
ENDBRANCH  22  31
ENDBRANCH  21  22
ENDBRANCH  20  21
ENDBRANCH   1  20
TORSDOF 7
