REMARK  Name = ZINC08915336
REMARK  8 active torsions:
REMARK  status: ('A' for Active; 'I' for Inactive)
REMARK    1  A    between atoms: C_1  and  C_2
REMARK    2  A    between atoms: C_5  and  C_8
REMARK    3  A    between atoms: C_8  and  C_10
REMARK    4  A    between atoms: C_12  and  C_24
REMARK    5  A    between atoms: C_18  and  C_19
REMARK    6  A    between atoms: C_18  and  O_23
REMARK    7  A    between atoms: N_26  and  C_35
REMARK    8  A    between atoms: C_28  and  C_29
REMARK                            x       y       z     vdW  Elec       q    Type
REMARK                         _______ _______ _______ _____ _____    ______ ____
ROOT
ATOM      1  C   UNL     1      -0.301  -4.330   1.316  0.00  0.00    +0.144 C 
ATOM      2  C   UNL     1      -0.510  -5.818   1.017  0.00  0.00    +0.124 C 
ATOM      3  N   UNL     1       0.490  -6.258   0.044  0.00  0.00    -0.292 N 
ATOM      4  C   UNL     1       1.696  -5.674  -0.030  0.00  0.00    +0.302 C 
ATOM      5  O   UNL     1       2.494  -6.084  -0.850  0.00  0.00    -0.253 OA
ATOM      6  N   UNL     1       2.055  -4.655   0.765  0.00  0.00    -0.264 N 
ATOM      7  C   UNL     1       1.143  -4.120   1.783  0.00  0.00    +0.243 C 
ATOM      8  H   UNL     1       0.278  -6.986  -0.560  0.00  0.00    +0.151 HD
ATOM      9  H   UNL     1       2.937  -4.263   0.666  0.00  0.00    +0.153 HD
ENDROOT
BRANCH   2  10
ATOM     10  C   UNL     1      -1.891  -6.029   0.452  0.00  0.00    +0.019 A 
ATOM     11  C   UNL     1      -2.200  -6.189  -0.853  0.00  0.00    +0.120 A 
ATOM     12  N   UNL     1      -3.546  -6.351  -0.946  0.00  0.00    -0.239 N 
ATOM     13  N   UNL     1      -4.080  -6.289   0.348  0.00  0.00    -0.166 NA
ATOM     14  C   UNL     1      -3.088  -6.101   1.192  0.00  0.00    +0.098 A 
BRANCH  14  15
ATOM     15  C   UNL     1      -3.209  -5.982   2.667  0.00  0.00    +0.002 A 
ATOM     16  C   UNL     1      -4.235  -5.222   3.225  0.00  0.00    +0.010 A 
ATOM     17  C   UNL     1      -4.343  -5.116   4.597  0.00  0.00    +0.001 A 
ATOM     18  C   UNL     1      -3.436  -5.761   5.417  0.00  0.00    +0.000 A 
ATOM     19  C   UNL     1      -2.415  -6.517   4.868  0.00  0.00    +0.001 A 
ATOM     20  C   UNL     1      -2.301  -6.636   3.498  0.00  0.00    +0.010 A 
ENDBRANCH  14  15
BRANCH  12  21
ATOM     21  C   UNL     1      -4.273  -6.545  -2.128  0.00  0.00    +0.065 A 
ATOM     22  C   UNL     1      -3.614  -6.592  -3.349  0.00  0.00    +0.028 A 
ATOM     23  C   UNL     1      -4.333  -6.784  -4.513  0.00  0.00    +0.002 A 
ATOM     24  C   UNL     1      -5.707  -6.930  -4.463  0.00  0.00    +0.000 A 
ATOM     25  C   UNL     1      -6.366  -6.884  -3.248  0.00  0.00    +0.002 A 
ATOM     26  C   UNL     1      -5.652  -6.698  -2.080  0.00  0.00    +0.028 A 
ENDBRANCH  12  21
ENDBRANCH   2  10
BRANCH   7  27
ATOM     27  C   UNL     1       1.365  -4.856   3.106  0.00  0.00    +0.436 C 
ATOM     28  F   UNL     1       1.128  -6.223   2.923  0.00  0.00    -0.166 F 
ATOM     29  F   UNL     1       2.684  -4.664   3.531  0.00  0.00    -0.166 F 
ATOM     30  F   UNL     1       0.485  -4.356   4.072  0.00  0.00    -0.166 F 
ENDBRANCH   7  27
BRANCH   1  31
ATOM     31  C   UNL     1      -0.552  -3.523   0.068  0.00  0.00    +0.173 C 
ATOM     32  O   UNL     1      -0.425  -4.038  -1.023  0.00  0.00    -0.292 OA
BRANCH  31  37
ATOM     33  C   UNL     1      -2.110   1.996   0.476  0.00  0.00    +0.044 C 
ATOM     34  C   UNL     1      -1.701   0.549   0.369  0.00  0.00    -0.050 A 
ATOM     35  C   UNL     1      -1.556  -0.035  -0.877  0.00  0.00    +0.004 A 
ATOM     36  C   UNL     1      -1.183  -1.358  -0.984  0.00  0.00    +0.011 A 
ATOM     37  C   UNL     1      -0.950  -2.110   0.172  0.00  0.00    +0.018 A 
ATOM     38  C   UNL     1      -1.098  -1.512   1.428  0.00  0.00    +0.011 A 
ATOM     39  C   UNL     1      -1.466  -0.187   1.518  0.00  0.00    +0.004 A 
ENDBRANCH  31  37
ENDBRANCH   1  31
BRANCH   7  40
ATOM     40  O   UNL     1       1.388  -2.724   1.966  0.00  0.00    -0.364 OA
ATOM     41  H   UNL     1       2.285  -2.517   2.261  0.00  0.00    +0.212 HD
ENDBRANCH   7  40
TORSDOF 7
