REMARK  Name = ZINC08920306
REMARK  8 active torsions:
REMARK  status: ('A' for Active; 'I' for Inactive)
REMARK    1  A    between atoms: C_3  and  N_32
REMARK    2  A    between atoms: C_6  and  C_7
REMARK    3  A    between atoms: C_10  and  C_11
REMARK    4  A    between atoms: C_10  and  O_18
REMARK    5  A    between atoms: N_23  and  C_24
REMARK    6  A    between atoms: C_24  and  C_25
REMARK    7  A    between atoms: C_25  and  C_26
REMARK    8  A    between atoms: C_26  and  N_58
REMARK                            x       y       z     vdW  Elec       q    Type
REMARK                         _______ _______ _______ _____ _____    ______ ____
ROOT
ATOM      1  C   UNL     1      -3.320   6.144  -1.559  0.00  0.00    +0.144 C 
ATOM      2  C   UNL     1      -3.119   7.641  -1.604  0.00  0.00    +0.071 C 
ATOM      3  C   UNL     1      -3.740   8.585  -0.812  0.00  0.00    +0.133 C 
ATOM      4  C   UNL     1      -2.176   7.878  -2.617  0.00  0.00    +0.249 C 
ATOM      5  O   UNL     1      -1.754   8.968  -2.958  0.00  0.00    -0.282 OA
ATOM      6  C   UNL     1      -1.781   6.567  -3.199  0.00  0.00    +0.288 C 
ATOM      7  O   UNL     1      -0.981   6.418  -4.100  0.00  0.00    -0.266 OA
ATOM      8  N   UNL     1      -2.441   5.572  -2.584  0.00  0.00    -0.284 N 
ENDROOT
BRANCH   3   9
ATOM      9  C   UNL     1      -3.325   9.996  -0.885  0.00  0.00    +0.017 A 
ATOM     10  C   UNL     1      -1.975  10.339  -0.762  0.00  0.00    +0.013 A 
ATOM     11  C   UNL     1      -1.593  11.661  -0.837  0.00  0.00    +0.021 A 
ATOM     12  C   UNL     1      -2.545  12.651  -1.023  0.00  0.00    +0.041 A 
ATOM     13  C   UNL     1      -3.885  12.319  -1.140  0.00  0.00    +0.021 A 
ATOM     14  C   UNL     1      -4.281  11.001  -1.072  0.00  0.00    +0.013 A 
ATOM     15 CL   UNL     1      -2.056  14.314  -1.109  0.00  0.00    -0.084 Cl
ENDBRANCH   3   9
BRANCH   1  21
ATOM     16  C   UNL     1      -1.607   5.456   0.132  0.00  0.00    +0.008 A 
ATOM     17  C   UNL     1      -1.258   4.976   1.380  0.00  0.00    +0.033 A 
ATOM     18  C   UNL     1      -2.242   4.645   2.293  0.00  0.00    +0.126 A 
ATOM     19  C   UNL     1      -3.575   4.798   1.959  0.00  0.00    +0.033 A 
ATOM     20  C   UNL     1      -3.923   5.284   0.713  0.00  0.00    +0.008 A 
ATOM     21  C   UNL     1      -2.939   5.615  -0.200  0.00  0.00    -0.022 A 
BRANCH  18  22
ATOM     22  N   UNL     1      -1.869   4.126   3.628  0.00  0.00    +0.056 N 
ATOM     23  O   UNL     1      -2.736   3.834   4.433  0.00  0.00    -0.126 OA
ATOM     24  O   UNL     1      -0.695   3.990   3.922  0.00  0.00    -0.126 OA
ENDBRANCH  18  22
ENDBRANCH   1  21
BRANCH   3  25
ATOM     25  O   UNL     1      -4.729   8.215   0.030  0.00  0.00    -0.506 OA
ATOM     26  H   UNL     1      -5.065   9.017   0.523  0.00  0.00    +0.292 HD
ENDBRANCH   3  25
BRANCH   8  27
ATOM     27  C   UNL     1      -2.309   4.146  -2.891  0.00  0.00    +0.107 C 
BRANCH  27  28
ATOM     28  C   UNL     1      -1.198   3.539  -2.032  0.00  0.00    +0.000 C 
BRANCH  28  29
ATOM     29  C   UNL     1      -1.060   2.050  -2.353  0.00  0.00    -0.077 C 
BRANCH  29  35
ATOM     30  C   UNL     1       1.319   2.021  -1.897  0.00  0.00    -0.050 C 
ATOM     31  C   UNL     1       2.391   1.434  -0.975  0.00  0.00    +0.141 C 
ATOM     32  O   UNL     1       2.361   0.007  -1.066  0.00  0.00    -0.383 OA
ATOM     33  C   UNL     1       1.099  -0.566  -0.714  0.00  0.00    +0.141 C 
ATOM     34  C   UNL     1       0.013   0.001  -1.632  0.00  0.00    -0.050 C 
ATOM     35  N   UNL     1       0.004   1.473  -1.502  0.00  0.00    +0.383 N 
ATOM     36  H   UNL     1      -0.182   1.721  -0.523  0.00  0.00    -0.082 HD
ENDBRANCH  29  35
ENDBRANCH  28  29
ENDBRANCH  27  28
ENDBRANCH   8  27
TORSDOF 8
