REMARK  Name = ZINC66908655
REMARK  8 active torsions:
REMARK  status: ('A' for Active; 'I' for Inactive)
REMARK    1  A    between atoms: C_1  and  C_2
REMARK    2  A    between atoms: C_2  and  C_4
REMARK    3  A    between atoms: C_2  and  N_14
REMARK    4  A    between atoms: C_8  and  N_10
REMARK    5  A    between atoms: C_11  and  C_13
REMARK    6  A    between atoms: N_17  and  C_18
REMARK    7  A    between atoms: C_18  and  C_19
REMARK    8  A    between atoms: C_19  and  O_29
REMARK                            x       y       z     vdW  Elec       q    Type
REMARK                         _______ _______ _______ _____ _____    ______ ____
ROOT
ATOM      1  N   UNL     1       0.628  -0.054   1.208  0.00  0.00    -0.293 N 
ATOM      2  C   UNL     1       1.971  -0.038   1.098  0.00  0.00    +0.300 C 
ATOM      3  O   UNL     1       2.492   0.340   0.067  0.00  0.00    -0.253 OA
ATOM      4  N   UNL     1       2.736  -0.441   2.132  0.00  0.00    -0.296 N 
ATOM      5  H   UNL     1       0.212  -0.355   2.030  0.00  0.00    +0.151 HD
ATOM      6  H   UNL     1       2.320  -0.743   2.954  0.00  0.00    +0.150 HD
ENDROOT
BRANCH   1   8
ATOM      7  C   UNL     1      -0.365   1.905   0.131  0.00  0.00    +0.033 C 
ATOM      8  C   UNL     1      -0.204   0.384   0.084  0.00  0.00    +0.102 C 
BRANCH   8   9
ATOM      9  C   UNL     1      -1.560  -0.267   0.178  0.00  0.00    -0.026 A 
ATOM     10  C   UNL     1      -2.178  -0.400   1.408  0.00  0.00    +0.005 A 
ATOM     11  C   UNL     1      -3.422  -0.997   1.499  0.00  0.00    +0.002 A 
ATOM     12  C   UNL     1      -4.051  -1.463   0.361  0.00  0.00    +0.023 A 
ATOM     13  C   UNL     1      -3.433  -1.331  -0.875  0.00  0.00    +0.034 A 
ATOM     14  C   UNL     1      -2.185  -0.727  -0.964  0.00  0.00    +0.028 A 
BRANCH  13  15
ATOM     15  N   UNL     1      -4.067  -1.803  -2.030  0.00  0.00    -0.286 N 
ATOM     16  C   UNL     1      -5.410  -1.760  -2.126  0.00  0.00    +0.214 C 
ATOM     17  O   UNL     1      -6.064  -1.229  -1.254  0.00  0.00    -0.276 OA
ATOM     18  C   UNL     1      -6.100  -2.373  -3.318  0.00  0.00    +0.109 C 
ATOM     19  H   UNL     1      -3.539  -2.160  -2.761  0.00  0.00    +0.155 HD
ENDBRANCH  13  15
ENDBRANCH   8   9
ENDBRANCH   1   8
BRANCH   4  20
ATOM     20  C   UNL     1       4.196  -0.424   2.013  0.00  0.00    +0.145 C 
BRANCH  20  21
ATOM     21  C   UNL     1       4.817  -1.053   3.261  0.00  0.00    +0.107 C 
ATOM     22  C   UNL     1       4.269  -2.467   3.438  0.00  0.00    +0.041 C 
ATOM     23  C   UNL     1       5.059  -3.156   4.558  0.00  0.00    +0.008 C 
ATOM     24  C   UNL     1       6.476  -3.422   4.054  0.00  0.00    +0.035 C 
ATOM     25  C   UNL     1       7.078  -2.167   3.479  0.00  0.00    -0.041 A 
ATOM     26  C   UNL     1       6.316  -1.081   3.111  0.00  0.00    -0.011 A 
ATOM     27  C   UNL     1       6.933   0.044   2.580  0.00  0.00    +0.007 A 
ATOM     28  C   UNL     1       8.303   0.083   2.421  0.00  0.00    +0.000 A 
ATOM     29  C   UNL     1       9.068  -1.006   2.794  0.00  0.00    +0.000 A 
ATOM     30  C   UNL     1       8.457  -2.125   3.320  0.00  0.00    +0.004 A 
BRANCH  21  31
ATOM     31  O   UNL     1       4.473  -0.268   4.405  0.00  0.00    -0.382 OA
ATOM     32  H   UNL     1       4.781   0.647   4.361  0.00  0.00    +0.211 HD
ENDBRANCH  21  31
ENDBRANCH  20  21
ENDBRANCH   4  20
TORSDOF 6
