REMARK  Name = ZINC10055577
REMARK  9 active torsions:
REMARK  status: ('A' for Active; 'I' for Inactive)
REMARK    1  A    between atoms: C_1  and  C_2
REMARK    2  A    between atoms: C_3  and  C_33
REMARK    3  A    between atoms: C_11  and  C_13
REMARK    4  A    between atoms: C_13  and  C_15
REMARK    5  A    between atoms: C_13  and  O_16
REMARK    6  A    between atoms: O_16  and  C_17
REMARK    7  A    between atoms: C_17  and  C_19
REMARK    8  A    between atoms: C_19  and  N_20
REMARK    9  A    between atoms: C_26  and  C_29
REMARK                            x       y       z     vdW  Elec       q    Type
REMARK                         _______ _______ _______ _____ _____    ______ ____
ROOT
ATOM      1  C   UNL     1      -1.798   3.630   0.690  0.00  0.00    +0.326 C 
ATOM      2  O   UNL     1      -2.671   2.962   0.188  0.00  0.00    -0.249 OA
ENDROOT
BRANCH   1   3
ATOM      3  O   UNL     1      -0.749   3.031   1.275  0.00  0.00    -0.453 OA
BRANCH   3   4
ATOM      4  C   UNL     1      -0.729   1.579   1.267  0.00  0.00    +0.239 C 
ATOM      5  C   UNL     1      -0.013   1.086   0.008  0.00  0.00    +0.060 C 
BRANCH   4  16
ATOM      6  C   UNL     1       1.724  -0.399   7.184  0.00  0.00    +0.045 C 
ATOM      7  C   UNL     1       2.194  -0.355   5.754  0.00  0.00    -0.026 A 
ATOM      8  C   UNL     1       3.418  -0.802   5.427  0.00  0.00    -0.008 A 
ATOM      9  S   UNL     1       3.494  -0.543   3.665  0.00  0.00    -0.073 S 
ATOM     10  C   UNL     1       1.883   0.157   3.419  0.00  0.00    +0.116 A 
ATOM     11  C   UNL     1       1.331   0.169   4.713  0.00  0.00    +0.075 A 
ATOM     12  C   UNL     1       0.001   0.696   4.813  0.00  0.00    +0.260 A 
ATOM     13  O   UNL     1      -0.563   0.749   5.892  0.00  0.00    -0.267 OA
ATOM     14  N   UNL     1      -0.611   1.137   3.699  0.00  0.00    -0.307 N 
ATOM     15  H   UNL     1      -1.509   1.498   3.761  0.00  0.00    +0.170 HD
ATOM     16  C   UNL     1       0.000   1.080   2.488  0.00  0.00    +0.152 A 
ATOM     17  N   UNL     1       1.210   0.606   2.363  0.00  0.00    -0.223 NA
ATOM     18  C   UNL     1       4.473  -1.382   6.333  0.00  0.00    +0.052 C 
ENDBRANCH   4  16
ENDBRANCH   3   4
ENDBRANCH   1   3
BRANCH   1  19
ATOM     19  C   UNL     1      -1.887   5.134   0.659  0.00  0.00    +0.238 C 
BRANCH  19  20
ATOM     20  N   UNL     1      -3.116   5.536  -0.029  0.00  0.00    -0.213 N 
ATOM     21  C   UNL     1      -4.301   5.732   0.586  0.00  0.00    +0.247 C 
ATOM     22  O   UNL     1      -4.542   5.613   1.768  0.00  0.00    -0.273 OA
ATOM     23  C   UNL     1      -5.263   6.131  -0.509  0.00  0.00    +0.113 C 
ATOM     24  C   UNL     1      -5.811   7.531  -0.250  0.00  0.00    +0.035 C 
ATOM     25  C   UNL     1      -6.760   7.928  -1.383  0.00  0.00    +0.006 C 
ATOM     26  C   UNL     1      -7.908   6.919  -1.462  0.00  0.00    -0.014 C 
ATOM     27  C   UNL     1      -7.345   5.525  -1.746  0.00  0.00    +0.006 C 
ATOM     28  C   UNL     1      -6.398   5.118  -0.614  0.00  0.00    +0.035 C 
ATOM     29  C   UNL     1      -8.865   7.322  -2.586  0.00  0.00    +0.007 C 
ATOM     30  N   UNL     1      -4.444   6.115  -1.727  0.00  0.00    -0.285 N 
ATOM     31  C   UNL     1      -3.201   5.761  -1.346  0.00  0.00    +0.310 C 
ATOM     32  O   UNL     1      -2.264   5.654  -2.112  0.00  0.00    -0.252 OA
ATOM     33  H   UNL     1      -4.738   6.324  -2.628  0.00  0.00    +0.151 HD
ENDBRANCH  19  20
ENDBRANCH   1  19
TORSDOF 5
