REMARK  Name = ZINC14475857
REMARK  3 active torsions:
REMARK  status: ('A' for Active; 'I' for Inactive)
REMARK    1  A    between atoms: C_3  and  O_29
REMARK    2  A    between atoms: C_4  and  C_10
REMARK    3  A    between atoms: C_6  and  N_7
REMARK                            x       y       z     vdW  Elec       q    Type
REMARK                         _______ _______ _______ _____ _____    ______ ____
ROOT
ATOM      1  C   UNL     1       2.448   3.951  -0.000  0.00  0.00    +0.109 C 
ATOM      2  C   UNL     1       2.870   4.224  -1.446  0.00  0.00    +0.029 C 
ATOM      3  C   UNL     1       3.258   2.864  -2.092  0.00  0.00    +0.033 C 
ATOM      4  C   UNL     1       4.682   2.642  -1.621  0.00  0.00    -0.030 C 
ATOM      5  C   UNL     1       5.230   3.777  -1.264  0.00  0.00    -0.023 C 
ATOM      6  C   UNL     1       4.251   4.915  -1.439  0.00  0.00    +0.050 C 
ATOM      7  C   UNL     1       4.369   5.894  -0.308  0.00  0.00    +0.002 A 
ATOM      8  C   UNL     1       3.410   6.010   0.683  0.00  0.00    +0.051 A 
ATOM      9  C   UNL     1       3.582   6.938   1.710  0.00  0.00    +0.064 A 
ATOM     10  C   UNL     1       4.702   7.744   1.744  0.00  0.00    +0.043 A 
ATOM     11  C   UNL     1       5.659   7.629   0.752  0.00  0.00    +0.061 A 
ATOM     12  C   UNL     1       5.493   6.710  -0.267  0.00  0.00    +0.065 A 
ATOM     13 CL   UNL     1       6.700   6.575  -1.507  0.00  0.00    -0.082 Cl
ATOM     14 CL   UNL     1       7.070   8.640   0.787  0.00  0.00    -0.082 Cl
ATOM     15 CL   UNL     1       2.379   7.080   2.954  0.00  0.00    -0.082 Cl
ATOM     16  N   UNL     1       2.258   5.222   0.698  0.00  0.00    -0.335 N 
ATOM     17  H   UNL     1       1.287   5.458   1.158  0.00  0.00    +0.147 HD
ENDROOT
BRANCH   1  21
ATOM     18  C   UNL     1      -1.214   1.744   0.020  0.00  0.00    +0.036 A 
ATOM     19  C   UNL     1      -0.436   1.795   1.161  0.00  0.00    +0.048 A 
ATOM     20  C   UNL     1       0.753   2.509   1.157  0.00  0.00    +0.122 A 
ATOM     21  C   UNL     1       1.156   3.175   0.008  0.00  0.00    +0.017 A 
ATOM     22  C   UNL     1       0.372   3.125  -1.128  0.00  0.00    +0.041 A 
ATOM     23  C   UNL     1      -0.813   2.412  -1.122  0.00  0.00    +0.127 A 
BRANCH  23  24
ATOM     24  N   UNL     1      -1.650   2.359  -2.341  0.00  0.00    +0.056 N 
ATOM     25  O   UNL     1      -1.295   2.943  -3.349  0.00  0.00    -0.126 OA
ATOM     26  O   UNL     1      -2.694   1.732  -2.336  0.00  0.00    -0.126 OA
ENDBRANCH  23  24
BRANCH  20  27
ATOM     27  O   UNL     1       1.523   2.556   2.276  0.00  0.00    -0.506 OA
ATOM     28  H   UNL     1       2.466   3.123   2.272  0.00  0.00    +0.292 HD
ENDBRANCH  20  27
ENDBRANCH   1  21
TORSDOF 3
