REMARK  Name = ZINC40659149
REMARK  8 active torsions:
REMARK  status: ('A' for Active; 'I' for Inactive)
REMARK    1  A    between atoms: C_1  and  C_2
REMARK    2  A    between atoms: C_5  and  S_8
REMARK    3  A    between atoms: S_8  and  N_11
REMARK    4  A    between atoms: N_11  and  N_12
REMARK    5  A    between atoms: C_14  and  N_28
REMARK    6  A    between atoms: C_15  and  N_19
REMARK    7  A    between atoms: N_19  and  N_20
REMARK    8  A    between atoms: C_21  and  C_23
REMARK                            x       y       z     vdW  Elec       q    Type
REMARK                         _______ _______ _______ _____ _____    ______ ____
ROOT
ATOM      1  N   UNL     1       2.500  -4.622   1.014  0.00  0.00    -0.244 N 
ATOM      2  C   UNL     1       3.204  -5.587   1.718  0.00  0.00    +0.169 A 
ATOM      3  C   UNL     1       4.046  -5.223   2.765  0.00  0.00    +0.208 A 
ATOM      4  C   UNL     1       4.729  -6.230   3.440  0.00  0.00    +0.171 A 
ATOM      5  N   UNL     1       4.554  -7.495   3.063  0.00  0.00    -0.217 NA
ATOM      6  C   UNL     1       3.748  -7.799   2.067  0.00  0.00    +0.225 A 
ATOM      7  N   UNL     1       3.079  -6.875   1.407  0.00  0.00    -0.217 NA
ATOM      8  H   UNL     1       2.596  -3.685   1.247  0.00  0.00    +0.169 HD
ENDROOT
BRANCH   3   9
ATOM      9  N   UNL     1       4.210  -3.804   3.149  0.00  0.00    +0.063 N 
ATOM     10  O   UNL     1       3.480  -3.313   3.979  0.00  0.00    -0.126 OA
ATOM     11  O   UNL     1       5.075  -3.134   2.633  0.00  0.00    -0.126 OA
ENDBRANCH   3   9
BRANCH   1  12
ATOM     12  N   UNL     1       1.651  -4.999  -0.034  0.00  0.00    -0.109 NA
ATOM     13  H   UNL     1       1.993  -5.536  -0.767  0.00  0.00    +0.172 HD
BRANCH  12  14
ATOM     14  S   UNL     1       0.063  -4.530  -0.023  0.00  0.00    +0.074 S 
ATOM     15  O   UNL     1      -0.476  -4.950   1.223  0.00  0.00    -0.152 OA
ATOM     16  O   UNL     1      -0.490  -4.937  -1.267  0.00  0.00    -0.152 OA
BRANCH  14  21
ATOM     17  C   UNL     1      -0.018   1.503   0.010  0.00  0.00    +0.044 C 
ATOM     18  C   UNL     1       0.002  -0.004   0.002  0.00  0.00    -0.050 A 
ATOM     19  C   UNL     1       0.006  -0.689  -1.199  0.00  0.00    +0.005 A 
ATOM     20  C   UNL     1       0.025  -2.071  -1.206  0.00  0.00    +0.029 A 
ATOM     21  C   UNL     1       0.040  -2.768  -0.013  0.00  0.00    +0.107 A 
ATOM     22  C   UNL     1       0.037  -2.084   1.188  0.00  0.00    +0.029 A 
ATOM     23  C   UNL     1       0.023  -0.702   1.195  0.00  0.00    +0.005 A 
ENDBRANCH  14  21
ENDBRANCH  12  14
ENDBRANCH   1  12
BRANCH   4  24
ATOM     24  N   UNL     1       5.580  -5.920   4.490  0.00  0.00    -0.246 N 
ATOM     25  H   UNL     1       5.703  -4.995   4.758  0.00  0.00    +0.172 HD
BRANCH  24  26
ATOM     26  N   UNL     1       6.264  -6.941   5.163  0.00  0.00    -0.229 N 
ATOM     27  C   UNL     1       7.091  -6.639   6.183  0.00  0.00    +0.295 C 
ATOM     28  O   UNL     1       7.245  -5.480   6.519  0.00  0.00    -0.265 OA
ATOM     29  H   UNL     1       6.141  -7.865   4.894  0.00  0.00    +0.173 HD
BRANCH  27  30
ATOM     30  C   UNL     1       7.806  -7.708   6.888  0.00  0.00    +0.190 A 
ATOM     31  C   UNL     1       8.666  -7.543   7.936  0.00  0.00    +0.054 A 
ATOM     32  C   UNL     1       9.116  -8.823   8.294  0.00  0.00    +0.042 A 
ATOM     33  C   UNL     1       8.519  -9.703   7.460  0.00  0.00    +0.196 A 
ATOM     34  O   UNL     1       7.726  -9.028   6.617  0.00  0.00    -0.458 OA
ENDBRANCH  27  30
ENDBRANCH  24  26
ENDBRANCH   4  24
TORSDOF 7
