REMARK  Name = ZINC49464170
REMARK  7 active torsions:
REMARK  status: ('A' for Active; 'I' for Inactive)
REMARK    1  A    between atoms: C_1  and  C_2
REMARK    2  A    between atoms: C_2  and  C_3
REMARK    3  A    between atoms: C_2  and  C_4
REMARK    4  A    between atoms: C_2  and  C_5
REMARK    5  A    between atoms: C_8  and  S_11
REMARK    6  A    between atoms: S_11  and  N_14
REMARK    7  A    between atoms: N_14  and  C_15
REMARK                            x       y       z     vdW  Elec       q    Type
REMARK                         _______ _______ _______ _____ _____    ______ ____
ROOT
ATOM      1  C   UNL     1       3.210   0.520  -5.838  0.00  0.00    +0.049 A 
ATOM      2  C   UNL     1       3.284   1.050  -4.553  0.00  0.00    +0.028 A 
ATOM      3  C   UNL     1       3.886   2.274  -4.340  0.00  0.00    +0.048 A 
ATOM      4  C   UNL     1       4.421   2.978  -5.405  0.00  0.00    +0.133 A 
ATOM      5  C   UNL     1       4.357   2.453  -6.703  0.00  0.00    +0.080 A 
ATOM      6  C   UNL     1       3.747   1.212  -6.909  0.00  0.00    +0.041 A 
ATOM      7  C   UNL     1       4.937   3.186  -7.838  0.00  0.00    +0.250 C 
ATOM      8  O   UNL     1       4.230   3.480  -8.782  0.00  0.00    -0.270 OA
ATOM      9  N   UNL     1       6.238   3.540  -7.849  0.00  0.00    -0.294 N 
ATOM     10  C   UNL     1       6.744   4.368  -8.944  0.00  0.00    +0.108 C 
ATOM     11  C   UNL     1       8.051   3.784  -9.478  0.00  0.00    +0.019 C 
ATOM     12  C   UNL     1       9.029   3.589  -8.319  0.00  0.00    +0.003 C 
ATOM     13  C   UNL     1       8.450   2.591  -7.320  0.00  0.00    +0.023 C 
ATOM     14  C   UNL     1       7.117   3.085  -6.774  0.00  0.00    +0.080 C 
ATOM     15  C   UNL     1       7.362   4.235  -5.793  0.00  0.00    +0.063 C 
ATOM     16  C   UNL     1       6.332   4.175  -4.666  0.00  0.00    +0.231 C 
ATOM     17  O   UNL     1       5.009   4.189  -5.207  0.00  0.00    -0.491 OA
ENDROOT
BRANCH   1  18
ATOM     18  N   UNL     1       2.596  -0.720  -6.046  0.00  0.00    -0.216 N 
ATOM     19  H   UNL     1       1.714  -0.763  -6.447  0.00  0.00    +0.174 HD
BRANCH  18  20
ATOM     20  S   UNL     1       3.375  -2.114  -5.607  0.00  0.00    +0.072 S 
ATOM     21  O   UNL     1       2.516  -3.188  -5.962  0.00  0.00    -0.150 OA
ATOM     22  O   UNL     1       3.840  -1.918  -4.279  0.00  0.00    -0.150 OA
BRANCH  20  26
ATOM     23  C   UNL     1       7.050  -2.477  -8.224  0.00  0.00    -0.042 A 
ATOM     24  C   UNL     1       7.149  -1.908  -6.969  0.00  0.00    +0.006 A 
ATOM     25  C   UNL     1       6.027  -1.797  -6.169  0.00  0.00    +0.029 A 
ATOM     26  C   UNL     1       4.805  -2.254  -6.626  0.00  0.00    +0.109 A 
ATOM     27  C   UNL     1       4.706  -2.823  -7.882  0.00  0.00    +0.029 A 
ATOM     28  C   UNL     1       5.827  -2.930  -8.683  0.00  0.00    +0.006 A 
BRANCH  23  30
ATOM     29  C   UNL     1       8.054  -1.819 -10.394  0.00  0.00    +0.015 C 
ATOM     30  C   UNL     1       8.274  -2.598  -9.096  0.00  0.00    -0.013 C 
ATOM     31  C   UNL     1       8.524  -4.072  -9.422  0.00  0.00    +0.015 C 
ATOM     32  C   UNL     1       9.485  -2.027  -8.356  0.00  0.00    +0.015 C 
ENDBRANCH  23  30
ENDBRANCH  20  26
ENDBRANCH  18  20
ENDBRANCH   1  18
TORSDOF 4
