REMARK  Name = ZINC53853035
REMARK  6 active torsions:
REMARK  status: ('A' for Active; 'I' for Inactive)
REMARK    1  A    between atoms: C_1  and  C_2
REMARK    2  A    between atoms: C_2  and  C_4
REMARK    3  A    between atoms: C_2  and  N_16
REMARK    4  A    between atoms: C_17  and  C_19
REMARK    5  A    between atoms: C_19  and  S_20
REMARK    6  A    between atoms: S_20  and  C_21
REMARK                            x       y       z     vdW  Elec       q    Type
REMARK                         _______ _______ _______ _____ _____    ______ ____
ROOT
ATOM      1  N   UNL     1       0.688  -0.476  -1.203  0.00  0.00    -0.308 N 
ATOM      2  C   UNL     1       2.031  -0.587  -1.215  0.00  0.00    +0.224 C 
ATOM      3  O   UNL     1       2.672  -0.295  -0.228  0.00  0.00    -0.275 OA
ATOM      4  H   UNL     1       0.175  -0.710  -1.993  0.00  0.00    +0.149 HD
ENDROOT
BRANCH   1   6
ATOM      5  C   UNL     1      -0.019   1.526   0.010  0.00  0.00    +0.033 C 
ATOM      6  C   UNL     1       0.002  -0.004   0.002  0.00  0.00    +0.100 C 
BRANCH   6   7
ATOM      7  C   UNL     1      -1.412  -0.526   0.013  0.00  0.00    -0.025 A 
ATOM      8  C   UNL     1      -2.140  -0.568  -1.164  0.00  0.00    +0.007 A 
ATOM      9  C   UNL     1      -3.436  -1.044  -1.164  0.00  0.00    +0.028 A 
ATOM     10  C   UNL     1      -4.011  -1.482   0.019  0.00  0.00    +0.067 A 
ATOM     11  C   UNL     1      -3.276  -1.440   1.206  0.00  0.00    +0.067 A 
ATOM     12  C   UNL     1      -1.974  -0.965   1.195  0.00  0.00    +0.033 A 
ATOM     13  N   UNL     1      -4.104  -1.937   2.210  0.00  0.00    -0.306 N 
ATOM     14  H   UNL     1      -3.868  -2.030   3.146  0.00  0.00    +0.170 HD
ATOM     15  C   UNL     1      -5.288  -2.267   1.659  0.00  0.00    +0.325 A 
ATOM     16  O   UNL     1      -6.237  -2.732   2.262  0.00  0.00    -0.247 OA
ATOM     17  N   UNL     1      -5.262  -2.004   0.338  0.00  0.00    -0.306 N 
ATOM     18  H   UNL     1      -5.991  -2.152  -0.284  0.00  0.00    +0.170 HD
ENDBRANCH   6   7
ENDBRANCH   1   6
BRANCH   2  19
ATOM     19  C   UNL     1       2.736  -1.073  -2.455  0.00  0.00    +0.172 C 
BRANCH  19  20
ATOM     20  S   UNL     1       4.525  -1.111  -2.157  0.00  0.00    -0.089 S 
BRANCH  20  21
ATOM     21  C   UNL     1       5.198  -1.692  -3.678  0.00  0.00    +0.136 A 
ATOM     22  N   UNL     1       4.571  -2.021  -4.785  0.00  0.00    -0.233 NA
ATOM     23  C   UNL     1       5.222  -2.455  -5.886  0.00  0.00    +0.079 A 
ATOM     24  C   UNL     1       4.672  -2.837  -7.132  0.00  0.00    +0.029 A 
ATOM     25  C   UNL     1       5.481  -3.258  -8.155  0.00  0.00    +0.002 A 
ATOM     26  C   UNL     1       6.859  -3.325  -8.009  0.00  0.00    +0.001 A 
ATOM     27  C   UNL     1       7.431  -2.958  -6.804  0.00  0.00    +0.017 A 
ATOM     28  C   UNL     1       6.629  -2.535  -5.774  0.00  0.00    +0.040 A 
ATOM     29  S   UNL     1       6.909  -1.978  -4.111  0.00  0.00    -0.061 S 
ENDBRANCH  20  21
ENDBRANCH  19  20
ENDBRANCH   2  19
TORSDOF 5
