REMARK  Name = ZINC52812754
REMARK  8 active torsions:
REMARK  status: ('A' for Active; 'I' for Inactive)
REMARK    1  A    between atoms: C_1  and  C_2
REMARK    2  A    between atoms: C_4  and  N_19
REMARK    3  A    between atoms: C_7  and  N_8
REMARK    4  A    between atoms: N_8  and  C_9
REMARK    5  A    between atoms: C_9  and  C_11
REMARK    6  A    between atoms: C_9  and  C_12
REMARK    7  A    between atoms: C_12  and  C_13
REMARK    8  A    between atoms: C_13  and  C_14
REMARK                            x       y       z     vdW  Elec       q    Type
REMARK                         _______ _______ _______ _____ _____    ______ ____
ROOT
ATOM      1  N   UNL     1       0.025  -0.030   2.407  0.00  0.00    -0.326 N 
ATOM      2  H   UNL     1       0.012   0.940   2.415  0.00  0.00    +0.148 HD
ENDROOT
BRANCH   1   9
ATOM      3  C   UNL     1      -0.018   1.503   0.010  0.00  0.00    +0.047 C 
ATOM      4  C   UNL     1       0.002  -0.004   0.002  0.00  0.00    -0.009 A 
ATOM      5  C   UNL     1       0.006  -0.699  -1.194  0.00  0.00    +0.041 A 
ATOM      6  C   UNL     1       0.025  -2.086  -1.155  0.00  0.00    +0.145 A 
ATOM      7  C   UNL     1       0.039  -2.728   0.068  0.00  0.00    +0.145 A 
ATOM      8  N   UNL     1       0.035  -2.040   1.193  0.00  0.00    -0.238 NA
ATOM      9  C   UNL     1       0.023  -0.715   1.197  0.00  0.00    +0.122 A 
BRANCH   6  10
ATOM     10  N   UNL     1       0.029  -2.870  -2.410  0.00  0.00    +0.058 N 
ATOM     11  O   UNL     1       0.016  -2.302  -3.478  0.00  0.00    -0.126 OA
ATOM     12  O   UNL     1       0.046  -4.078  -2.369  0.00  0.00    -0.126 OA
ENDBRANCH   6  10
ENDBRANCH   1   9
BRANCH   1  13
ATOM     13  C   UNL     1       0.047  -0.773   3.669  0.00  0.00    +0.069 C 
ATOM     14  C   UNL     1       1.493  -1.120   4.031  0.00  0.00    +0.028 C 
BRANCH  13  15
ATOM     15  C   UNL     1      -0.564   0.087   4.777  0.00  0.00    +0.029 C 
BRANCH  15  16
ATOM     16  C   UNL     1      -2.044   0.330   4.477  0.00  0.00    +0.076 C 
BRANCH  16  17
ATOM     17  C   UNL     1      -2.646   1.177   5.568  0.00  0.00    +0.105 A 
ATOM     18  C   UNL     1      -2.703   2.521   5.580  0.00  0.00    +0.044 A 
ATOM     19  C   UNL     1      -3.345   2.893   6.783  0.00  0.00    +0.041 A 
ATOM     20  C   UNL     1      -3.641   1.755   7.436  0.00  0.00    +0.195 A 
ATOM     21  O   UNL     1      -3.220   0.718   6.692  0.00  0.00    -0.468 OA
ENDBRANCH  16  17
ENDBRANCH  15  16
ENDBRANCH  13  15
ENDBRANCH   1  13
TORSDOF 6
