REMARK  Name = ZINC19314372
REMARK  4 active torsions:
REMARK  status: ('A' for Active; 'I' for Inactive)
REMARK    1  A    between atoms: C_4  and  C_7
REMARK    2  A    between atoms: C_10  and  C_19
REMARK    3  A    between atoms: C_14  and  C_17
REMARK    4  A    between atoms: C_17  and  O_18
REMARK                            x       y       z     vdW  Elec       q    Type
REMARK                         _______ _______ _______ _____ _____    ______ ____
ROOT
ATOM      1  C   UNL     1      -2.229  -2.394   1.236  0.00  0.00    +0.223 C 
ATOM      2  N   UNL     1      -1.823  -1.783  -0.049  0.00  0.00    -0.232 NA
ATOM      3  C   UNL     1      -2.881  -2.003  -1.060  0.00  0.00    +0.223 C 
ATOM      4  O   UNL     1      -3.008  -0.755  -1.774  0.00  0.00    -0.355 OA
ATOM      5  C   UNL     1      -2.888   0.253  -0.743  0.00  0.00    +0.189 C 
ATOM      6  C   UNL     1      -1.803  -0.313   0.197  0.00  0.00    +0.097 C 
ATOM      7  C   UNL     1      -2.260  -0.158   1.663  0.00  0.00    +0.189 C 
ATOM      8  O   UNL     1      -2.996  -1.382   1.923  0.00  0.00    -0.355 OA
ENDROOT
BRANCH   1  12
ATOM      9  C   UNL     1      -4.639  -5.850   0.534  0.00  0.00    +0.000 A 
ATOM     10  C   UNL     1      -3.283  -5.887   0.268  0.00  0.00    +0.000 A 
ATOM     11  C   UNL     1      -2.503  -4.769   0.495  0.00  0.00    +0.007 A 
ATOM     12  C   UNL     1      -3.079  -3.613   0.988  0.00  0.00    -0.004 A 
ATOM     13  C   UNL     1      -4.434  -3.577   1.259  0.00  0.00    +0.007 A 
ATOM     14  C   UNL     1      -5.215  -4.694   1.028  0.00  0.00    +0.000 A 
ENDBRANCH   1  12
BRANCH   3  15
ATOM     15  C   UNL     1      -2.477  -3.104  -2.006  0.00  0.00    -0.004 A 
ATOM     16  C   UNL     1      -1.141  -3.317  -2.287  0.00  0.00    +0.007 A 
ATOM     17  C   UNL     1      -0.769  -4.330  -3.152  0.00  0.00    +0.000 A 
ATOM     18  C   UNL     1      -1.735  -5.124  -3.741  0.00  0.00    +0.000 A 
ATOM     19  C   UNL     1      -3.072  -4.908  -3.463  0.00  0.00    +0.000 A 
ATOM     20  C   UNL     1      -3.443  -3.898  -2.596  0.00  0.00    +0.007 A 
ENDBRANCH   3  15
BRANCH   6  21
ATOM     21  C   UNL     1      -0.427   0.307  -0.056  0.00  0.00    +0.182 C 
BRANCH  21  22
ATOM     22  O   UNL     1      -0.485   1.712   0.200  0.00  0.00    -0.393 OA
ATOM     23  H   UNL     1       0.415   2.332   0.070  0.00  0.00    +0.209 HD
ENDBRANCH  21  22
ENDBRANCH   6  21
TORSDOF 4
