REMARK  Name = ZINC39628309
REMARK  11 active torsions:
REMARK  status: ('A' for Active; 'I' for Inactive)
REMARK    1  A    between atoms: C_1  and  C_2
REMARK    2  A    between atoms: N_8  and  C_9
REMARK    3  A    between atoms: C_9  and  C_10
REMARK    4  A    between atoms: C_10  and  C_11
REMARK    5  A    between atoms: C_11  and  N_12
REMARK    6  A    between atoms: C_13  and  C_15
REMARK    7  A    between atoms: C_26  and  C_28
REMARK    8  A    between atoms: C_30  and  O_36
REMARK    9  A    between atoms: C_32  and  O_34
REMARK   10  A    between atoms: O_34  and  C_35
REMARK   11  A    between atoms: O_36  and  C_37
REMARK                            x       y       z     vdW  Elec       q    Type
REMARK                         _______ _______ _______ _____ _____    ______ ____
ROOT
ATOM      1  C   UNL     1       6.533   0.550   5.247  0.00  0.00    +0.100 C 
ATOM      2  C   UNL     1       5.923   0.915   6.619  0.00  0.00    +0.121 C 
ATOM      3  N   UNL     1       7.093   1.177   7.491  0.00  0.00    -0.296 N 
ATOM      4  C   UNL     1       8.049   1.899   6.617  0.00  0.00    +0.115 C 
ATOM      5  C   UNL     1       7.928   1.198   5.250  0.00  0.00    -0.004 C 
ATOM      6  C   UNL     1       8.037   2.220   4.122  0.00  0.00    -0.010 C 
ATOM      7  C   UNL     1       9.450   2.809   4.108  0.00  0.00    -0.082 C 
ATOM      8  N   UNL     1      10.429   1.732   3.916  0.00  0.00    +0.379 N 
ATOM      9  C   UNL     1      10.381   0.803   5.052  0.00  0.00    -0.082 C 
ATOM     10  C   UNL     1       9.007   0.130   5.106  0.00  0.00    -0.010 C 
ATOM     11  C   UNL     1       7.252   0.836   8.785  0.00  0.00    +0.247 C 
ATOM     12  O   UNL     1       6.428   0.130   9.333  0.00  0.00    -0.270 OA
ATOM     13  H   UNL     1      10.215   1.232   3.066  0.00  0.00    -0.086 HD
ATOM     14  H   UNL     1      11.354   2.128   3.846  0.00  0.00    -0.086 HD
ENDROOT
BRANCH  11  15
ATOM     15  C   UNL     1       8.428   1.321   9.538  0.00  0.00    +0.044 A 
ATOM     16  C   UNL     1       9.130   2.442   9.094  0.00  0.00    +0.059 A 
ATOM     17  C   UNL     1      10.231   2.893   9.803  0.00  0.00    +0.124 A 
ATOM     18  C   UNL     1      10.636   2.232  10.953  0.00  0.00    +0.091 A 
ATOM     19  C   UNL     1       9.941   1.117  11.399  0.00  0.00    +0.124 A 
ATOM     20  C   UNL     1       8.835   0.663  10.699  0.00  0.00    +0.059 A 
BRANCH  19  21
ATOM     21  O   UNL     1      10.342   0.473  12.526  0.00  0.00    -0.495 OA
ATOM     22  C   UNL     1      11.487   0.999  13.201  0.00  0.00    +0.277 C 
ENDBRANCH  19  21
BRANCH  17  23
ATOM     23  O   UNL     1      10.916   3.985   9.370  0.00  0.00    -0.495 OA
ATOM     24  C   UNL     1      12.041   4.395  10.150  0.00  0.00    +0.277 C 
ENDBRANCH  17  23
ENDBRANCH  11  15
BRANCH   1  26
ATOM     25  N   UNL     1       5.635   0.484   2.943  0.00  0.00    -0.315 N 
ATOM     26  C   UNL     1       5.693   1.116   4.132  0.00  0.00    +0.218 C 
ATOM     27  O   UNL     1       5.068   2.142   4.304  0.00  0.00    -0.275 OA
ATOM     28  H   UNL     1       6.134  -0.337   2.806  0.00  0.00    +0.149 HD
BRANCH  25  29
ATOM     29  C   UNL     1       4.818   1.035   1.859  0.00  0.00    +0.102 C 
BRANCH  29  30
ATOM     30  C   UNL     1       4.926   0.131   0.629  0.00  0.00    +0.000 C 
BRANCH  30  31
ATOM     31  C   UNL     1       4.073   0.707  -0.503  0.00  0.00    -0.077 C 
BRANCH  31  38
ATOM     32  C   UNL     1       1.842   0.380  -2.175  0.00  0.00    -0.013 C 
ATOM     33  C   UNL     1       3.267   0.325  -2.728  0.00  0.00    -0.072 C 
ATOM     34  C   UNL     1       3.312  -0.622  -3.929  0.00  0.00    -0.016 C 
ATOM     35  C   UNL     1       4.740  -0.673  -4.479  0.00  0.00    -0.003 C 
ATOM     36  C   UNL     1       5.692  -1.109  -3.361  0.00  0.00    -0.019 C 
ATOM     37  C   UNL     1       5.559  -0.144  -2.180  0.00  0.00    -0.078 C 
ATOM     38  N   UNL     1       4.178  -0.161  -1.684  0.00  0.00    +0.381 N 
ATOM     39  H   UNL     1       3.924  -1.103  -1.430  0.00  0.00    -0.081 HD
ENDBRANCH  31  38
ENDBRANCH  30  31
ENDBRANCH  29  30
ENDBRANCH  25  29
ENDBRANCH   1  26
TORSDOF 8
