REMARK  Name = ZINC41740366
REMARK  9 active torsions:
REMARK  status: ('A' for Active; 'I' for Inactive)
REMARK    1  A    between atoms: C_1  and  C_2
REMARK    2  A    between atoms: C_2  and  C_3
REMARK    3  A    between atoms: N_5  and  C_6
REMARK    4  A    between atoms: C_10  and  N_12
REMARK    5  A    between atoms: C_13  and  C_15
REMARK    6  A    between atoms: N_17  and  C_18
REMARK    7  A    between atoms: C_18  and  C_19
REMARK    8  A    between atoms: C_19  and  C_21
REMARK    9  A    between atoms: C_19  and  O_29
REMARK                            x       y       z     vdW  Elec       q    Type
REMARK                         _______ _______ _______ _____ _____    ______ ____
ROOT
ATOM      1  N   UNL     1       2.584  -5.293  -4.367  0.00  0.00    -0.278 N 
ATOM      2  C   UNL     1       3.366  -5.687  -5.392  0.00  0.00    +0.303 C 
ATOM      3  O   UNL     1       3.882  -4.859  -6.115  0.00  0.00    -0.265 OA
ATOM      4  H   UNL     1       2.118  -5.954  -3.831  0.00  0.00    +0.155 HD
ENDROOT
BRANCH   1   9
ATOM      5  C   UNL     1       2.174  -2.162  -2.479  0.00  0.00    +0.035 A 
ATOM      6  C   UNL     1       2.165  -1.234  -3.513  0.00  0.00    +0.023 A 
ATOM      7  C   UNL     1       2.295  -1.656  -4.822  0.00  0.00    +0.004 A 
ATOM      8  C   UNL     1       2.434  -3.000  -5.108  0.00  0.00    +0.023 A 
ATOM      9  C   UNL     1       2.444  -3.933  -4.078  0.00  0.00    +0.036 A 
ATOM     10  C   UNL     1       2.320  -3.512  -2.761  0.00  0.00    +0.046 A 
BRANCH   5  13
ATOM     11  C   UNL     1       2.708  -2.370  -0.170  0.00  0.00    +0.217 C 
ATOM     12  O   UNL     1       3.356  -3.365  -0.421  0.00  0.00    -0.275 OA
ATOM     13  N   UNL     1       2.041  -1.734  -1.153  0.00  0.00    -0.285 N 
ATOM     14  H   UNL     1       1.470  -0.979  -0.942  0.00  0.00    +0.155 HD
BRANCH  11  16
ATOM     15  C   UNL     1       3.485  -2.746   2.155  0.00  0.00    +0.013 C 
ATOM     16  C   UNL     1       2.649  -1.847   1.242  0.00  0.00    +0.093 C 
ENDBRANCH  11  16
ENDBRANCH   5  13
ENDBRANCH   1   9
BRANCH   2  17
ATOM     17  C   UNL     1       3.598  -7.142  -5.638  0.00  0.00    +0.299 C 
ATOM     18  O   UNL     1       3.083  -7.969  -4.915  0.00  0.00    -0.265 OA
ATOM     19  N   UNL     1       4.381  -7.536  -6.662  0.00  0.00    -0.305 N 
ATOM     20  H   UNL     1       4.793  -6.874  -7.240  0.00  0.00    +0.149 HD
BRANCH  19  21
ATOM     21  C   UNL     1       4.608  -8.963  -6.903  0.00  0.00    +0.140 C 
BRANCH  21  22
ATOM     22  C   UNL     1       5.525  -9.135  -8.116  0.00  0.00    +0.162 C 
BRANCH  22  23
ATOM     23  C   UNL     1       5.759 -10.603  -8.364  0.00  0.00    -0.015 A 
ATOM     24  C   UNL     1       4.855 -11.329  -9.117  0.00  0.00    +0.009 A 
ATOM     25  C   UNL     1       5.068 -12.675  -9.346  0.00  0.00    +0.041 A 
ATOM     26  C   UNL     1       6.187 -13.298  -8.822  0.00  0.00    +0.158 A 
ATOM     27  C   UNL     1       7.094 -12.570  -8.067  0.00  0.00    +0.159 A 
ATOM     28  C   UNL     1       6.881 -11.220  -7.843  0.00  0.00    +0.047 A 
ATOM     29  F   UNL     1       8.187 -13.175  -7.553  0.00  0.00    -0.202 F 
ATOM     30  F   UNL     1       6.396 -14.614  -9.044  0.00  0.00    -0.202 F 
ENDBRANCH  22  23
BRANCH  22  31
ATOM     31  O   UNL     1       4.909  -8.550  -9.265  0.00  0.00    -0.386 OA
ATOM     32  H   UNL     1       4.055  -8.940  -9.495  0.00  0.00    +0.210 HD
ENDBRANCH  22  31
ENDBRANCH  21  22
ENDBRANCH  19  21
ENDBRANCH   2  17
TORSDOF 8
