REMARK  Name = ZINC01294991
REMARK  4 active torsions:
REMARK  status: ('A' for Active; 'I' for Inactive)
REMARK    1  A    between atoms: C_5  and  C_7
REMARK    2  A    between atoms: C_7  and  N_8
REMARK    3  A    between atoms: C_10  and  C_17
REMARK    4  A    between atoms: N_23  and  C_26
REMARK                            x       y       z     vdW  Elec       q    Type
REMARK                         _______ _______ _______ _____ _____    ______ ____
ROOT
ATOM      1  N   UNL     1       0.683  -3.869   1.617  0.00  0.00    -0.342 N 
ATOM      2  C   UNL     1       1.877  -3.797   2.231  0.00  0.00    +0.095 A 
ATOM      3  C   UNL     1       1.877  -4.624   3.343  0.00  0.00    +0.001 A 
ATOM      4  C   UNL     1       0.539  -5.250   3.387  0.00  0.00    +0.007 A 
ATOM      5  C   UNL     1      -0.162  -4.733   2.286  0.00  0.00    +0.050 A 
ATOM      6  C   UNL     1      -1.474  -5.138   2.063  0.00  0.00    +0.026 A 
ATOM      7  C   UNL     1      -2.072  -6.035   2.922  0.00  0.00    +0.002 A 
ATOM      8  C   UNL     1      -1.379  -6.541   4.011  0.00  0.00    +0.001 A 
ATOM      9  C   UNL     1      -0.075  -6.158   4.243  0.00  0.00    +0.010 A 
ENDROOT
BRANCH   3  10
ATOM     10  C   UNL     1       2.937  -4.828   4.246  0.00  0.00    +0.028 C 
ATOM     11  C   UNL     1       4.226  -5.048   3.768  0.00  0.00    +0.102 C 
ATOM     12  C   UNL     1       5.386  -5.056   4.668  0.00  0.00    +0.276 C 
ATOM     13  O   UNL     1       5.233  -4.850   5.994  0.00  0.00    -0.268 OA
ATOM     14  N   UNL     1       6.585  -5.271   4.151  0.00  0.00    -0.123 NA
ATOM     15  C   UNL     1       6.766  -5.478   2.850  0.00  0.00    +0.340 C 
ATOM     16  N   UNL     1       5.766  -5.487   1.955  0.00  0.00    -0.188 N 
ATOM     17  C   UNL     1       4.487  -5.288   2.338  0.00  0.00    +0.264 C 
ATOM     18  O   UNL     1       3.579  -5.301   1.527  0.00  0.00    -0.269 OA
ATOM     19  O   UNL     1       7.900  -5.668   2.448  0.00  0.00    -0.250 OA
BRANCH  16  20
ATOM     20  C   UNL     1       6.054  -5.714   0.603  0.00  0.00    +0.046 A 
ATOM     21  C   UNL     1       6.355  -4.646  -0.233  0.00  0.00    +0.025 A 
ATOM     22  C   UNL     1       6.639  -4.872  -1.565  0.00  0.00    +0.017 A 
ATOM     23  C   UNL     1       6.622  -6.161  -2.068  0.00  0.00    +0.018 A 
ATOM     24  C   UNL     1       6.322  -7.227  -1.238  0.00  0.00    +0.017 A 
ATOM     25  C   UNL     1       6.043  -7.007   0.096  0.00  0.00    +0.025 A 
ATOM     26 BR   UNL     1       7.010  -6.467  -3.894  0.00  0.00    -0.050 Br
ENDBRANCH  16  20
ENDBRANCH   3  10
BRANCH   1  27
ATOM     27  C   UNL     1       0.324  -3.126   0.406  0.00  0.00    +0.159 C 
BRANCH  27  32
ATOM     28  C   UNL     1      -2.404  -0.634   1.178  0.00  0.00    +0.000 A 
ATOM     29  C   UNL     1      -1.669   0.494   1.492  0.00  0.00    +0.003 A 
ATOM     30  C   UNL     1      -0.288   0.452   1.454  0.00  0.00    +0.039 A 
ATOM     31  C   UNL     1       0.359  -0.721   1.103  0.00  0.00    +0.128 A 
ATOM     32  C   UNL     1      -0.379  -1.849   0.789  0.00  0.00    +0.007 A 
ATOM     33  C   UNL     1      -1.760  -1.805   0.827  0.00  0.00    +0.008 A 
ATOM     34  F   UNL     1       1.709  -0.763   1.065  0.00  0.00    -0.205 F 
ENDBRANCH  27  32
ENDBRANCH   1  27
TORSDOF 4
