REMARK  Name = ZINC38949179
REMARK  0 active torsions:
REMARK  status: ('A' for Active; 'I' for Inactive)
REMARK                            x       y       z     vdW  Elec       q    Type
REMARK                         _______ _______ _______ _____ _____    ______ ____
ROOT
ATOM      1  C   UNL     1      -0.013   1.086   0.008  0.00  0.00    +0.418 C 
ATOM      2  C   UNL     1      -0.299   1.669   1.389  0.00  0.00    +0.444 C 
ATOM      3  S   UNL     1       1.481   1.342   1.471  0.00  0.00    +0.157 S 
ATOM      4  O   UNL     1       2.224   2.388   2.081  0.00  0.00    -0.141 OA
ATOM      5  O   UNL     1       1.800  -0.035   1.616  0.00  0.00    -0.141 OA
ATOM      6  O   UNL     1       1.291   1.659  -0.001  0.00  0.00    -0.188 OA
ATOM      7  F   UNL     1      -0.655   3.022   1.400  0.00  0.00    -0.172 F 
ATOM      8  F   UNL     1      -1.089   0.868   2.220  0.00  0.00    -0.172 F 
ATOM      9  F   UNL     1      -0.846   1.611  -0.985  0.00  0.00    -0.204 F 
ENDROOT
TORSDOF 0
