REMARK  Name = ZINC38966009
REMARK  5 active torsions:
REMARK  status: ('A' for Active; 'I' for Inactive)
REMARK    1  A    between atoms: C_1  and  C_2
REMARK    2  A    between atoms: C_6  and  S_9
REMARK    3  A    between atoms: S_9  and  C_10
REMARK    4  A    between atoms: C_10  and  C_11
REMARK    5  A    between atoms: N_17  and  C_18
REMARK                            x       y       z     vdW  Elec       q    Type
REMARK                         _______ _______ _______ _____ _____    ______ ____
ROOT
ATOM      1  C   UNL     1      -1.724  -0.956   5.609  0.00  0.00    +0.060 A 
ATOM      2  N   UNL     1      -3.026  -1.048   5.873  0.00  0.00    -0.218 NA
ATOM      3  C   UNL     1      -3.525  -0.632   7.018  0.00  0.00    +0.211 A 
ATOM      4  N   UNL     1      -4.874  -0.747   7.248  0.00  0.00    -0.298 N 
ATOM      5  C   UNL     1      -5.717  -1.141   6.228  0.00  0.00    +0.180 C 
ATOM      6  N   UNL     1      -7.006  -1.134   6.409  0.00  0.00    -0.371 N 
ATOM      7  N   UNL     1      -5.194  -1.541   5.019  0.00  0.00    -0.328 N 
ATOM      8  N   UNL     1      -2.728  -0.090   7.978  0.00  0.00    -0.293 N 
ATOM      9  C   UNL     1      -1.400   0.026   7.760  0.00  0.00    +0.253 A 
ATOM     10  O   UNL     1      -0.670   0.509   8.610  0.00  0.00    -0.268 OA
ATOM     11  C   UNL     1      -0.874  -0.426   6.536  0.00  0.00    +0.094 A 
ATOM     12  H   UNL     1      -7.594  -1.493   5.726  0.00  0.00    +0.159 HD
ATOM     13  H   UNL     1      -4.241  -1.465   4.854  0.00  0.00    +0.169 HD
ATOM     14  H   UNL     1      -3.112   0.211   8.816  0.00  0.00    +0.172 HD
ATOM     15  H   UNL     1      -7.379  -0.771   7.228  0.00  0.00    +0.159 HD
ATOM     16  H   UNL     1      -5.235  -0.551   8.127  0.00  0.00    +0.172 HD
ENDROOT
BRANCH   7  17
ATOM     17  C   UNL     1      -6.036  -2.058   4.030  0.00  0.00    +0.042 A 
ATOM     18  C   UNL     1      -7.220  -1.404   3.712  0.00  0.00    +0.026 A 
ATOM     19  C   UNL     1      -8.049  -1.917   2.735  0.00  0.00    +0.002 A 
ATOM     20  C   UNL     1      -7.703  -3.080   2.072  0.00  0.00    +0.000 A 
ATOM     21  C   UNL     1      -6.525  -3.734   2.386  0.00  0.00    +0.002 A 
ATOM     22  C   UNL     1      -5.688  -3.223   3.358  0.00  0.00    +0.026 A 
ENDBRANCH   7  17
BRANCH   1  23
ATOM     23  C   UNL     1      -1.187  -1.443   4.288  0.00  0.00    +0.127 C 
BRANCH  23  24
ATOM     24  S   UNL     1      -1.150  -3.256   4.282  0.00  0.00    -0.116 S 
BRANCH  24  29
ATOM     25  C   UNL     1       0.966  -0.827   0.298  0.00  0.00    +0.046 C 
ATOM     26  C   UNL     1       0.627  -2.292   0.578  0.00  0.00    +0.184 C 
ATOM     27  N   UNL     1      -0.837  -2.505   0.642  0.00  0.00    -0.177 NA
ATOM     28  N   UNL     1      -1.334  -3.121   1.563  0.00  0.00    -0.166 NA
ATOM     29  C   UNL     1      -0.489  -3.676   2.646  0.00  0.00    +0.245 C 
ATOM     30  S   UNL     1       1.089  -2.773   2.302  0.00  0.00    -0.094 S 
ENDBRANCH  24  29
ENDBRANCH  23  24
ENDBRANCH   1  23
TORSDOF 4
