REMARK  Name = ZINC62165031
REMARK  4 active torsions:
REMARK  status: ('A' for Active; 'I' for Inactive)
REMARK    1  A    between atoms: C_1  and  C_2
REMARK    2  A    between atoms: C_2  and  C_4
REMARK    3  A    between atoms: C_2  and  N_10
REMARK    4  A    between atoms: C_11  and  C_13
REMARK                            x       y       z     vdW  Elec       q    Type
REMARK                         _______ _______ _______ _____ _____    ______ ____
ROOT
ATOM      1  C   UNL     1       0.655  -1.280  -3.356  0.00  0.00    +0.092 C 
ATOM      2  C   UNL     1      -0.267  -1.130  -4.568  0.00  0.00    +0.016 C 
ATOM      3  C   UNL     1       0.531  -1.377  -5.851  0.00  0.00    +0.020 C 
ATOM      4  C   UNL     1       1.083  -2.807  -5.837  0.00  0.00    +0.106 C 
ATOM      5  N   UNL     1       1.852  -3.005  -4.601  0.00  0.00    -0.313 N 
ATOM      6  C   UNL     1       1.209  -2.708  -3.313  0.00  0.00    +0.119 C 
ATOM      7  C   UNL     1       3.164  -3.464  -4.649  0.00  0.00    +0.144 A 
ATOM      8  C   UNL     1       3.694  -3.948  -5.846  0.00  0.00    +0.049 A 
ATOM      9  C   UNL     1       5.004  -4.394  -5.843  0.00  0.00    +0.052 A 
ATOM     10  C   UNL     1       5.713  -4.333  -4.644  0.00  0.00    +0.161 A 
ATOM     11  N   UNL     1       5.130  -3.858  -3.557  0.00  0.00    -0.129 NA
ATOM     12  N   UNL     1       3.917  -3.439  -3.559  0.00  0.00    -0.132 NA
ATOM     13  N   UNL     1       7.042  -4.773  -4.592  0.00  0.00    -0.289 N 
ATOM     14  C   UNL     1       7.826  -4.867  -3.471  0.00  0.00    +0.114 A 
ATOM     15  C   UNL     1       9.024  -5.333  -3.871  0.00  0.00    +0.130 A 
ATOM     16  N   UNL     1       8.979  -5.520  -5.199  0.00  0.00    -0.244 NA
ATOM     17  C   UNL     1       7.795  -5.193  -5.641  0.00  0.00    +0.205 A 
ENDROOT
BRANCH   1  19
ATOM     18  N   UNL     1       0.487  -1.080  -0.896  0.00  0.00    -0.308 N 
ATOM     19  C   UNL     1      -0.123  -1.005  -2.095  0.00  0.00    +0.218 C 
ATOM     20  O   UNL     1      -1.299  -0.716  -2.160  0.00  0.00    -0.275 OA
ATOM     21  H   UNL     1       1.428  -1.312  -0.845  0.00  0.00    +0.149 HD
BRANCH  18  23
ATOM     22  C   UNL     1      -0.289   0.693   0.598  0.00  0.00    +0.033 C 
ATOM     23  C   UNL     1      -0.269  -0.813   0.329  0.00  0.00    +0.100 C 
BRANCH  23  24
ATOM     24  C   UNL     1       0.384  -1.521   1.488  0.00  0.00    -0.027 A 
ATOM     25  C   UNL     1       1.762  -1.551   1.591  0.00  0.00    +0.005 A 
ATOM     26  C   UNL     1       2.361  -2.201   2.654  0.00  0.00    +0.000 A 
ATOM     27  C   UNL     1       1.583  -2.821   3.614  0.00  0.00    +0.000 A 
ATOM     28  C   UNL     1       0.204  -2.790   3.511  0.00  0.00    +0.000 A 
ATOM     29  C   UNL     1      -0.395  -2.136   2.450  0.00  0.00    +0.005 A 
ENDBRANCH  23  24
ENDBRANCH  18  23
ENDBRANCH   1  19
TORSDOF 3
