REMARK  Name = ZINC07094381
REMARK  8 active torsions:
REMARK  status: ('A' for Active; 'I' for Inactive)
REMARK    1  A    between atoms: C_1  and  C_2
REMARK    2  A    between atoms: C_4  and  N_23
REMARK    3  A    between atoms: C_6  and  S_8
REMARK    4  A    between atoms: S_8  and  C_9
REMARK    5  A    between atoms: C_9  and  C_10
REMARK    6  A    between atoms: N_12  and  C_13
REMARK    7  A    between atoms: N_12  and  C_14
REMARK    8  A    between atoms: C_14  and  C_15
REMARK                            x       y       z     vdW  Elec       q    Type
REMARK                         _______ _______ _______ _____ _____    ______ ____
ROOT
ATOM      1  C   UNL     1       0.092  -5.461   3.466  0.00  0.00    +0.226 C 
ATOM      2  O   UNL     1       0.090  -4.937   4.560  0.00  0.00    -0.275 OA
ATOM      3  N   UNL     1       0.110  -6.805   3.363  0.00  0.00    -0.300 N 
ATOM      4  C   UNL     1       0.112  -7.438   2.042  0.00  0.00    +0.132 C 
ENDROOT
BRANCH   1   5
ATOM      5  C   UNL     1       0.075  -4.610   2.222  0.00  0.00    +0.173 C 
BRANCH   5   6
ATOM      6  S   UNL     1       0.053  -2.857   2.690  0.00  0.00    -0.077 S 
BRANCH   6  12
ATOM      7  C   UNL     1      -0.018   1.503   0.010  0.00  0.00    +0.066 C 
ATOM      8  C   UNL     1       0.002  -0.004   0.002  0.00  0.00    +0.044 A 
ATOM      9  C   UNL     1       0.006  -0.696  -1.194  0.00  0.00    +0.066 A 
ATOM     10  C   UNL     1       0.025  -2.091  -1.157  0.00  0.00    +0.121 A 
ATOM     11  N   UNL     1       0.039  -2.705   0.022  0.00  0.00    -0.207 NA
ATOM     12  C   UNL     1       0.035  -2.005   1.147  0.00  0.00    +0.191 A 
ATOM     13  N   UNL     1       0.022  -0.679   1.141  0.00  0.00    -0.227 NA
BRANCH  10  14
ATOM     14  N   UNL     1       0.029  -2.826  -2.331  0.00  0.00    -0.343 N 
ATOM     15  H   UNL     1       0.018  -2.371  -3.188  0.00  0.00    +0.144 HD
ATOM     16  H   UNL     1       0.042  -3.795  -2.297  0.00  0.00    +0.144 HD
ENDBRANCH  10  14
ENDBRANCH   6  12
ENDBRANCH   5   6
ENDBRANCH   1   5
BRANCH   3  17
ATOM     17  C   UNL     1       0.127  -7.632   4.572  0.00  0.00    +0.142 C 
BRANCH  17  18
ATOM     18  C   UNL     1      -1.288  -7.935   4.993  0.00  0.00    -0.029 A 
ATOM     19  C   UNL     1      -1.949  -7.083   5.858  0.00  0.00    +0.007 A 
ATOM     20  C   UNL     1      -3.247  -7.360   6.245  0.00  0.00    +0.022 A 
ATOM     21  C   UNL     1      -3.885  -8.490   5.767  0.00  0.00    +0.059 A 
ATOM     22  C   UNL     1      -3.223  -9.343   4.900  0.00  0.00    +0.060 A 
ATOM     23  C   UNL     1      -1.926  -9.062   4.509  0.00  0.00    +0.026 A 
ATOM     24 CL   UNL     1      -4.023 -10.762   4.299  0.00  0.00    -0.082 Cl
ATOM     25 CL   UNL     1      -5.514  -8.839   6.253  0.00  0.00    -0.082 Cl
ENDBRANCH  17  18
ENDBRANCH   3  17
TORSDOF 6
