REMARK  Name = ZINC55859935
REMARK  9 active torsions:
REMARK  status: ('A' for Active; 'I' for Inactive)
REMARK    1  A    between atoms: C_1  and  C_2
REMARK    2  A    between atoms: C_2  and  C_3
REMARK    3  A    between atoms: C_2  and  N_4
REMARK    4  A    between atoms: C_8  and  C_10
REMARK    5  A    between atoms: C_10  and  N_11
REMARK    6  A    between atoms: N_11  and  C_12
REMARK    7  A    between atoms: C_21  and  C_22
REMARK    8  A    between atoms: C_22  and  O_24
REMARK    9  A    between atoms: O_24  and  C_25
REMARK                            x       y       z     vdW  Elec       q    Type
REMARK                         _______ _______ _______ _____ _____    ______ ____
ROOT
ATOM      1  N   UNL     1      -4.631  -5.267  -1.588  0.00  0.00    -0.335 N 
ATOM      2  H   UNL     1      -3.809  -5.677  -1.899  0.00  0.00    +0.147 HD
ENDROOT
BRANCH   1   3
ATOM      3  C   UNL     1      -5.831  -5.965  -1.670  0.00  0.00    +0.042 A 
ATOM      4  C   UNL     1      -6.974  -5.425  -1.125  0.00  0.00    +0.032 A 
ATOM      5  C   UNL     1      -8.187  -6.128  -1.207  0.00  0.00    -0.016 A 
ATOM      6  C   UNL     1      -9.367  -5.597  -0.658  0.00  0.00    +0.008 A 
ATOM      7  C   UNL     1     -10.530  -6.298  -0.751  0.00  0.00    +0.001 A 
ATOM      8  C   UNL     1     -10.570  -7.540  -1.384  0.00  0.00    +0.001 A 
ATOM      9  C   UNL     1      -9.449  -8.087  -1.926  0.00  0.00    +0.008 A 
ATOM     10  C   UNL     1      -8.228  -7.392  -1.851  0.00  0.00    -0.017 A 
ATOM     11  C   UNL     1      -7.057  -7.930  -2.402  0.00  0.00    +0.025 A 
ATOM     12  C   UNL     1      -5.869  -7.221  -2.317  0.00  0.00    +0.080 A 
BRANCH  12  13
ATOM     13  C   UNL     1      -4.637  -7.782  -2.901  0.00  0.00    +0.341 C 
ATOM     14  O   UNL     1      -3.575  -7.216  -2.736  0.00  0.00    -0.245 OA
BRANCH  13  15
ATOM     15  O   UNL     1      -4.690  -8.921  -3.618  0.00  0.00    -0.464 OA
ATOM     16  C   UNL     1      -3.458  -9.408  -4.154  0.00  0.00    +0.280 C 
ENDBRANCH  13  15
ENDBRANCH  12  13
ENDBRANCH   1   3
BRANCH   1  17
ATOM     17  C   UNL     1      -4.608  -3.912  -1.031  0.00  0.00    +0.198 C 
BRANCH  17  22
ATOM     18  N   UNL     1      -1.409  -0.435  -0.144  0.00  0.00    -0.297 N 
ATOM     19  C   UNL     1      -1.672  -1.672  -0.610  0.00  0.00    +0.306 C 
ATOM     20  O   UNL     1      -0.772  -2.361  -1.050  0.00  0.00    -0.252 OA
ATOM     21  N   UNL     1      -2.934  -2.146  -0.589  0.00  0.00    -0.239 N 
ATOM     22  C   UNL     1      -3.197  -3.382  -1.055  0.00  0.00    +0.237 C 
ATOM     23  O   UNL     1      -2.300  -4.069  -1.494  0.00  0.00    -0.274 OA
ATOM     24  H   UNL     1      -2.127   0.114   0.206  0.00  0.00    +0.151 HD
ATOM     25  H   UNL     1      -3.652  -1.596  -0.238  0.00  0.00    +0.159 HD
BRANCH  18  27
ATOM     26  C   UNL     1      -0.067   1.609  -0.198  0.00  0.00    +0.027 C 
ATOM     27  C   UNL     1      -0.037   0.079  -0.167  0.00  0.00    +0.068 C 
ATOM     28  C   UNL     1       0.706  -0.392   1.085  0.00  0.00    +0.027 C 
ENDBRANCH  18  27
ENDBRANCH  17  22
ENDBRANCH   1  17
TORSDOF 6
