REMARK  Name = ZINC54343600
REMARK  9 active torsions:
REMARK  status: ('A' for Active; 'I' for Inactive)
REMARK    1  A    between atoms: C_1  and  C_2
REMARK    2  A    between atoms: C_3  and  N_12
REMARK    3  A    between atoms: C_7  and  S_8
REMARK    4  A    between atoms: S_8  and  N_11
REMARK    5  A    between atoms: C_13  and  C_15
REMARK    6  A    between atoms: C_15  and  C_17
REMARK    7  A    between atoms: C_15  and  S_18
REMARK    8  A    between atoms: S_18  and  C_19
REMARK    9  A    between atoms: C_22  and  N_25
REMARK                            x       y       z     vdW  Elec       q    Type
REMARK                         _______ _______ _______ _____ _____    ______ ____
ROOT
ATOM      1  N   UNL     1       0.153  -0.176  -2.396  0.00  0.00    -0.284 N 
ATOM      2  C   UNL     1       0.231  -0.766  -3.606  0.00  0.00    +0.230 C 
ATOM      3  O   UNL     1       0.322  -1.973  -3.687  0.00  0.00    -0.274 OA
ATOM      4  H   UNL     1       0.003   0.780  -2.332  0.00  0.00    +0.155 HD
ENDROOT
BRANCH   1   7
ATOM      5  C   UNL     1      -0.856   0.889   0.042  0.00  0.00    +0.048 C 
ATOM      6  C   UNL     1      -0.189  -0.461  -0.022  0.00  0.00    -0.003 A 
ATOM      7  C   UNL     1       0.290  -0.943  -1.234  0.00  0.00    +0.038 A 
ATOM      8  C   UNL     1       0.904  -2.187  -1.289  0.00  0.00    +0.024 A 
ATOM      9  C   UNL     1       1.037  -2.941  -0.139  0.00  0.00    +0.004 A 
ATOM     10  C   UNL     1       0.558  -2.459   1.065  0.00  0.00    +0.029 A 
ATOM     11  C   UNL     1      -0.049  -1.218   1.124  0.00  0.00    +0.110 A 
BRANCH  11  12
ATOM     12  S   UNL     1      -0.650  -0.605   2.663  0.00  0.00    +0.056 S 
ATOM     13  O   UNL     1      -1.979  -0.158   2.430  0.00  0.00    -0.153 OA
ATOM     14  O   UNL     1      -0.337  -1.586   3.641  0.00  0.00    -0.153 OA
BRANCH  12  15
ATOM     15  N   UNL     1       0.243   0.739   3.037  0.00  0.00    -0.204 NA
ATOM     16  H   UNL     1       0.944   1.037   2.438  0.00  0.00    +0.144 HD
ATOM     17  H   UNL     1       0.064   1.227   3.856  0.00  0.00    +0.144 HD
ENDBRANCH  12  15
ENDBRANCH  11  12
ENDBRANCH   1   7
BRANCH   2  18
ATOM     18  C   UNL     1       0.205   0.073  -4.857  0.00  0.00    +0.134 C 
ATOM     19  C   UNL     1       1.619   0.567  -5.170  0.00  0.00    +0.029 C 
BRANCH  18  20
ATOM     20  S   UNL     1      -0.408  -0.925  -6.242  0.00  0.00    -0.113 S 
BRANCH  20  21
ATOM     21  C   UNL     1      -2.077  -1.282  -5.805  0.00  0.00    +0.009 A 
ATOM     22  C   UNL     1      -2.646  -0.690  -4.684  0.00  0.00    +0.017 A 
ATOM     23  C   UNL     1      -3.954  -0.972  -4.345  0.00  0.00    +0.034 A 
ATOM     24  C   UNL     1      -4.698  -1.844  -5.119  0.00  0.00    +0.126 A 
ATOM     25  C   UNL     1      -4.135  -2.436  -6.234  0.00  0.00    +0.034 A 
ATOM     26  C   UNL     1      -2.829  -2.154  -6.584  0.00  0.00    +0.017 A 
BRANCH  24  27
ATOM     27  N   UNL     1      -6.100  -2.144  -4.752  0.00  0.00    +0.056 N 
ATOM     28  O   UNL     1      -6.593  -1.628  -3.776  0.00  0.00    -0.126 OA
ATOM     29  O   UNL     1      -6.752  -2.906  -5.427  0.00  0.00    -0.126 OA
ENDBRANCH  24  27
ENDBRANCH  20  21
ENDBRANCH  18  20
ENDBRANCH   2  18
TORSDOF 7
