REMARK  Name = ZINC44029199
REMARK  11 active torsions:
REMARK  status: ('A' for Active; 'I' for Inactive)
REMARK    1  A    between atoms: C_1  and  C_2
REMARK    2  A    between atoms: C_2  and  C_3
REMARK    3  A    between atoms: C_2  and  C_4
REMARK    4  A    between atoms: C_2  and  O_5
REMARK    5  A    between atoms: O_5  and  C_6
REMARK    6  A    between atoms: N_8  and  C_9
REMARK    7  A    between atoms: C_9  and  C_11
REMARK    8  A    between atoms: C_9  and  C_20
REMARK    9  A    between atoms: C_11  and  C_12
REMARK   10  A    between atoms: C_15  and  C_18
REMARK   11  A    between atoms: C_18  and  O_19
REMARK                            x       y       z     vdW  Elec       q    Type
REMARK                         _______ _______ _______ _____ _____    ______ ____
ROOT
ATOM      1  C   UNL     1       4.035  -0.071  -2.601  0.00  0.00    +0.130 C 
ENDROOT
BRANCH   1   2
ATOM      2  C   UNL     1       4.077   1.287  -3.253  0.00  0.00    +0.071 A 
ATOM      3  C   UNL     1       2.946   1.992  -3.491  0.00  0.00    +0.073 A 
ATOM      4  S   UNL     1       3.621   3.461  -4.250  0.00  0.00    -0.061 S 
ATOM      5  C   UNL     1       5.247   3.029  -4.184  0.00  0.00    +0.156 A 
ATOM      6  N   UNL     1       5.220   1.845  -3.612  0.00  0.00    -0.228 NA
ATOM      7  N   UNL     1       6.347   3.749  -4.623  0.00  0.00    -0.338 N 
ATOM      8  H   UNL     1       6.226   4.622  -5.028  0.00  0.00    +0.144 HD
ATOM      9  H   UNL     1       7.239   3.381  -4.524  0.00  0.00    +0.144 HD
ENDBRANCH   1   2
BRANCH   1  12
ATOM     10  C   UNL     1       1.952  -0.085  -1.337  0.00  0.00    +0.401 C 
ATOM     11  O   UNL     1       2.488   0.619  -0.503  0.00  0.00    -0.226 OA
ATOM     12  N   UNL     1       2.641  -0.485  -2.424  0.00  0.00    -0.272 N 
ATOM     13  H   UNL     1       2.213  -1.047  -3.089  0.00  0.00    +0.153 HD
BRANCH  10  14
ATOM     14  O   UNL     1       0.671  -0.465  -1.174  0.00  0.00    -0.445 OA
BRANCH  14  16
ATOM     15  C   UNL     1      -0.019   1.526   0.010  0.00  0.00    +0.055 C 
ATOM     16  C   UNL     1       0.002  -0.004   0.002  0.00  0.00    +0.107 C 
ATOM     17  C   UNL     1       0.742  -0.511   1.242  0.00  0.00    +0.055 C 
ATOM     18  C   UNL     1      -1.433  -0.534   0.013  0.00  0.00    +0.055 C 
ENDBRANCH  14  16
ENDBRANCH  10  14
ENDBRANCH   1  12
BRANCH   1  19
ATOM     19  C   UNL     1       4.759  -1.086  -3.489  0.00  0.00    +0.064 C 
BRANCH  19  20
ATOM     20  C   UNL     1       4.824  -2.415  -2.783  0.00  0.00    -0.045 A 
ATOM     21  C   UNL     1       5.896  -2.709  -1.961  0.00  0.00    +0.004 A 
ATOM     22  C   UNL     1       5.956  -3.929  -1.313  0.00  0.00    +0.006 A 
ATOM     23  C   UNL     1       4.944  -4.854  -1.487  0.00  0.00    -0.022 A 
ATOM     24  C   UNL     1       3.871  -4.560  -2.308  0.00  0.00    +0.006 A 
ATOM     25  C   UNL     1       3.809  -3.338  -2.952  0.00  0.00    +0.004 A 
BRANCH  23  26
ATOM     26  C   UNL     1       5.010  -6.184  -0.781  0.00  0.00    +0.191 C 
BRANCH  26  27
ATOM     27  O   UNL     1       4.370  -6.080   0.493  0.00  0.00    -0.390 OA
ATOM     28  H   UNL     1       4.375  -6.901   1.004  0.00  0.00    +0.210 HD
ENDBRANCH  26  27
ENDBRANCH  23  26
ENDBRANCH  19  20
ENDBRANCH   1  19
TORSDOF 8
