REMARK  Name = ZINC32094914
REMARK  4 active torsions:
REMARK  status: ('A' for Active; 'I' for Inactive)
REMARK    1  A    between atoms: C_4  and  C_7
REMARK    2  A    between atoms: C_8  and  S_9
REMARK    3  A    between atoms: S_9  and  N_12
REMARK    4  A    between atoms: N_12  and  C_13
REMARK                            x       y       z     vdW  Elec       q    Type
REMARK                         _______ _______ _______ _____ _____    ______ ____
ROOT
ATOM      1  N   UNL     1       0.815  -4.106  -0.026  0.00  0.00    -0.097 NA
ENDROOT
BRANCH   1   2
ATOM      2  C   UNL     1       0.543  -2.733  -0.016  0.00  0.00    +0.093 A 
ATOM      3  C   UNL     1       1.586  -1.814  -0.022  0.00  0.00    +0.034 A 
ATOM      4  C   UNL     1       1.312  -0.466  -0.013  0.00  0.00    -0.015 A 
ATOM      5  C   UNL     1       0.002  -0.004   0.002  0.00  0.00    +0.039 A 
ATOM      6  C   UNL     1      -1.041  -0.928   0.007  0.00  0.00    +0.045 A 
ATOM      7  C   UNL     1      -0.771  -2.281  -0.002  0.00  0.00    +0.067 A 
ATOM      8 CL   UNL     1      -2.078  -3.424   0.006  0.00  0.00    -0.081 Cl
ATOM      9  N   UNL     1      -0.017   1.394   0.010  0.00  0.00    -0.285 N 
ATOM     10  C   UNL     1       1.220   1.918   0.001  0.00  0.00    +0.222 C 
ATOM     11  O   UNL     1       1.502   3.098   0.004  0.00  0.00    -0.275 OA
ATOM     12  C   UNL     1       2.196   0.761  -0.015  0.00  0.00    +0.133 C 
ATOM     13  H   UNL     1      -0.977   1.931   0.022  0.00  0.00    +0.155 HD
ENDBRANCH   1   2
BRANCH   1  14
ATOM     14  S   UNL     1       2.136  -4.694   0.780  0.00  0.00    +0.085 S 
ATOM     15  O   UNL     1       2.123  -6.104   0.607  0.00  0.00    -0.149 OA
ATOM     16  O   UNL     1       3.241  -3.889   0.392  0.00  0.00    -0.149 OA
BRANCH  14  18
ATOM     17  C   UNL     1       1.736  -5.415   3.333  0.00  0.00    +0.028 C 
ATOM     18  C   UNL     1       1.874  -4.396   2.497  0.00  0.00    +0.159 C 
BRANCH  17  22
ATOM     19  C   UNL     1       1.105  -4.695   7.471  0.00  0.00    +0.000 A 
ATOM     20  C   UNL     1       1.166  -5.994   7.000  0.00  0.00    +0.001 A 
ATOM     21  C   UNL     1       1.371  -6.235   5.657  0.00  0.00    +0.008 A 
ATOM     22  C   UNL     1       1.517  -5.164   4.774  0.00  0.00    -0.024 A 
ATOM     23  C   UNL     1       1.460  -3.857   5.257  0.00  0.00    +0.008 A 
ATOM     24  C   UNL     1       1.248  -3.630   6.601  0.00  0.00    +0.001 A 
ENDBRANCH  17  22
ENDBRANCH  14  18
ENDBRANCH   1  14
TORSDOF 4
