REMARK  Name = ZINC20757010
REMARK  7 active torsions:
REMARK  status: ('A' for Active; 'I' for Inactive)
REMARK    1  A    between atoms: C_1  and  C_2
REMARK    2  A    between atoms: C_5  and  C_20
REMARK    3  A    between atoms: C_6  and  S_8
REMARK    4  A    between atoms: S_8  and  N_11
REMARK    5  A    between atoms: N_11  and  N_12
REMARK    6  A    between atoms: C_13  and  C_14
REMARK    7  A    between atoms: C_13  and  C_15
REMARK                            x       y       z     vdW  Elec       q    Type
REMARK                         _______ _______ _______ _____ _____    ______ ____
ROOT
ATOM      1  S   UNL     1       2.802   3.674   0.332  0.00  0.00    +0.087 S 
ATOM      2  O   UNL     1       3.709   3.154  -0.630  0.00  0.00    -0.149 OA
ATOM      3  O   UNL     1       2.476   5.055   0.403  0.00  0.00    -0.149 OA
ENDROOT
BRANCH   1   9
ATOM      4  C   UNL     1      -0.171   0.188  -2.185  0.00  0.00    +0.044 C 
ATOM      5  C   UNL     1      -0.034   1.200  -1.077  0.00  0.00    -0.049 A 
ATOM      6  C   UNL     1      -1.098   1.446  -0.229  0.00  0.00    +0.004 A 
ATOM      7  C   UNL     1      -0.974   2.378   0.784  0.00  0.00    +0.005 A 
ATOM      8  C   UNL     1       0.217   3.057   0.956  0.00  0.00    -0.024 A 
ATOM      9  C   UNL     1       1.283   2.808   0.113  0.00  0.00    +0.113 A 
ATOM     10  C   UNL     1       1.157   1.880  -0.904  0.00  0.00    +0.032 A 
ATOM     11  C   UNL     1       0.354   4.069   2.065  0.00  0.00    +0.046 C 
ENDBRANCH   1   9
BRANCH   1  12
ATOM     12  N   UNL     1       3.396   3.251   1.819  0.00  0.00    -0.136 N 
ATOM     13  H   UNL     1       3.561   3.934   2.487  0.00  0.00    +0.197 HD
BRANCH  12  14
ATOM     14  N   UNL     1       3.659   1.906   2.112  0.00  0.00    -0.168 NA
ATOM     15  C   UNL     1       4.125   1.575   3.279  0.00  0.00    +0.099 C 
ATOM     16  C   UNL     1       4.383   2.636   4.317  0.00  0.00    +0.071 C 
BRANCH  15  17
ATOM     17  C   UNL     1       4.401   0.167   3.586  0.00  0.00    +0.150 A 
ATOM     18  C   UNL     1       4.209  -0.889   2.744  0.00  0.00    +0.051 A 
ATOM     19  C   UNL     1       4.607  -2.044   3.445  0.00  0.00    +0.042 A 
ATOM     20  C   UNL     1       5.008  -1.646   4.668  0.00  0.00    +0.196 A 
ATOM     21  O   UNL     1       4.883  -0.311   4.751  0.00  0.00    -0.462 OA
ENDBRANCH  15  17
ENDBRANCH  12  14
ENDBRANCH   1  12
TORSDOF 4
