REMARK  Name = ZINC02796088
REMARK  4 active torsions:
REMARK  status: ('A' for Active; 'I' for Inactive)
REMARK    1  A    between atoms: C_4  and  C_7
REMARK    2  A    between atoms: C_10  and  C_12
REMARK    3  A    between atoms: N_14  and  N_15
REMARK    4  A    between atoms: C_16  and  C_18
REMARK                            x       y       z     vdW  Elec       q    Type
REMARK                         _______ _______ _______ _____ _____    ______ ____
ROOT
ATOM      1  C   UNL     1       1.179   5.601  -1.635  0.00  0.00    +0.233 C 
ATOM      2  O   UNL     1       0.187   6.027  -1.081  0.00  0.00    -0.274 OA
ATOM      3  N   UNL     1       1.717   6.278  -2.669  0.00  0.00    -0.234 N 
ATOM      4  H   UNL     1       2.509   5.937  -3.112  0.00  0.00    +0.173 HD
ENDROOT
BRANCH   3   5
ATOM      5  N   UNL     1       1.131   7.474  -3.103  0.00  0.00    -0.228 N 
ATOM      6  C   UNL     1       1.669   8.152  -4.137  0.00  0.00    +0.295 C 
ATOM      7  O   UNL     1       2.664   7.724  -4.693  0.00  0.00    -0.265 OA
ATOM      8  H   UNL     1       0.338   7.815  -2.660  0.00  0.00    +0.173 HD
BRANCH   6   9
ATOM      9  C   UNL     1       1.056   9.404  -4.592  0.00  0.00    +0.190 A 
ATOM     10  C   UNL     1       1.500  10.188  -5.618  0.00  0.00    +0.054 A 
ATOM     11  C   UNL     1       0.617  11.276  -5.705  0.00  0.00    +0.042 A 
ATOM     12  C   UNL     1      -0.309  11.115  -4.734  0.00  0.00    +0.196 A 
ATOM     13  O   UNL     1      -0.042   9.986  -4.066  0.00  0.00    -0.458 OA
ENDBRANCH   6   9
ENDBRANCH   3   5
BRANCH   1  16
ATOM     14  C   UNL     1       1.151   3.592   0.010  0.00  0.00    +0.032 C 
ATOM     15  C   UNL     1       2.485   4.316   0.205  0.00  0.00    +0.022 C 
ATOM     16  C   UNL     1       1.808   4.314  -1.168  0.00  0.00    +0.084 C 
BRANCH  14  20
ATOM     17  C   UNL     1       1.208  -0.679  -0.013  0.00  0.00    +0.000 A 
ATOM     18  C   UNL     1       0.002  -0.004   0.002  0.00  0.00    +0.000 A 
ATOM     19  C   UNL     1      -0.017   1.378   0.010  0.00  0.00    +0.004 A 
ATOM     20  C   UNL     1       1.171   2.086   0.002  0.00  0.00    -0.044 A 
ATOM     21  C   UNL     1       2.377   1.411  -0.015  0.00  0.00    +0.004 A 
ATOM     22  C   UNL     1       2.396   0.029  -0.022  0.00  0.00    +0.000 A 
ENDBRANCH  14  20
ENDBRANCH   1  16
TORSDOF 4
