REMARK  Name = ZINC63492855
REMARK  6 active torsions:
REMARK  status: ('A' for Active; 'I' for Inactive)
REMARK    1  A    between atoms: C_1  and  O_2
REMARK    2  A    between atoms: O_2  and  C_3
REMARK    3  A    between atoms: C_6  and  N_9
REMARK    4  A    between atoms: C_12  and  C_19
REMARK    5  A    between atoms: C_15  and  S_16
REMARK    6  A    between atoms: S_16  and  C_17
REMARK                            x       y       z     vdW  Elec       q    Type
REMARK                         _______ _______ _______ _____ _____    ______ ____
ROOT
ATOM      1  N   UNL     1      -4.893  -2.591   0.171  0.00  0.00    -0.256 N 
ATOM      2  C   UNL     1      -4.947  -3.937   0.078  0.00  0.00    +0.268 A 
ATOM      3  O   UNL     1      -3.924  -4.603   0.109  0.00  0.00    -0.267 OA
ATOM      4  C   UNL     1      -6.196  -4.555  -0.053  0.00  0.00    +0.103 A 
ATOM      5  C   UNL     1      -7.332  -3.763  -0.082  0.00  0.00    +0.282 A 
ATOM      6  N   UNL     1      -7.219  -2.435   0.014  0.00  0.00    -0.184 NA
ATOM      7  C   UNL     1      -6.042  -1.858   0.142  0.00  0.00    +0.180 A 
ATOM      8  O   UNL     1      -8.553  -4.333  -0.209  0.00  0.00    -0.265 OA
ENDROOT
BRANCH   4   9
ATOM      9  C   UNL     1      -6.302  -6.054  -0.160  0.00  0.00    +0.121 C 
ATOM     10  C   UNL     1      -7.233  -6.585   0.933  0.00  0.00    +0.128 C 
ATOM     11  C   UNL     1      -8.622  -6.048   0.608  0.00  0.00    -0.035 C 
ATOM     12  C   UNL     1      -9.048  -5.425   1.698  0.00  0.00    +0.001 A 
ATOM     13  C   UNL     1     -10.333  -4.786   2.025  0.00  0.00    +0.030 A 
ATOM     14  C   UNL     1     -10.425  -4.218   3.257  0.00  0.00    +0.042 A 
ATOM     15  C   UNL     1      -9.378  -4.223   4.186  0.00  0.00    +0.022 A 
ATOM     16  C   UNL     1      -8.166  -4.792   3.972  0.00  0.00    +0.027 A 
ATOM     17  C   UNL     1      -7.951  -5.426   2.714  0.00  0.00    +0.043 A 
ATOM     18  N   UNL     1      -6.893  -6.070   2.259  0.00  0.00    -0.376 N 
ATOM     19 CL   UNL     1     -11.916  -3.448   3.700  0.00  0.00    -0.084 Cl
ATOM     20  C   UNL     1      -9.222  -6.187  -0.769  0.00  0.00    +0.048 C 
ATOM     21  C   UNL     1      -8.134  -5.736  -1.760  0.00  0.00    +0.086 C 
ATOM     22  N   UNL     1      -6.870  -6.418  -1.468  0.00  0.00    -0.307 NA
ATOM     23  H   UNL     1      -6.199  -6.271  -2.207  0.00  0.00    +0.123 HD
ATOM     24  H   UNL     1      -6.043  -6.184   2.711  0.00  0.00    +0.160 HD
ENDBRANCH   4   9
BRANCH   1  28
ATOM     25  C   UNL     1      -1.208  -0.676   0.566  0.00  0.00    +0.120 A 
ATOM     26  C   UNL     1      -1.735  -0.913  -0.696  0.00  0.00    +0.047 A 
ATOM     27  C   UNL     1      -2.955  -1.547  -0.827  0.00  0.00    +0.030 A 
ATOM     28  C   UNL     1      -3.654  -1.948   0.304  0.00  0.00    +0.052 A 
ATOM     29  C   UNL     1      -3.126  -1.710   1.566  0.00  0.00    +0.030 A 
ATOM     30  C   UNL     1      -1.904  -1.081   1.696  0.00  0.00    +0.047 A 
BRANCH  25  32
ATOM     31  C   UNL     1       0.654   0.337  -0.512  0.00  0.00    +0.277 C 
ATOM     32  O   UNL     1      -0.007  -0.052   0.694  0.00  0.00    -0.495 OA
ENDBRANCH  25  32
ENDBRANCH   1  28
BRANCH   7  33
ATOM     33  S   UNL     1      -5.950  -0.103   0.272  0.00  0.00    -0.091 S 
ATOM     34  C   UNL     1      -7.681   0.434   0.188  0.00  0.00    +0.093 C 
ENDBRANCH   7  33
TORSDOF 4
