REMARK  Name = ZINC43235229
REMARK  7 active torsions:
REMARK  status: ('A' for Active; 'I' for Inactive)
REMARK    1  A    between atoms: C_1  and  C_2
REMARK    2  A    between atoms: C_2  and  C_4
REMARK    3  A    between atoms: C_2  and  N_21
REMARK    4  A    between atoms: C_4  and  C_6
REMARK    5  A    between atoms: C_4  and  O_12
REMARK    6  A    between atoms: N_9  and  C_11
REMARK    7  A    between atoms: O_12  and  C_13
REMARK                            x       y       z     vdW  Elec       q    Type
REMARK                         _______ _______ _______ _____ _____    ______ ____
ROOT
ATOM      1  C   UNL     1      -1.490  -0.562  -0.006  0.00  0.00    +0.192 C 
ENDROOT
BRANCH   1   2
ATOM      2  C   UNL     1      -1.714  -2.053  -0.001  0.00  0.00    +0.028 A 
ATOM      3  C   UNL     1      -1.795  -2.869   1.132  0.00  0.00    +0.141 A 
ATOM      4  N   UNL     1      -1.995  -4.099   0.736  0.00  0.00    -0.180 NA
ATOM      5  N   UNL     1      -2.047  -4.106  -0.663  0.00  0.00    -0.274 N 
ATOM      6  C   UNL     1      -1.877  -2.837  -1.091  0.00  0.00    +0.115 A 
ATOM      7  C   UNL     1      -2.255  -5.281  -1.513  0.00  0.00    +0.172 C 
ENDBRANCH   1   2
BRANCH   1   9
ATOM      8  C   UNL     1       0.234   1.237   0.178  0.00  0.00    -0.010 C 
ATOM      9  C   UNL     1       0.011  -0.272   0.058  0.00  0.00    -0.032 C 
BRANCH   9  10
ATOM     10  N   UNL     1       0.591  -0.947   1.227  0.00  0.00    +0.382 N 
ATOM     11  H   UNL     1       0.146  -0.607   2.067  0.00  0.00    -0.089 HD
ATOM     12  H   UNL     1       0.444  -1.942   1.148  0.00  0.00    -0.089 HD
ATOM     13  H   UNL     1       1.580  -0.755   1.270  0.00  0.00    -0.089 HD
ENDBRANCH   9  10
ENDBRANCH   1   9
BRANCH   1  14
ATOM     14  O   UNL     1      -2.137   0.021   1.126  0.00  0.00    -0.484 OA
BRANCH  14  15
ATOM     15  C   UNL     1      -2.703   1.244   0.952  0.00  0.00    +0.141 A 
ATOM     16  C   UNL     1      -2.673   1.852  -0.295  0.00  0.00    +0.047 A 
ATOM     17  C   UNL     1      -3.249   3.095  -0.471  0.00  0.00    +0.005 A 
ATOM     18  C   UNL     1      -3.855   3.735   0.594  0.00  0.00    +0.022 A 
ATOM     19  C   UNL     1      -3.886   3.133   1.839  0.00  0.00    +0.063 A 
ATOM     20  C   UNL     1      -3.317   1.885   2.019  0.00  0.00    +0.101 A 
ATOM     21 CL   UNL     1      -3.363   1.125   3.579  0.00  0.00    -0.078 Cl
ATOM     22 CL   UNL     1      -4.648   3.939   3.175  0.00  0.00    -0.082 Cl
ENDBRANCH  14  15
ENDBRANCH   1  14
TORSDOF 5
