REMARK  Name = ZINC37010459
REMARK  7 active torsions:
REMARK  status: ('A' for Active; 'I' for Inactive)
REMARK    1  A    between atoms: C_1  and  C_2
REMARK    2  A    between atoms: C_2  and  C_3
REMARK    3  A    between atoms: C_3  and  C_5
REMARK    4  A    between atoms: C_3  and  N_14
REMARK    5  A    between atoms: C_9  and  N_11
REMARK    6  A    between atoms: N_14  and  C_15
REMARK    7  A    between atoms: C_18  and  C_21
REMARK                            x       y       z     vdW  Elec       q    Type
REMARK                         _______ _______ _______ _____ _____    ______ ____
ROOT
ATOM      1  C   UNL     1      -1.433  -0.534   0.013  0.00  0.00    +0.100 C 
ENDROOT
BRANCH   1   2
ATOM      2  C   UNL     1      -1.416  -2.035  -0.119  0.00  0.00    -0.025 A 
ATOM      3  C   UNL     1      -1.159  -2.823   0.987  0.00  0.00    +0.005 A 
ATOM      4  C   UNL     1      -1.143  -4.200   0.866  0.00  0.00    +0.003 A 
ATOM      5  C   UNL     1      -1.385  -4.789  -0.361  0.00  0.00    +0.033 A 
ATOM      6  C   UNL     1      -1.642  -4.001  -1.467  0.00  0.00    +0.127 A 
ATOM      7  C   UNL     1      -1.662  -2.623  -1.345  0.00  0.00    +0.038 A 
BRANCH   6   8
ATOM      8  N   UNL     1      -1.900  -4.631  -2.781  0.00  0.00    +0.056 N 
ATOM      9  O   UNL     1      -1.885  -5.835  -2.888  0.00  0.00    -0.126 OA
ATOM     10  O   UNL     1      -2.126  -3.942  -3.749  0.00  0.00    -0.126 OA
ENDBRANCH   6   8
ENDBRANCH   1   2
BRANCH   1  12
ATOM     11  C   UNL     1      -0.019   1.526   0.010  0.00  0.00    +0.006 C 
ATOM     12  C   UNL     1       0.002  -0.004   0.002  0.00  0.00    +0.023 C 
ENDBRANCH   1  12
BRANCH   1  13
ATOM     13  N   UNL     1      -2.082  -0.162   1.273  0.00  0.00    -0.337 N 
ATOM     14  H   UNL     1      -2.092  -0.785   2.016  0.00  0.00    +0.147 HD
BRANCH  13  15
ATOM     15  C   UNL     1      -2.683   1.087   1.404  0.00  0.00    +0.028 A 
ATOM     16  C   UNL     1      -2.672   1.978   0.336  0.00  0.00    +0.024 A 
ATOM     17  C   UNL     1      -3.266   3.214   0.462  0.00  0.00    +0.020 A 
ATOM     18  C   UNL     1      -3.880   3.572   1.666  0.00  0.00    +0.052 A 
ATOM     19  C   UNL     1      -3.889   2.674   2.737  0.00  0.00    +0.020 A 
ATOM     20  C   UNL     1      -3.298   1.438   2.602  0.00  0.00    +0.024 A 
BRANCH  18  21
ATOM     21  C   UNL     1      -4.498   4.857   1.801  0.00  0.00    +0.099 C 
ATOM     22  N   UNL     1      -4.989   5.876   1.909  0.00  0.00    -0.191 NA
ENDBRANCH  18  21
ENDBRANCH  13  15
ENDBRANCH   1  13
TORSDOF 6
