REMARK  Name = ZINC36011473
REMARK  8 active torsions:
REMARK  status: ('A' for Active; 'I' for Inactive)
REMARK    1  A    between atoms: C_1  and  C_2
REMARK    2  A    between atoms: C_2  and  O_30
REMARK    3  A    between atoms: C_3  and  C_21
REMARK    4  A    between atoms: C_5  and  C_11
REMARK    5  A    between atoms: C_14  and  O_17
REMARK    6  A    between atoms: O_17  and  C_18
REMARK    7  A    between atoms: N_23  and  C_24
REMARK    8  A    between atoms: O_30  and  C_31
REMARK                            x       y       z     vdW  Elec       q    Type
REMARK                         _______ _______ _______ _____ _____    ______ ____
ROOT
ATOM      1  C   UNL     1      -0.629   0.909  -0.166  0.00  0.00    +0.064 C 
ATOM      2  C   UNL     1      -0.381  -0.586   0.045  0.00  0.00    +0.145 C 
ATOM      3  C   UNL     1      -1.723  -1.322   0.127  0.00  0.00    +0.150 C 
ATOM      4  C   UNL     1      -1.452  -2.794   0.453  0.00  0.00    +0.118 C 
ATOM      5  N   UNL     1      -0.659  -2.877   1.680  0.00  0.00    -0.319 N 
ATOM      6  C   UNL     1       0.189  -1.897   2.030  0.00  0.00    +0.133 C 
ATOM      7  S   UNL     1       1.095  -2.071   3.473  0.00  0.00    -0.019 S 
ATOM      8  N   UNL     1       0.355  -0.788   1.294  0.00  0.00    -0.299 N 
ATOM      9  H   UNL     1      -0.748  -3.655   2.252  0.00  0.00    +0.148 HD
ATOM     10  H   UNL     1       0.975  -0.106   1.597  0.00  0.00    +0.150 HD
ENDROOT
BRANCH   4  11
ATOM     11  C   UNL     1      -2.761  -3.515   0.649  0.00  0.00    -0.026 A 
ATOM     12  C   UNL     1      -3.374  -3.509   1.889  0.00  0.00    +0.009 A 
ATOM     13  C   UNL     1      -4.573  -4.170   2.071  0.00  0.00    +0.046 A 
ATOM     14  C   UNL     1      -5.164  -4.838   1.009  0.00  0.00    +0.127 A 
ATOM     15  C   UNL     1      -4.548  -4.842  -0.234  0.00  0.00    +0.046 A 
ATOM     16  C   UNL     1      -3.351  -4.176  -0.413  0.00  0.00    +0.009 A 
BRANCH  14  17
ATOM     17  O   UNL     1      -6.344  -5.489   1.186  0.00  0.00    -0.434 OA
BRANCH  17  18
ATOM     18  C   UNL     1      -6.894  -6.156   0.048  0.00  0.00    +0.541 C 
ATOM     19  F   UNL     1      -7.127  -5.226  -0.971  0.00  0.00    -0.166 F 
ATOM     20  F   UNL     1      -5.993  -7.127  -0.404  0.00  0.00    -0.166 F 
ENDBRANCH  17  18
ENDBRANCH  14  17
ENDBRANCH   4  11
BRANCH   3  21
ATOM     21  C   UNL     1      -2.571  -0.707   1.210  0.00  0.00    +0.227 C 
ATOM     22  O   UNL     1      -2.138  -0.611   2.339  0.00  0.00    -0.275 OA
ATOM     23  N   UNL     1      -3.812  -0.264   0.924  0.00  0.00    -0.285 N 
ATOM     24  H   UNL     1      -4.131  -0.274   0.008  0.00  0.00    +0.155 HD
BRANCH  23  25
ATOM     25  C   UNL     1      -4.639   0.210   1.948  0.00  0.00    +0.033 A 
ATOM     26  C   UNL     1      -4.091   0.897   3.023  0.00  0.00    +0.023 A 
ATOM     27  C   UNL     1      -4.910   1.363   4.033  0.00  0.00    +0.002 A 
ATOM     28  C   UNL     1      -6.275   1.146   3.974  0.00  0.00    +0.000 A 
ATOM     29  C   UNL     1      -6.823   0.462   2.905  0.00  0.00    +0.002 A 
ATOM     30  C   UNL     1      -6.010  -0.002   1.889  0.00  0.00    +0.023 A 
ENDBRANCH  23  25
ENDBRANCH   3  21
BRANCH   2  31
ATOM     31  O   UNL     1       0.382  -1.102  -1.047  0.00  0.00    -0.359 OA
ATOM     32  C   UNL     1       1.702  -0.563  -1.140  0.00  0.00    +0.196 C 
ENDBRANCH   2  31
TORSDOF 6
