REMARK  Name = ZINC35679193
REMARK  9 active torsions:
REMARK  status: ('A' for Active; 'I' for Inactive)
REMARK    1  A    between atoms: C_1  and  C_2
REMARK    2  A    between atoms: C_2  and  C_3
REMARK    3  A    between atoms: C_7  and  C_21
REMARK    4  A    between atoms: C_8  and  N_9
REMARK    5  A    between atoms: N_9  and  S_10
REMARK    6  A    between atoms: S_10  and  C_13
REMARK    7  A    between atoms: C_16  and  C_18
REMARK    8  A    between atoms: C_18  and  C_19
REMARK    9  A    between atoms: C_19  and  N_20
REMARK                            x       y       z     vdW  Elec       q    Type
REMARK                         _______ _______ _______ _____ _____    ______ ____
ROOT
ATOM      1  S   UNL     1      -2.255   0.059  -4.117  0.00  0.00    +0.079 S 
ATOM      2  O   UNL     1      -1.149   0.526  -4.878  0.00  0.00    -0.149 OA
ATOM      3  O   UNL     1      -2.948  -1.139  -4.437  0.00  0.00    -0.149 OA
ENDROOT
BRANCH   1   4
ATOM      4  C   UNL     1      -3.453   1.351  -4.123  0.00  0.00    +0.146 A 
ATOM      5  C   UNL     1      -3.294   2.660  -4.436  0.00  0.00    +0.037 A 
ATOM      6  C   UNL     1      -4.388   3.502  -4.371  0.00  0.00    +0.013 A 
ATOM      7  C   UNL     1      -5.588   2.994  -3.996  0.00  0.00    -0.010 A 
ATOM      8  S   UNL     1      -5.191   1.274  -3.726  0.00  0.00    -0.073 S 
BRANCH   7   9
ATOM      9  C   UNL     1      -6.912   3.697  -3.849  0.00  0.00    +0.023 C 
BRANCH   9  10
ATOM     10  C   UNL     1      -7.668   3.642  -5.178  0.00  0.00    -0.081 C 
BRANCH  10  11
ATOM     11  N   UNL     1      -8.960   4.327  -5.036  0.00  0.00    +0.378 N 
ATOM     12  H   UNL     1      -9.505   3.872  -4.320  0.00  0.00    -0.090 HD
ATOM     13  H   UNL     1      -8.803   5.290  -4.777  0.00  0.00    -0.090 HD
ATOM     14  H   UNL     1      -9.458   4.291  -5.912  0.00  0.00    -0.090 HD
ENDBRANCH  10  11
ENDBRANCH   9  10
ENDBRANCH   7   9
ENDBRANCH   1   4
BRANCH   1  15
ATOM     15  N   UNL     1      -1.720  -0.106  -2.558  0.00  0.00    -0.215 N 
ATOM     16  H   UNL     1      -0.796   0.091  -2.339  0.00  0.00    +0.174 HD
BRANCH  15  22
ATOM     17  C   UNL     1      -2.911   0.318  -0.502  0.00  0.00    -0.025 A 
ATOM     18  C   UNL     1      -3.786  -0.100   0.481  0.00  0.00    +0.005 A 
ATOM     19  C   UNL     1      -4.347  -1.362   0.418  0.00  0.00    +0.001 A 
ATOM     20  C   UNL     1      -4.035  -2.209  -0.630  0.00  0.00    +0.005 A 
ATOM     21  C   UNL     1      -3.162  -1.797  -1.617  0.00  0.00    -0.028 A 
ATOM     22  C   UNL     1      -2.600  -0.528  -1.559  0.00  0.00    +0.054 A 
ATOM     23  C   UNL     1      -2.822  -2.721  -2.758  0.00  0.00    +0.046 C 
BRANCH  17  25
ATOM     24  C   UNL     1      -3.135   2.667  -1.265  0.00  0.00    +0.009 C 
ATOM     25  C   UNL     1      -2.299   1.694  -0.432  0.00  0.00    +0.033 C 
ENDBRANCH  17  25
ENDBRANCH  15  22
ENDBRANCH   1  15
TORSDOF 7
