REMARK  Name = ZINC65751536
REMARK  6 active torsions:
REMARK  status: ('A' for Active; 'I' for Inactive)
REMARK    1  A    between atoms: C_1  and  C_2
REMARK    2  A    between atoms: C_6  and  O_19
REMARK    3  A    between atoms: C_7  and  N_8
REMARK    4  A    between atoms: C_13  and  C_18
REMARK    5  A    between atoms: C_15  and  C_17
REMARK    6  A    between atoms: O_19  and  C_20
REMARK                            x       y       z     vdW  Elec       q    Type
REMARK                         _______ _______ _______ _____ _____    ______ ____
ROOT
ATOM      1  N   UNL     1       0.027  -0.012   2.418  0.00  0.00    -0.266 N 
ATOM      2  C   UNL     1      -0.355  -0.637   3.549  0.00  0.00    +0.307 C 
ATOM      3  O   UNL     1      -0.615  -1.825   3.529  0.00  0.00    -0.252 OA
ATOM      4  N   UNL     1      -0.451   0.054   4.702  0.00  0.00    -0.280 N 
ATOM      5  C   UNL     1      -0.258   1.512   4.730  0.00  0.00    +0.140 C 
ATOM      6  C   UNL     1      -1.442   2.143   5.471  0.00  0.00    +0.133 C 
ATOM      7  O   UNL     1      -1.601   1.500   6.737  0.00  0.00    -0.371 OA
ATOM      8  C   UNL     1      -1.912   0.107   6.652  0.00  0.00    +0.133 C 
ATOM      9  C   UNL     1      -0.757  -0.627   5.971  0.00  0.00    +0.140 C 
ATOM     10  C   UNL     1      -2.120  -0.457   8.059  0.00  0.00    +0.039 C 
ATOM     11  C   UNL     1      -2.716   1.964   4.643  0.00  0.00    +0.039 C 
ATOM     12  H   UNL     1       0.316   0.914   2.450  0.00  0.00    +0.156 HD
ENDROOT
BRANCH   1  19
ATOM     13  C   UNL     1      -1.217   1.243   0.190  0.00  0.00    +0.046 C 
ATOM     14  C   UNL     1      -0.589  -0.123   0.085  0.00  0.00    -0.025 A 
ATOM     15  C   UNL     1      -0.603  -0.799  -1.121  0.00  0.00    +0.020 A 
ATOM     16  C   UNL     1      -0.027  -2.053  -1.220  0.00  0.00    +0.022 A 
ATOM     17  C   UNL     1       0.565  -2.636  -0.114  0.00  0.00    +0.062 A 
ATOM     18  C   UNL     1       0.582  -1.964   1.097  0.00  0.00    +0.143 A 
ATOM     19  C   UNL     1       0.007  -0.699   1.196  0.00  0.00    +0.080 A 
ATOM     20 BR   UNL     1      -0.050  -2.973  -2.872  0.00  0.00    -0.050 Br
BRANCH  18  21
ATOM     21  O   UNL     1       1.163  -2.536   2.186  0.00  0.00    -0.493 OA
ATOM     22  C   UNL     1       1.737  -3.832   2.009  0.00  0.00    +0.277 C 
ENDBRANCH  18  21
ENDBRANCH   1  19
TORSDOF 2
