REMARK  Name = ZINC13364711
REMARK  13 active torsions:
REMARK  status: ('A' for Active; 'I' for Inactive)
REMARK    1  A    between atoms: C_1  and  C_2
REMARK    2  A    between atoms: C_2  and  C_3
REMARK    3  A    between atoms: C_2  and  C_4
REMARK    4  A    between atoms: C_4  and  N_5
REMARK    5  A    between atoms: C_6  and  N_34
REMARK    6  A    between atoms: C_7  and  C_14
REMARK    7  A    between atoms: N_10  and  C_13
REMARK    8  A    between atoms: C_14  and  C_16
REMARK    9  A    between atoms: C_16  and  S_17
REMARK   10  A    between atoms: S_17  and  C_18
REMARK   11  A    between atoms: C_22  and  C_32
REMARK   12  A    between atoms: N_28  and  C_29
REMARK   13  A    between atoms: C_29  and  C_30
REMARK                            x       y       z     vdW  Elec       q    Type
REMARK                         _______ _______ _______ _____ _____    ______ ____
ROOT
ATOM      1  C   UNL     1      -3.429  -1.284   2.109  0.00  0.00    +0.157 C 
ENDROOT
BRANCH   1   2
ATOM      2  C   UNL     1      -3.938  -2.626   1.650  0.00  0.00    +0.182 C 
ATOM      3  O   UNL     1      -3.457  -3.154   0.668  0.00  0.00    -0.291 OA
BRANCH   2   6
ATOM      4  N   UNL     1      -6.543  -5.050   2.614  0.00  0.00    -0.281 N 
ATOM      5  C   UNL     1      -5.547  -4.462   1.887  0.00  0.00    +0.116 A 
ATOM      6  C   UNL     1      -4.973  -3.269   2.361  0.00  0.00    +0.120 A 
ATOM      7  C   UNL     1      -5.490  -2.711   3.617  0.00  0.00    +0.269 A 
ATOM      8  O   UNL     1      -5.034  -1.678   4.072  0.00  0.00    -0.267 OA
ATOM      9  N   UNL     1      -6.480  -3.367   4.257  0.00  0.00    -0.263 N 
ATOM     10  C   UNL     1      -6.986  -4.506   3.758  0.00  0.00    +0.333 A 
ATOM     11  O   UNL     1      -7.878  -5.066   4.365  0.00  0.00    -0.246 OA
ATOM     12  C   UNL     1      -7.012  -2.828   5.511  0.00  0.00    +0.157 C 
BRANCH   5  13
ATOM     13  N   UNL     1      -5.114  -5.023   0.726  0.00  0.00    -0.344 N 
ATOM     14  H   UNL     1      -4.356  -4.642   0.256  0.00  0.00    +0.144 HD
ATOM     15  H   UNL     1      -5.563  -5.805   0.368  0.00  0.00    +0.144 HD
ENDBRANCH   5  13
BRANCH   4  16
ATOM     16  C   UNL     1      -7.143  -6.296   2.131  0.00  0.00    +0.131 C 
BRANCH  16  18
ATOM     17  C   UNL     1      -7.833  -5.250  -0.031  0.00  0.00    +0.009 C 
ATOM     18  C   UNL     1      -8.331  -5.971   1.223  0.00  0.00    +0.003 C 
ATOM     19  C   UNL     1      -9.034  -7.269   0.819  0.00  0.00    +0.009 C 
ENDBRANCH  16  18
ENDBRANCH   4  16
ENDBRANCH   2   6
ENDBRANCH   1   2
BRANCH   1  20
ATOM     20  S   UNL     1      -2.112  -0.726   0.999  0.00  0.00    -0.080 S 
BRANCH  20  21
ATOM     21  C   UNL     1      -1.715   0.819   1.748  0.00  0.00    +0.173 A 
ATOM     22  N   UNL     1      -2.379   1.184   2.817  0.00  0.00    -0.223 NA
ATOM     23  C   UNL     1      -2.125   2.357   3.443  0.00  0.00    +0.080 A 
ATOM     24  C   UNL     1      -2.835   2.744   4.583  0.00  0.00    +0.043 A 
ATOM     25  C   UNL     1      -2.539   3.958   5.192  0.00  0.00    +0.065 A 
ATOM     26  C   UNL     1      -1.539   4.789   4.671  0.00  0.00    +0.016 A 
ATOM     27  C   UNL     1      -0.840   4.421   3.558  0.00  0.00    +0.016 A 
ATOM     28  C   UNL     1      -1.120   3.208   2.930  0.00  0.00    +0.065 A 
ATOM     29  C   UNL     1      -0.386   2.770   1.732  0.00  0.00    +0.263 A 
ATOM     30  O   UNL     1       0.494   3.455   1.246  0.00  0.00    -0.267 OA
ATOM     31  N   UNL     1      -0.729   1.579   1.188  0.00  0.00    -0.283 N 
BRANCH  25  32
ATOM     32  C   UNL     1      -3.286   4.374   6.399  0.00  0.00    +0.387 C 
ATOM     33  O   UNL     1      -4.153   3.657   6.855  0.00  0.00    -0.241 OA
ATOM     34  O   UNL     1      -3.003   5.550   6.994  0.00  0.00    -0.241 OA
ENDBRANCH  25  32
BRANCH  31  35
ATOM     35  C   UNL     1      -0.033   1.100  -0.009  0.00  0.00    +0.154 C 
BRANCH  35  36
ATOM     36  C   UNL     1      -0.759   1.581  -1.238  0.00  0.00    -0.013 C 
ATOM     37  C   UNL     1      -0.115   2.261  -2.155  0.00  0.00    +0.005 C 
ENDBRANCH  35  36
ENDBRANCH  31  35
ENDBRANCH  20  21
ENDBRANCH   1  20
TORSDOF 10
