REMARK  Name = ZINC13444578
REMARK  10 active torsions:
REMARK  status: ('A' for Active; 'I' for Inactive)
REMARK    1  A    between atoms: C_1  and  C_2
REMARK    2  A    between atoms: C_2  and  C_3
REMARK    3  A    between atoms: C_2  and  C_4
REMARK    4  A    between atoms: C_4  and  C_6
REMARK    5  A    between atoms: C_4  and  N_11
REMARK    6  A    between atoms: C_12  and  C_14
REMARK    7  A    between atoms: C_14  and  S_15
REMARK    8  A    between atoms: S_15  and  C_16
REMARK    9  A    between atoms: C_20  and  C_28
REMARK   10  A    between atoms: N_26  and  C_27
REMARK                            x       y       z     vdW  Elec       q    Type
REMARK                         _______ _______ _______ _____ _____    ______ ____
ROOT
ATOM      1  S   UNL     1       3.145  -4.723   0.346  0.00  0.00    -0.078 S 
ENDROOT
BRANCH   1   2
ATOM      2  C   UNL     1       2.930  -6.463   0.172  0.00  0.00    +0.172 A 
ATOM      3  N   UNL     1       1.914  -6.900  -0.531  0.00  0.00    -0.223 NA
ATOM      4  C   UNL     1       1.690  -8.223  -0.705  0.00  0.00    +0.080 A 
ATOM      5  C   UNL     1       0.606  -8.687  -1.456  0.00  0.00    +0.043 A 
ATOM      6  C   UNL     1       0.415 -10.054  -1.609  0.00  0.00    +0.065 A 
ATOM      7  C   UNL     1       1.299 -10.965  -1.016  0.00  0.00    +0.016 A 
ATOM      8  C   UNL     1       2.361 -10.524  -0.280  0.00  0.00    +0.016 A 
ATOM      9  C   UNL     1       2.572  -9.156  -0.114  0.00  0.00    +0.065 A 
ATOM     10  C   UNL     1       3.704  -8.637   0.670  0.00  0.00    +0.262 A 
ATOM     11  O   UNL     1       4.498  -9.389   1.204  0.00  0.00    -0.267 OA
ATOM     12  N   UNL     1       3.832  -7.294   0.772  0.00  0.00    -0.290 N 
ATOM     13  C   UNL     1       4.945  -6.727   1.537  0.00  0.00    +0.154 C 
BRANCH   6  14
ATOM     14  C   UNL     1      -0.730 -10.553  -2.402  0.00  0.00    +0.387 C 
ATOM     15  O   UNL     1      -1.499  -9.767  -2.918  0.00  0.00    -0.241 OA
ATOM     16  O   UNL     1      -0.919 -11.878  -2.553  0.00  0.00    -0.241 OA
ENDBRANCH   6  14
ENDBRANCH   1   2
BRANCH   1  17
ATOM     17  C   UNL     1       1.730  -4.134  -0.617  0.00  0.00    +0.173 C 
BRANCH  17  19
ATOM     18  N   UNL     1       0.738  -1.962  -1.265  0.00  0.00    -0.307 N 
ATOM     19  C   UNL     1       1.710  -2.627  -0.608  0.00  0.00    +0.224 C 
ATOM     20  O   UNL     1       2.567  -2.012  -0.011  0.00  0.00    -0.275 OA
ATOM     21  H   UNL     1       0.052  -2.454  -1.743  0.00  0.00    +0.149 HD
BRANCH  18  22
ATOM     22  C   UNL     1       0.718  -0.497  -1.257  0.00  0.00    +0.112 C 
BRANCH  22  23
ATOM     23  C   UNL     1      -0.011   0.002  -2.478  0.00  0.00    +0.010 A 
ATOM     24  C   UNL     1       0.282   1.059  -3.274  0.00  0.00    +0.013 A 
ATOM     25  C   UNL     1      -0.535   1.330  -4.355  0.00  0.00    +0.008 A 
ATOM     26  C   UNL     1      -1.612   0.538  -4.580  0.00  0.00    +0.045 A 
ATOM     27  S   UNL     1      -1.489  -0.641  -3.246  0.00  0.00    -0.100 S 
ENDBRANCH  22  23
BRANCH  22  29
ATOM     28  C   UNL     1      -0.019   1.526   0.010  0.00  0.00    +0.009 C 
ATOM     29  C   UNL     1       0.002  -0.004   0.002  0.00  0.00    +0.008 C 
ATOM     30  C   UNL     1       0.742  -0.511   1.242  0.00  0.00    +0.009 C 
ENDBRANCH  22  29
ENDBRANCH  18  22
ENDBRANCH  17  19
ENDBRANCH   1  17
TORSDOF 7
