REMARK  Name = ZINC36322030
REMARK  5 active torsions:
REMARK  status: ('A' for Active; 'I' for Inactive)
REMARK    1  A    between atoms: C_1  and  N_2
REMARK    2  A    between atoms: N_2  and  C_3
REMARK    3  A    between atoms: N_2  and  C_15
REMARK    4  A    between atoms: C_8  and  C_9
REMARK    5  A    between atoms: C_10  and  C_11
REMARK                            x       y       z     vdW  Elec       q    Type
REMARK                         _______ _______ _______ _____ _____    ______ ____
ROOT
ATOM      1  C   UNL     1       0.023  -0.705   1.201  0.00  0.00    +0.038 A 
ATOM      2  C   UNL     1      -1.166  -1.078   1.812  0.00  0.00    +0.039 A 
ATOM      3  C   UNL     1      -1.143  -1.775   3.004  0.00  0.00    +0.020 A 
ATOM      4  C   UNL     1       0.065  -2.107   3.601  0.00  0.00    +0.016 A 
ATOM      5  C   UNL     1       1.255  -1.746   3.013  0.00  0.00    +0.011 A 
ATOM      6  C   UNL     1       1.250  -1.045   1.800  0.00  0.00    -0.004 A 
ATOM      7 BR   UNL     1      -2.768  -2.279   3.829  0.00  0.00    -0.050 Br
ENDROOT
BRANCH   1   9
ATOM      8  C   UNL     1      -0.018   1.461   0.010  0.00  0.00    +0.129 C 
ATOM      9  N   UNL     1       0.002  -0.004   0.002  0.00  0.00    -0.329 N 
BRANCH   9  10
ATOM     10  C   UNL     1      -0.000  -0.730  -1.271  0.00  0.00    +0.077 C 
ATOM     11  C   UNL     1       1.231  -0.331  -2.090  0.00  0.00    +0.050 C 
ATOM     12  C   UNL     1       1.180  -1.034  -3.449  0.00  0.00    +0.161 C 
ATOM     13  O   UNL     1      -0.033  -0.684  -4.119  0.00  0.00    -0.380 OA
ATOM     14  C   UNL     1      -1.218  -1.074  -3.422  0.00  0.00    +0.161 C 
ATOM     15  C   UNL     1      -1.263  -0.374  -2.061  0.00  0.00    +0.050 C 
ENDBRANCH   9  10
ENDBRANCH   1   9
BRANCH   6  16
ATOM     16  C   UNL     1       2.514  -0.663   1.163  0.00  0.00    +0.017 C 
ATOM     17  C   UNL     1       3.692  -0.993   1.744  0.00  0.00    +0.096 C 
BRANCH  17  18
ATOM     18  C   UNL     1       4.910  -0.625   1.130  0.00  0.00    +0.380 C 
ATOM     19  O   UNL     1       4.900  -0.007   0.072  0.00  0.00    -0.241 OA
ATOM     20  O   UNL     1       5.976  -0.924   1.655  0.00  0.00    -0.241 OA
ENDBRANCH  17  18
ENDBRANCH   6  16
TORSDOF 4
