REMARK  Name = ZINC01874267
REMARK  8 active torsions:
REMARK  status: ('A' for Active; 'I' for Inactive)
REMARK    1  A    between atoms: C_1  and  O_2
REMARK    2  A    between atoms: O_2  and  C_3
REMARK    3  A    between atoms: C_6  and  N_9
REMARK    4  A    between atoms: C_14  and  C_28
REMARK    5  A    between atoms: N_16  and  C_22
REMARK    6  A    between atoms: C_31  and  O_34
REMARK    7  A    between atoms: O_34  and  S_35
REMARK    8  A    between atoms: S_35  and  C_38
REMARK                            x       y       z     vdW  Elec       q    Type
REMARK                         _______ _______ _______ _____ _____    ______ ____
ROOT
ATOM      1  N   UNL     1       6.242  -2.762  -0.161  0.00  0.00    -0.208 N 
ATOM      2  C   UNL     1       6.123  -2.096   0.994  0.00  0.00    +0.235 C 
ATOM      3  O   UNL     1       6.223  -2.586   2.098  0.00  0.00    -0.274 OA
ATOM      4  C   UNL     1       5.846  -0.637   0.706  0.00  0.00    +0.145 C 
ATOM      5  C   UNL     1       4.389  -0.315   1.108  0.00  0.00    +0.157 C 
ATOM      6  N   UNL     1       3.620  -0.645  -0.121  0.00  0.00    -0.244 N 
ATOM      7  O   UNL     1       4.500  -0.201  -1.221  0.00  0.00    -0.257 OA
ATOM      8  C   UNL     1       5.837  -0.574  -0.844  0.00  0.00    +0.249 C 
ATOM      9  C   UNL     1       6.096  -2.006  -1.255  0.00  0.00    +0.259 C 
ATOM     10  O   UNL     1       6.162  -2.406  -2.398  0.00  0.00    -0.272 OA
ENDROOT
BRANCH   1  14
ATOM     11  C   UNL     1       7.004  -6.860  -0.336  0.00  0.00    +0.120 A 
ATOM     12  C   UNL     1       5.782  -6.363  -0.766  0.00  0.00    +0.047 A 
ATOM     13  C   UNL     1       5.529  -5.007  -0.708  0.00  0.00    +0.027 A 
ATOM     14  C   UNL     1       6.498  -4.141  -0.219  0.00  0.00    +0.044 A 
ATOM     15  C   UNL     1       7.722  -4.638   0.206  0.00  0.00    +0.027 A 
ATOM     16  C   UNL     1       7.972  -5.995   0.152  0.00  0.00    +0.047 A 
BRANCH  11  18
ATOM     17  C   UNL     1       8.531  -8.638   0.066  0.00  0.00    +0.277 C 
ATOM     18  O   UNL     1       7.252  -8.195  -0.393  0.00  0.00    -0.495 OA
ENDBRANCH  11  18
ENDBRANCH   1  14
BRANCH   6  19
ATOM     19  C   UNL     1       2.401   0.037  -0.149  0.00  0.00    +0.065 A 
ATOM     20  C   UNL     1       1.208  -0.672  -0.192  0.00  0.00    +0.028 A 
ATOM     21  C   UNL     1       0.005   0.006  -0.218  0.00  0.00    +0.002 A 
ATOM     22  C   UNL     1      -0.012   1.388  -0.202  0.00  0.00    +0.000 A 
ATOM     23  C   UNL     1       1.174   2.097  -0.158  0.00  0.00    +0.002 A 
ATOM     24  C   UNL     1       2.381   1.426  -0.132  0.00  0.00    +0.028 A 
ENDBRANCH   6  19
BRANCH   5  25
ATOM     25  C   UNL     1       3.947  -1.178   2.261  0.00  0.00    -0.022 A 
ATOM     26  C   UNL     1       3.631  -2.507   2.047  0.00  0.00    +0.009 A 
ATOM     27  C   UNL     1       3.232  -3.303   3.103  0.00  0.00    +0.049 A 
ATOM     28  C   UNL     1       3.135  -2.764   4.378  0.00  0.00    +0.157 A 
ATOM     29  C   UNL     1       3.447  -1.429   4.590  0.00  0.00    +0.049 A 
ATOM     30  C   UNL     1       3.852  -0.639   3.531  0.00  0.00    +0.009 A 
BRANCH  28  31
ATOM     31  O   UNL     1       2.736  -3.543   5.418  0.00  0.00    -0.342 OA
BRANCH  31  32
ATOM     32  S   UNL     1       1.231  -3.549   5.644  0.00  0.00    +0.151 S 
ATOM     33  O   UNL     1       1.008  -4.229   6.872  0.00  0.00    -0.131 OA
ATOM     34  O   UNL     1       0.780  -2.221   5.415  0.00  0.00    -0.131 OA
BRANCH  32  35
ATOM     35  C   UNL     1       0.518  -4.548   4.379  0.00  0.00    +0.128 A 
ATOM     36  C   UNL     1       0.124  -3.974   3.185  0.00  0.00    +0.030 A 
ATOM     37  C   UNL     1      -0.430  -4.758   2.191  0.00  0.00    +0.002 A 
ATOM     38  C   UNL     1      -0.600  -6.115   2.394  0.00  0.00    +0.000 A 
ATOM     39  C   UNL     1      -0.210  -6.688   3.591  0.00  0.00    +0.002 A 
ATOM     40  C   UNL     1       0.348  -5.905   4.583  0.00  0.00    +0.030 A 
ENDBRANCH  32  35
ENDBRANCH  31  32
ENDBRANCH  28  31
ENDBRANCH   5  25
TORSDOF 7
