REMARK  Name = ZINC07799571
REMARK  8 active torsions:
REMARK  status: ('A' for Active; 'I' for Inactive)
REMARK    1  A    between atoms: C_1  and  C_2
REMARK    2  A    between atoms: C_2  and  C_3
REMARK    3  A    between atoms: C_3  and  C_4
REMARK    4  A    between atoms: C_4  and  N_5
REMARK    5  A    between atoms: C_6  and  N_24
REMARK    6  A    between atoms: C_7  and  N_14
REMARK    7  A    between atoms: N_14  and  C_15
REMARK    8  A    between atoms: C_16  and  C_18
REMARK                            x       y       z     vdW  Elec       q    Type
REMARK                         _______ _______ _______ _____ _____    ______ ____
ROOT
ATOM      1  N   UNL     1      -2.505  -3.732   0.971  0.00  0.00    -0.280 N 
ATOM      2  C   UNL     1      -2.206  -3.862  -0.366  0.00  0.00    +0.127 A 
ATOM      3  C   UNL     1      -1.900  -5.109  -0.870  0.00  0.00    +0.139 A 
ATOM      4  C   UNL     1      -1.915  -6.216  -0.000  0.00  0.00    +0.277 A 
ATOM      5  O   UNL     1      -1.653  -7.330  -0.421  0.00  0.00    -0.266 OA
ATOM      6  N   UNL     1      -2.220  -6.036   1.299  0.00  0.00    -0.273 N 
ATOM      7  H   UNL     1      -2.234  -6.895   1.986  0.00  0.00    +0.173 HD
ATOM      8  C   UNL     1      -2.511  -4.811   1.774  0.00  0.00    +0.331 A 
ATOM      9  O   UNL     1      -2.784  -4.677   2.952  0.00  0.00    -0.246 OA
ENDROOT
BRANCH   3  10
ATOM     10  N   UNL     1      -1.583  -5.273  -2.235  0.00  0.00    -0.267 N 
ATOM     11  C   UNL     1      -2.629  -5.138  -3.252  0.00  0.00    +0.138 C 
ATOM     12  C   UNL     1      -0.316  -5.555  -2.604  0.00  0.00    +0.223 C 
ATOM     13  O   UNL     1      -0.026  -5.617  -3.781  0.00  0.00    -0.275 OA
BRANCH  12  14
ATOM     14  C   UNL     1       0.740  -5.793  -1.555  0.00  0.00    +0.076 C 
ATOM     15  C   UNL     1       1.482  -4.486  -1.272  0.00  0.00    +0.013 C 
ATOM     16  C   UNL     1       2.554  -4.728  -0.207  0.00  0.00    +0.001 C 
ATOM     17  C   UNL     1       3.545  -5.779  -0.710  0.00  0.00    +0.000 C 
ATOM     18  C   UNL     1       2.802  -7.086  -0.993  0.00  0.00    +0.001 C 
ATOM     19  C   UNL     1       1.731  -6.845  -2.058  0.00  0.00    +0.013 C 
ENDBRANCH  12  14
ENDBRANCH   3  10
BRANCH   2  20
ATOM     20  N   UNL     1      -2.206  -2.760  -1.188  0.00  0.00    -0.343 N 
ATOM     21  H   UNL     1      -1.965  -2.871  -2.256  0.00  0.00    +0.144 HD
ATOM     22  H   UNL     1      -2.447  -1.768  -0.778  0.00  0.00    +0.144 HD
ENDBRANCH   2  20
BRANCH   1  23
ATOM     23  C   UNL     1      -2.826  -2.413   1.520  0.00  0.00    +0.128 C 
BRANCH  23  24
ATOM     24  C   UNL     1      -1.543  -1.739   2.010  0.00  0.00    +0.021 C 
BRANCH  24  26
ATOM     25  C   UNL     1      -0.595   0.313   3.074  0.00  0.00    +0.004 C 
ATOM     26  C   UNL     1      -1.878  -0.361   2.585  0.00  0.00    -0.002 C 
ENDBRANCH  24  26
ENDBRANCH  23  24
ENDBRANCH   1  23
TORSDOF 6
