REMARK  Name = ZINC11898432
REMARK  7 active torsions:
REMARK  status: ('A' for Active; 'I' for Inactive)
REMARK    1  A    between atoms: C_1  and  N_2
REMARK    2  A    between atoms: C_6  and  C_7
REMARK    3  A    between atoms: C_7  and  C_9
REMARK    4  A    between atoms: C_7  and  N_56
REMARK    5  A    between atoms: C_9  and  N_10
REMARK    6  A    between atoms: C_11  and  C_13
REMARK    7  A    between atoms: N_15  and  C_16
REMARK                            x       y       z     vdW  Elec       q    Type
REMARK                         _______ _______ _______ _____ _____    ______ ____
ROOT
ATOM      1  C   UNL     1      -0.082   1.161   0.112  0.00  0.00    -0.003 C 
ENDROOT
BRANCH   1  11
ATOM      2  C   UNL     1       0.315  -0.982  -0.949  0.00  0.00    -0.073 C 
ATOM      3  C   UNL     1       0.064  -2.477  -0.750  0.00  0.00    +0.017 C 
ATOM      4  C   UNL     1      -1.417  -2.756  -0.759  0.00  0.00    -0.048 A 
ATOM      5  C   UNL     1      -1.843  -4.062  -0.947  0.00  0.00    +0.004 A 
ATOM      6  C   UNL     1      -3.190  -4.362  -0.958  0.00  0.00    +0.000 A 
ATOM      7  C   UNL     1      -4.120  -3.355  -0.782  0.00  0.00    +0.000 A 
ATOM      8  C   UNL     1      -3.698  -2.054  -0.598  0.00  0.00    +0.002 A 
ATOM      9  C   UNL     1      -2.344  -1.751  -0.587  0.00  0.00    -0.061 A 
ATOM     10  C   UNL     1      -1.932  -0.316  -0.386  0.00  0.00    -0.042 C 
ATOM     11  N   UNL     1      -0.520  -0.251   0.026  0.00  0.00    +0.389 N 
ATOM     12  H   UNL     1      -0.419  -0.689   0.949  0.00  0.00    -0.080 HD
ENDBRANCH   1  11
BRANCH   1  18
ATOM     13  C   UNL     1       0.276   4.092   1.057  0.00  0.00    +0.148 C 
ATOM     14  N   UNL     1      -0.492   3.066   1.767  0.00  0.00    -0.355 N 
ATOM     15  C   UNL     1      -1.161   3.246   2.942  0.00  0.00    +0.085 A 
ATOM     16  C   UNL     1      -1.744   2.077   3.277  0.00  0.00    +0.019 A 
ATOM     17  C   UNL     1      -1.429   1.144   2.270  0.00  0.00    +0.021 A 
ATOM     18  C   UNL     1      -0.657   1.775   1.362  0.00  0.00    +0.006 A 
ENDBRANCH   1  18
BRANCH   1  19
ATOM     19  C   UNL     1      -0.568   1.942  -1.110  0.00  0.00    +0.095 C 
BRANCH  19  20
ATOM     20  N   UNL     1       0.134   1.467  -2.305  0.00  0.00    -0.309 N 
ATOM     21  C   UNL     1      -0.238   1.904  -3.524  0.00  0.00    +0.299 C 
ATOM     22  O   UNL     1      -1.155   2.692  -3.632  0.00  0.00    -0.265 OA
ATOM     23  H   UNL     1       0.867   0.837  -2.218  0.00  0.00    +0.149 HD
BRANCH  21  24
ATOM     24  C   UNL     1       0.478   1.419  -4.742  0.00  0.00    +0.303 C 
ATOM     25  O   UNL     1       1.395   0.632  -4.633  0.00  0.00    -0.265 OA
ATOM     26  N   UNL     1       0.106   1.857  -5.961  0.00  0.00    -0.278 N 
ATOM     27  H   UNL     1      -0.576   2.542  -6.043  0.00  0.00    +0.155 HD
BRANCH  26  28
ATOM     28  C   UNL     1       0.702   1.323  -7.107  0.00  0.00    +0.037 A 
ATOM     29  C   UNL     1       0.887   2.119  -8.230  0.00  0.00    +0.026 A 
ATOM     30  C   UNL     1       1.481   1.592  -9.361  0.00  0.00    +0.043 A 
ATOM     31  C   UNL     1       1.882   0.267  -9.380  0.00  0.00    +0.159 A 
ATOM     32  C   UNL     1       1.694  -0.532  -8.262  0.00  0.00    +0.160 A 
ATOM     33  C   UNL     1       1.105  -0.006  -7.127  0.00  0.00    +0.064 A 
ATOM     34  F   UNL     1       2.087  -1.825  -8.282  0.00  0.00    -0.202 F 
ATOM     35  F   UNL     1       2.458  -0.248 -10.488  0.00  0.00    -0.202 F 
ENDBRANCH  26  28
ENDBRANCH  21  24
ENDBRANCH  19  20
ENDBRANCH   1  19
TORSDOF 6
