REMARK  Name = ZINC20791378
REMARK  6 active torsions:
REMARK  status: ('A' for Active; 'I' for Inactive)
REMARK    1  A    between atoms: C_4  and  N_22
REMARK    2  A    between atoms: C_5  and  C_7
REMARK    3  A    between atoms: N_9  and  N_10
REMARK    4  A    between atoms: C_19  and  O_20
REMARK    5  A    between atoms: N_22  and  S_23
REMARK    6  A    between atoms: S_23  and  C_26
REMARK                            x       y       z     vdW  Elec       q    Type
REMARK                         _______ _______ _______ _____ _____    ______ ____
ROOT
ATOM      1  C   UNL     1      -2.726   3.614   4.314  0.00  0.00    +0.265 C 
ATOM      2  O   UNL     1      -3.553   3.103   3.584  0.00  0.00    -0.268 OA
ATOM      3  N   UNL     1      -2.600   3.194   5.589  0.00  0.00    -0.202 N 
ATOM      4  H   UNL     1      -1.852   3.657   6.249  0.00  0.00    +0.178 HD
ENDROOT
BRANCH   3   5
ATOM      5  N   UNL     1      -3.357   2.249   6.034  0.00  0.00    -0.174 NA
ATOM      6  C   UNL     1      -3.303   1.906   7.300  0.00  0.00    +0.152 C 
ATOM      7  C   UNL     1      -2.361   2.392   8.335  0.00  0.00    +0.034 A 
ATOM      8  C   UNL     1      -1.307   3.294   8.331  0.00  0.00    +0.032 A 
ATOM      9  C   UNL     1      -0.606   3.534   9.498  0.00  0.00    +0.042 A 
ATOM     10  C   UNL     1      -0.955   2.876  10.668  0.00  0.00    +0.022 A 
ATOM     11  C   UNL     1      -1.999   1.978  10.688  0.00  0.00    +0.030 A 
ATOM     12  C   UNL     1      -2.722   1.718   9.519  0.00  0.00    +0.077 A 
ATOM     13  N   UNL     1      -3.775   0.897   9.264  0.00  0.00    -0.211 NA
ATOM     14  C   UNL     1      -4.170   0.952   8.019  0.00  0.00    +0.241 C 
ATOM     15 CL   UNL     1       0.713   4.662   9.499  0.00  0.00    -0.084 Cl
BRANCH  14  16
ATOM     16  O   UNL     1      -5.196   0.251   7.481  0.00  0.00    -0.491 OA
ATOM     17  H   UNL     1      -5.781  -0.437   8.108  0.00  0.00    +0.294 HD
ENDBRANCH  14  16
ENDBRANCH   3   5
BRANCH   1  22
ATOM     18  C   UNL     1      -0.104   6.293   4.160  0.00  0.00    +0.001 A 
ATOM     19  C   UNL     1      -0.236   6.729   2.850  0.00  0.00    +0.002 A 
ATOM     20  C   UNL     1      -1.170   6.156   2.013  0.00  0.00    +0.027 A 
ATOM     21  C   UNL     1      -1.988   5.133   2.478  0.00  0.00    +0.086 A 
ATOM     22  C   UNL     1      -1.861   4.692   3.805  0.00  0.00    +0.063 A 
ATOM     23  C   UNL     1      -0.905   5.280   4.639  0.00  0.00    +0.015 A 
BRANCH  21  24
ATOM     24  N   UNL     1      -2.929   4.555   1.638  0.00  0.00    -0.097 NA
BRANCH  24  25
ATOM     25  S   UNL     1      -2.590   4.354   0.029  0.00  0.00    +0.098 S 
ATOM     26  O   UNL     1      -2.192   5.626  -0.464  0.00  0.00    -0.148 OA
ATOM     27  O   UNL     1      -3.677   3.627  -0.527  0.00  0.00    -0.148 OA
BRANCH  25  28
ATOM     28  C   UNL     1      -1.177   3.308  -0.079  0.00  0.00    +0.148 A 
ATOM     29  C   UNL     1      -1.120   1.956  -0.164  0.00  0.00    +0.037 A 
ATOM     30  C   UNL     1       0.116   1.341  -0.236  0.00  0.00    +0.010 A 
ATOM     31  C   UNL     1       1.234   2.107  -0.231  0.00  0.00    +0.047 A 
ATOM     32  S   UNL     1       0.552   3.753  -0.113  0.00  0.00    -0.077 S 
ENDBRANCH  25  28
ENDBRANCH  24  25
ENDBRANCH  21  24
ENDBRANCH   1  22
TORSDOF 6
