REMARK  Name = ZINC08636520
REMARK  5 active torsions:
REMARK  status: ('A' for Active; 'I' for Inactive)
REMARK    1  A    between atoms: C_6  and  N_7
REMARK    2  A    between atoms: C_10  and  C_24
REMARK    3  A    between atoms: C_13  and  O_23
REMARK    4  A    between atoms: C_15  and  O_22
REMARK    5  A    between atoms: N_26  and  C_27
REMARK                            x       y       z     vdW  Elec       q    Type
REMARK                         _______ _______ _______ _____ _____    ______ ____
ROOT
ATOM      1  N   UNL     1      -2.675   3.796  -0.502  0.00  0.00    -0.277 N 
ATOM      2  C   UNL     1      -3.963   3.103  -0.492  0.00  0.00    +0.115 C 
ATOM      3  C   UNL     1      -3.982   1.810  -1.228  0.00  0.00    +0.100 C 
ATOM      4  C   UNL     1      -4.505   1.871  -2.644  0.00  0.00    +0.048 C 
ATOM      5  C   UNL     1      -5.777   2.688  -2.741  0.00  0.00    +0.146 C 
ATOM      6  C   UNL     1      -5.612   4.076  -2.188  0.00  0.00    +0.165 C 
ATOM      7  C   UNL     1      -4.995   4.159  -0.812  0.00  0.00    +0.124 C 
ATOM      8  N   UNL     1      -4.216   5.419  -0.736  0.00  0.00    -0.319 N 
ATOM      9  C   UNL     1      -2.916   5.115  -0.607  0.00  0.00    +0.138 C 
ATOM     10  S   UNL     1      -1.677   6.297  -0.577  0.00  0.00    -0.018 S 
ATOM     11  H   UNL     1      -4.585   6.315  -0.773  0.00  0.00    +0.148 HD
ENDROOT
BRANCH   1  17
ATOM     12  C   UNL     1      -0.520   3.312  -1.479  0.00  0.00    +0.025 A 
ATOM     13  C   UNL     1       0.721   2.711  -1.401  0.00  0.00    +0.022 A 
ATOM     14  C   UNL     1       1.078   2.002  -0.267  0.00  0.00    +0.041 A 
ATOM     15  C   UNL     1       0.190   1.887   0.788  0.00  0.00    +0.022 A 
ATOM     16  C   UNL     1      -1.055   2.481   0.713  0.00  0.00    +0.025 A 
ATOM     17  C   UNL     1      -1.415   3.193  -0.423  0.00  0.00    +0.036 A 
ATOM     18 CL   UNL     1       2.642   1.255  -0.169  0.00  0.00    -0.084 Cl
ENDBRANCH   1  17
BRANCH   3  19
ATOM     19  C   UNL     1      -2.575   1.272  -1.273  0.00  0.00    +0.218 C 
ATOM     20  O   UNL     1      -1.819   1.622  -2.155  0.00  0.00    -0.275 OA
ATOM     21  N   UNL     1      -2.155   0.403  -0.332  0.00  0.00    -0.312 N 
ATOM     22  H   UNL     1      -2.759   0.124   0.374  0.00  0.00    +0.149 HD
BRANCH  21  23
ATOM     23  C   UNL     1      -0.788  -0.121  -0.376  0.00  0.00    +0.073 C 
ATOM     24  C   UNL     1      -0.610  -1.638  -0.290  0.00  0.00    +0.024 C 
ATOM     25  C   UNL     1      -0.233  -0.755   0.901  0.00  0.00    +0.024 C 
ENDBRANCH  21  23
ENDBRANCH   3  19
BRANCH   6  26
ATOM     26  O   UNL     1      -4.791   4.814  -3.095  0.00  0.00    -0.387 OA
ATOM     27  H   UNL     1      -5.114   4.814  -4.007  0.00  0.00    +0.210 HD
ENDBRANCH   6  26
BRANCH   5  28
ATOM     28  O   UNL     1      -6.810   2.025  -2.010  0.00  0.00    -0.389 OA
ATOM     29  H   UNL     1      -7.011   1.135  -2.332  0.00  0.00    +0.210 HD
ENDBRANCH   5  28
TORSDOF 5
