REMARK  Name = ZINC04858709
REMARK  12 active torsions:
REMARK  status: ('A' for Active; 'I' for Inactive)
REMARK    1  A    between atoms: C_1  and  C_2
REMARK    2  A    between atoms: C_2  and  O_3
REMARK    3  A    between atoms: O_3  and  C_4
REMARK    4  A    between atoms: C_9  and  N_10
REMARK    5  A    between atoms: N_10  and  C_11
REMARK    6  A    between atoms: C_11  and  N_13
REMARK    7  A    between atoms: N_13  and  C_14
REMARK    8  A    between atoms: C_14  and  C_15
REMARK    9  A    between atoms: C_15  and  N_16
REMARK   10  A    between atoms: N_16  and  C_17
REMARK   11  A    between atoms: C_18  and  C_27
REMARK   12  A    between atoms: C_24  and  C_26
REMARK                            x       y       z     vdW  Elec       q    Type
REMARK                         _______ _______ _______ _____ _____    ______ ____
ROOT
ATOM      1  C   UNL     1       3.690   2.329   0.397  0.00  0.00    +0.121 C 
ENDROOT
BRANCH   1   2
ATOM      2  N   UNL     1       2.431   1.631   0.672  0.00  0.00    -0.328 N 
ATOM      3  H   UNL     1       2.435   0.679   0.856  0.00  0.00    +0.147 HD
BRANCH   2   4
ATOM      4  C   UNL     1       1.238   2.330   0.670  0.00  0.00    +0.114 A 
ATOM      5  C   UNL     1       0.030   1.642   0.938  0.00  0.00    +0.090 A 
ATOM      6  C   UNL     1      -1.168   2.342   0.931  0.00  0.00    +0.032 A 
ATOM      7  C   UNL     1      -1.128   3.722   0.664  0.00  0.00    -0.000 A 
ATOM      8  C   UNL     1      -2.303   4.492   0.646  0.00  0.00    +0.010 A 
ATOM      9  C   UNL     1      -2.231   5.825   0.379  0.00  0.00    +0.001 A 
ATOM     10  C   UNL     1      -1.005   6.437   0.123  0.00  0.00    +0.005 A 
ATOM     11  C   UNL     1       0.153   5.721   0.133  0.00  0.00    -0.027 A 
ATOM     12  C   UNL     1       0.120   4.342   0.405  0.00  0.00    +0.051 A 
ATOM     13  C   UNL     1       1.466   6.405  -0.146  0.00  0.00    +0.046 C 
ATOM     14  N   UNL     1       1.317   3.657   0.404  0.00  0.00    -0.342 N 
ATOM     15  H   UNL     1       2.212   4.123   0.214  0.00  0.00    +0.167 HD
BRANCH   5  16
ATOM     16  C   UNL     1       0.045   0.235   1.208  0.00  0.00    +0.103 C 
ATOM     17  N   UNL     1       0.056  -0.880   1.422  0.00  0.00    -0.191 NA
ENDBRANCH   5  16
ENDBRANCH   2   4
ENDBRANCH   1   2
BRANCH   1  18
ATOM     18  C   UNL     1       4.850   1.334   0.461  0.00  0.00    +0.122 C 
BRANCH  18  19
ATOM     19  N   UNL     1       6.108   2.032   0.185  0.00  0.00    -0.325 N 
ATOM     20  H   UNL     1       6.104   2.985   0.001  0.00  0.00    +0.148 HD
BRANCH  19  21
ATOM     21  C   UNL     1       7.271   1.351   0.187  0.00  0.00    +0.135 C 
ATOM     22  S   UNL     1       7.278  -0.330   0.512  0.00  0.00    -0.019 S 
BRANCH  21  23
ATOM     23  N   UNL     1       8.428   1.993  -0.066  0.00  0.00    -0.294 N 
ATOM     24  H   UNL     1       8.419   2.932  -0.311  0.00  0.00    +0.154 HD
BRANCH  23  30
ATOM     25  C   UNL     1      10.714   1.866   0.721  0.00  0.00    +0.142 A 
ATOM     26  C   UNL     1      11.915   1.181   0.808  0.00  0.00    +0.047 A 
ATOM     27  C   UNL     1      12.052  -0.055   0.204  0.00  0.00    +0.004 A 
ATOM     28  C   UNL     1      10.992  -0.612  -0.486  0.00  0.00    +0.002 A 
ATOM     29  C   UNL     1       9.788   0.062  -0.573  0.00  0.00    +0.027 A 
ATOM     30  C   UNL     1       9.646   1.306   0.025  0.00  0.00    +0.075 A 
BRANCH  25  31
ATOM     31  O   UNL     1      10.578   3.082   1.315  0.00  0.00    -0.490 OA
BRANCH  31  33
ATOM     32  C   UNL     1      11.375   4.962   2.608  0.00  0.00    +0.048 C 
ATOM     33  C   UNL     1      11.716   3.595   2.011  0.00  0.00    +0.226 C 
ENDBRANCH  31  33
ENDBRANCH  25  31
ENDBRANCH  23  30
ENDBRANCH  21  23
ENDBRANCH  19  21
ENDBRANCH  18  19
ENDBRANCH   1  18
TORSDOF 10
