REMARK  Name = ZINC58853720
REMARK  6 active torsions:
REMARK  status: ('A' for Active; 'I' for Inactive)
REMARK    1  A    between atoms: C_1  and  C_2
REMARK    2  A    between atoms: C_3  and  C_7
REMARK    3  A    between atoms: N_9  and  C_10
REMARK    4  A    between atoms: C_10  and  C_11
REMARK    5  A    between atoms: N_13  and  C_14
REMARK    6  A    between atoms: C_18  and  C_20
REMARK                            x       y       z     vdW  Elec       q    Type
REMARK                         _______ _______ _______ _____ _____    ______ ____
ROOT
ATOM      1  C   UNL     1      -5.768  -2.152   0.016  0.00  0.00    +0.234 C 
ATOM      2  O   UNL     1      -5.269  -3.257  -0.001  0.00  0.00    -0.274 OA
ATOM      3  N   UNL     1      -7.109  -2.018   0.026  0.00  0.00    -0.284 N 
ATOM      4  H   UNL     1      -7.508  -1.138   0.107  0.00  0.00    +0.155 HD
ENDROOT
BRANCH   3   5
ATOM      5  C   UNL     1      -7.926  -3.150  -0.083  0.00  0.00    +0.034 A 
ATOM      6  C   UNL     1      -7.535  -4.347   0.505  0.00  0.00    +0.025 A 
ATOM      7  C   UNL     1      -8.338  -5.468   0.402  0.00  0.00    +0.022 A 
ATOM      8  C   UNL     1      -9.533  -5.405  -0.288  0.00  0.00    +0.053 A 
ATOM      9  C   UNL     1      -9.934  -4.206  -0.882  0.00  0.00    +0.057 A 
ATOM     10  C   UNL     1      -9.126  -3.074  -0.771  0.00  0.00    +0.037 A 
ATOM     11 CL   UNL     1     -10.537  -6.816  -0.416  0.00  0.00    -0.083 Cl
BRANCH   9  12
ATOM     12  C   UNL     1     -11.212  -4.135  -1.621  0.00  0.00    +0.243 C 
ATOM     13  O   UNL     1     -11.917  -5.121  -1.712  0.00  0.00    -0.270 OA
ATOM     14  N   UNL     1     -11.596  -2.977  -2.193  0.00  0.00    -0.325 N 
ATOM     15  H   UNL     1     -11.034  -2.190  -2.121  0.00  0.00    +0.145 HD
ATOM     16  H   UNL     1     -12.435  -2.931  -2.678  0.00  0.00    +0.145 HD
ENDBRANCH   9  12
ENDBRANCH   3   5
BRANCH   1  17
ATOM     17  C   UNL     1      -4.888  -0.928   0.028  0.00  0.00    +0.200 C 
BRANCH  17  20
ATOM     18  C   UNL     1      -2.509  -0.405   0.022  0.00  0.00    +0.248 C 
ATOM     19  O   UNL     1      -2.798   0.776   0.039  0.00  0.00    -0.270 OA
ATOM     20  N   UNL     1      -3.482  -1.337   0.015  0.00  0.00    -0.303 N 
ATOM     21  H   UNL     1      -3.251  -2.279   0.001  0.00  0.00    +0.150 HD
BRANCH  18  24
ATOM     22  C   UNL     1      -0.019   1.503   0.033  0.00  0.00    +0.087 C 
ATOM     23  C   UNL     1       0.002  -0.003   0.013  0.00  0.00    +0.114 A 
ATOM     24  C   UNL     1      -1.093  -0.817   0.008  0.00  0.00    +0.077 A 
ATOM     25  C   UNL     1      -0.567  -2.189  -0.012  0.00  0.00    +0.054 A 
ATOM     26  C   UNL     1       0.769  -2.072  -0.018  0.00  0.00    +0.196 A 
ATOM     27  O   UNL     1       1.096  -0.770  -0.008  0.00  0.00    -0.467 OA
ENDBRANCH  18  24
ENDBRANCH  17  20
ENDBRANCH   1  17
TORSDOF 5
