REMARK  Name = ZINC05206858
REMARK  9 active torsions:
REMARK  status: ('A' for Active; 'I' for Inactive)
REMARK    1  A    between atoms: C_1  and  C_2
REMARK    2  A    between atoms: C_4  and  C_23
REMARK    3  A    between atoms: N_5  and  C_7
REMARK    4  A    between atoms: C_7  and  C_8
REMARK    5  A    between atoms: N_10  and  N_11
REMARK    6  A    between atoms: C_12  and  C_13
REMARK    7  A    between atoms: C_15  and  O_21
REMARK    8  A    between atoms: C_16  and  O_20
REMARK    9  A    between atoms: O_21  and  C_22
REMARK                            x       y       z     vdW  Elec       q    Type
REMARK                         _______ _______ _______ _____ _____    ______ ____
ROOT
ATOM      1  N   UNL     1      -0.966   1.736  -3.578  0.00  0.00    -0.188 NA
ATOM      2  C   UNL     1      -0.530   1.435  -4.763  0.00  0.00    +0.138 C 
ENDROOT
BRANCH   2   3
ATOM      3  C   UNL     1      -1.243   1.924  -5.957  0.00  0.00    -0.001 A 
ATOM      4  C   UNL     1      -0.771   1.605  -7.234  0.00  0.00    +0.059 A 
ATOM      5  C   UNL     1      -1.446   2.061  -8.350  0.00  0.00    +0.163 A 
ATOM      6  C   UNL     1      -2.588   2.845  -8.202  0.00  0.00    +0.173 A 
ATOM      7  C   UNL     1      -3.054   3.167  -6.935  0.00  0.00    +0.063 A 
ATOM      8  C   UNL     1      -2.388   2.711  -5.816  0.00  0.00    +0.028 A 
ATOM      9 BR   UNL     1      -4.605   4.231  -6.742  0.00  0.00    -0.046 Br
BRANCH   6  10
ATOM     10  O   UNL     1      -3.248   3.296  -9.302  0.00  0.00    -0.503 OA
ATOM     11  H   UNL     1      -2.939   4.155  -9.621  0.00  0.00    +0.292 HD
ENDBRANCH   6  10
BRANCH   5  12
ATOM     12  O   UNL     1      -0.993   1.747  -9.594  0.00  0.00    -0.491 OA
ATOM     13  C   UNL     1       0.183   0.939  -9.671  0.00  0.00    +0.277 C 
ENDBRANCH   5  12
ENDBRANCH   2   3
BRANCH   1  16
ATOM     14  C   UNL     1      -0.742   1.585  -1.213  0.00  0.00    +0.254 C 
ATOM     15  O   UNL     1      -1.736   2.268  -1.088  0.00  0.00    -0.272 OA
ATOM     16  N   UNL     1      -0.288   1.272  -2.443  0.00  0.00    -0.205 N 
ATOM     17  H   UNL     1       0.507   0.726  -2.543  0.00  0.00    +0.177 HD
BRANCH  14  18
ATOM     18  C   UNL     1      -0.013   1.086   0.008  0.00  0.00    +0.241 C 
BRANCH  18  23
ATOM     19  C   UNL     1      -3.154   1.279   3.918  0.00  0.00    +0.067 C 
ATOM     20  C   UNL     1      -2.082   1.622   2.917  0.00  0.00    +0.060 A 
ATOM     21  C   UNL     1      -1.294   2.778   2.923  0.00  0.00    +0.047 A 
ATOM     22  C   UNL     1      -0.449   2.711   1.869  0.00  0.00    +0.037 A 
ATOM     23  N   UNL     1      -0.698   1.558   1.213  0.00  0.00    -0.259 N 
ATOM     24  N   UNL     1      -1.725   0.890   1.893  0.00  0.00    -0.176 NA
ATOM     25  C   UNL     1       0.585   3.741   1.491  0.00  0.00    +0.065 C 
ENDBRANCH  18  23
ENDBRANCH  14  18
ENDBRANCH   1  16
TORSDOF 6
