REMARK  Name = ZINC67104686
REMARK  6 active torsions:
REMARK  status: ('A' for Active; 'I' for Inactive)
REMARK    1  A    between atoms: C_1  and  C_2
REMARK    2  A    between atoms: C_2  and  C_4
REMARK    3  A    between atoms: C_2  and  N_11
REMARK    4  A    between atoms: C_12  and  C_14
REMARK    5  A    between atoms: C_14  and  N_15
REMARK    6  A    between atoms: C_16  and  C_18
REMARK                            x       y       z     vdW  Elec       q    Type
REMARK                         _______ _______ _______ _____ _____    ______ ____
ROOT
ATOM      1  C   UNL     1       2.880  -1.158  -2.243  0.00  0.00    +0.200 C 
ENDROOT
BRANCH   1   3
ATOM      2  N   UNL     1       0.764  -0.485  -1.153  0.00  0.00    -0.307 N 
ATOM      3  C   UNL     1       2.096  -0.663  -1.055  0.00  0.00    +0.231 C 
ATOM      4  O   UNL     1       2.665  -0.425  -0.010  0.00  0.00    -0.274 OA
ATOM      5  H   UNL     1       0.310  -0.676  -1.989  0.00  0.00    +0.149 HD
BRANCH   2   7
ATOM      6  C   UNL     1       0.009   1.526   0.016  0.00  0.00    +0.033 C 
ATOM      7  C   UNL     1       0.002  -0.004   0.002  0.00  0.00    +0.102 C 
BRANCH   7   8
ATOM      8  C   UNL     1      -1.418  -0.499  -0.092  0.00  0.00    -0.009 A 
ATOM      9  C   UNL     1      -1.976  -0.770  -1.327  0.00  0.00    +0.007 A 
ATOM     10  C   UNL     1      -3.279  -1.224  -1.413  0.00  0.00    +0.000 A 
ATOM     11  C   UNL     1      -4.025  -1.407  -0.264  0.00  0.00    +0.001 A 
ATOM     12  C   UNL     1      -3.468  -1.137   0.972  0.00  0.00    +0.020 A 
ATOM     13  C   UNL     1      -2.162  -0.688   1.059  0.00  0.00    +0.046 A 
ATOM     14 CL   UNL     1      -1.461  -0.354   2.611  0.00  0.00    -0.083 Cl
ENDBRANCH   7   8
ENDBRANCH   2   7
ENDBRANCH   1   3
BRANCH   1  15
ATOM     15  N   UNL     1       4.296  -1.267  -1.883  0.00  0.00    -0.303 N 
ATOM     16  C   UNL     1       5.193  -1.693  -2.795  0.00  0.00    +0.244 C 
ATOM     17  O   UNL     1       4.826  -1.986  -3.916  0.00  0.00    -0.270 OA
ATOM     18  H   UNL     1       4.588  -1.032  -0.988  0.00  0.00    +0.150 HD
BRANCH  16  19
ATOM     19  C   UNL     1       6.622  -1.802  -2.431  0.00  0.00    +0.037 A 
ATOM     20  C   UNL     1       7.046  -1.472  -1.143  0.00  0.00    +0.013 A 
ATOM     21  C   UNL     1       8.379  -1.577  -0.813  0.00  0.00    +0.004 A 
ATOM     22  C   UNL     1       9.303  -2.011  -1.753  0.00  0.00    -0.044 A 
ATOM     23  C   UNL     1       8.888  -2.340  -3.032  0.00  0.00    -0.043 A 
ATOM     24  C   UNL     1       7.552  -2.243  -3.372  0.00  0.00    +0.017 A 
ATOM     25  C   UNL     1      10.079  -2.780  -3.857  0.00  0.00    +0.036 C 
ATOM     26  C   UNL     1      11.315  -2.269  -3.088  0.00  0.00    +0.009 C 
ATOM     27  C   UNL     1      10.799  -2.208  -1.635  0.00  0.00    +0.036 C 
ENDBRANCH  16  19
ENDBRANCH   1  15
TORSDOF 5
