REMARK  Name = ZINC61441015
REMARK  9 active torsions:
REMARK  status: ('A' for Active; 'I' for Inactive)
REMARK    1  A    between atoms: C_1  and  C_2
REMARK    2  A    between atoms: C_9  and  S_11
REMARK    3  A    between atoms: S_11  and  C_12
REMARK    4  A    between atoms: C_12  and  C_13
REMARK    5  A    between atoms: C_13  and  C_14
REMARK    6  A    between atoms: C_14  and  C_15
REMARK    7  A    between atoms: C_14  and  C_16
REMARK    8  A    between atoms: C_14  and  N_19
REMARK    9  A    between atoms: N_19  and  C_20
REMARK                            x       y       z     vdW  Elec       q    Type
REMARK                         _______ _______ _______ _____ _____    ______ ____
ROOT
ATOM      1  C   UNL     1       0.105  -7.035   1.047  0.00  0.00    +0.076 C 
ENDROOT
BRANCH   1   2
ATOM      2  S   UNL     1       0.096  -5.820   2.394  0.00  0.00    -0.088 S 
BRANCH   2  11
ATOM      3  C   UNL     1      -0.018   1.503   0.010  0.00  0.00    +0.044 C 
ATOM      4  C   UNL     1       0.002  -0.004   0.002  0.00  0.00    -0.048 A 
ATOM      5  C   UNL     1       0.006  -0.686  -1.206  0.00  0.00    +0.005 A 
ATOM      6  C   UNL     1       0.024  -2.063  -1.230  0.00  0.00    +0.030 A 
ATOM      7  C   UNL     1       0.040  -2.778  -0.030  0.00  0.00    +0.090 A 
ATOM      8  C   UNL     1       0.037  -2.082   1.190  0.00  0.00    +0.067 A 
ATOM      9  C   UNL     1       0.023  -0.696   1.196  0.00  0.00    +0.031 A 
ATOM     10  N   UNL     1       0.055  -3.047   2.184  0.00  0.00    -0.333 N 
ATOM     11  C   UNL     1       0.069  -4.265   1.566  0.00  0.00    +0.167 A 
ATOM     12  N   UNL     1       0.060  -4.104   0.266  0.00  0.00    -0.222 NA
ATOM     13  H   UNL     1       0.058  -2.887   3.141  0.00  0.00    +0.168 HD
ENDBRANCH   2  11
ENDBRANCH   1   2
BRANCH   1  14
ATOM     14  C   UNL     1       0.129  -8.447   1.634  0.00  0.00    +0.007 C 
BRANCH  14  15
ATOM     15  C   UNL     1       0.137  -9.472   0.497  0.00  0.00    +0.007 C 
ATOM     16  C   UNL     1       1.378  -9.260  -0.372  0.00  0.00    -0.001 C 
BRANCH  15  17
ATOM     17  C   UNL     1      -1.101  -9.298  -0.344  0.00  0.00    +0.199 C 
ATOM     18  O   UNL     1      -1.062  -8.616  -1.347  0.00  0.00    -0.278 OA
ATOM     19  N   UNL     1      -2.252  -9.900   0.017  0.00  0.00    -0.330 N 
ATOM     20  H   UNL     1      -2.283 -10.445   0.818  0.00  0.00    +0.145 HD
ATOM     21  H   UNL     1      -3.049  -9.788  -0.525  0.00  0.00    +0.145 HD
ENDBRANCH  15  17
BRANCH  15  22
ATOM     22  N   UNL     1       0.159 -10.828   1.061  0.00  0.00    +0.386 N 
ATOM     23  C   UNL     1       0.167 -11.812  -0.030  0.00  0.00    -0.099 C 
ATOM     24  H   UNL     1       0.988 -10.945   1.624  0.00  0.00    -0.085 HD
ATOM     25  H   UNL     1      -0.659 -10.968   1.634  0.00  0.00    -0.085 HD
ENDBRANCH  15  22
ENDBRANCH  14  15
ENDBRANCH   1  14
TORSDOF 6
