REMARK  Name = ZINC04150072
REMARK  6 active torsions:
REMARK  status: ('A' for Active; 'I' for Inactive)
REMARK    1  A    between atoms: C_1  and  C_2
REMARK    2  A    between atoms: N_4  and  C_5
REMARK    3  A    between atoms: C_8  and  S_11
REMARK    4  A    between atoms: S_11  and  N_14
REMARK    5  A    between atoms: N_14  and  C_15
REMARK    6  A    between atoms: C_31  and  C_33
REMARK                            x       y       z     vdW  Elec       q    Type
REMARK                         _______ _______ _______ _____ _____    ______ ____
ROOT
ATOM      1  C   UNL     1      -3.009   2.937  -4.907  0.00  0.00    +0.112 A 
ATOM      2  C   UNL     1      -2.874   1.802  -4.156  0.00  0.00    +0.031 A 
ATOM      3  C   UNL     1      -3.636   1.669  -2.989  0.00  0.00    +0.024 A 
ATOM      4  C   UNL     1      -4.515   2.637  -2.621  0.00  0.00    +0.027 A 
ATOM      5  N   UNL     1      -4.715   3.721  -3.411  0.00  0.00    -0.310 N 
ATOM      6  C   UNL     1      -3.927   3.923  -4.495  0.00  0.00    +0.274 A 
ATOM      7  O   UNL     1      -4.013   4.968  -5.120  0.00  0.00    -0.266 OA
ATOM      8  C   UNL     1      -5.799   4.680  -3.192  0.00  0.00    +0.130 C 
ATOM      9  C   UNL     1      -6.336   4.633  -1.774  0.00  0.00    +0.027 C 
ATOM     10  C   UNL     1      -6.589   3.183  -1.361  0.00  0.00    +0.018 C 
ATOM     11  C   UNL     1      -5.244   2.453  -1.311  0.00  0.00    +0.054 C 
ATOM     12  C   UNL     1      -4.388   3.091  -0.210  0.00  0.00    +0.117 C 
ATOM     13  N   UNL     1      -4.212   4.512  -0.552  0.00  0.00    -0.297 N 
ATOM     14  C   UNL     1      -5.408   5.329  -0.788  0.00  0.00    +0.113 C 
ATOM     15  C   UNL     1      -2.980   5.049  -0.650  0.00  0.00    +0.247 C 
ATOM     16  O   UNL     1      -1.998   4.344  -0.525  0.00  0.00    -0.270 OA
ENDROOT
BRANCH  15  17
ATOM     17  C   UNL     1      -2.823   6.495  -0.911  0.00  0.00    +0.037 A 
ATOM     18  C   UNL     1      -3.753   7.405  -0.376  0.00  0.00    +0.013 A 
ATOM     19  C   UNL     1      -3.633   8.738  -0.606  0.00  0.00    +0.009 A 
ATOM     20  C   UNL     1      -2.563   9.226  -1.378  0.00  0.00    -0.018 A 
ATOM     21  C   UNL     1      -2.415  10.601  -1.623  0.00  0.00    +0.008 A 
ATOM     22  C   UNL     1      -1.369  11.044  -2.373  0.00  0.00    +0.001 A 
ATOM     23  C   UNL     1      -0.438  10.153  -2.904  0.00  0.00    +0.001 A 
ATOM     24  C   UNL     1      -0.548   8.814  -2.687  0.00  0.00    +0.008 A 
ATOM     25  C   UNL     1      -1.616   8.319  -1.917  0.00  0.00    -0.017 A 
ATOM     26  C   UNL     1      -1.759   6.944  -1.674  0.00  0.00    +0.021 A 
ENDBRANCH  15  17
BRANCH   1  27
ATOM     27  N   UNL     1      -2.247   3.115  -6.069  0.00  0.00    -0.211 N 
ATOM     28  H   UNL     1      -2.379   3.903  -6.619  0.00  0.00    +0.174 HD
BRANCH  27  29
ATOM     29  S   UNL     1      -1.121   1.981  -6.502  0.00  0.00    +0.072 S 
ATOM     30  O   UNL     1      -0.482   2.471  -7.674  0.00  0.00    -0.150 OA
ATOM     31  O   UNL     1      -0.400   1.652  -5.323  0.00  0.00    -0.150 OA
BRANCH  29  35
ATOM     32  C   UNL     1      -3.379  -1.750  -7.723  0.00  0.00    +0.033 A 
ATOM     33  C   UNL     1      -3.244  -0.695  -8.616  0.00  0.00    +0.025 A 
ATOM     34  C   UNL     1      -2.554   0.442  -8.241  0.00  0.00    +0.030 A 
ATOM     35  C   UNL     1      -2.000   0.530  -6.977  0.00  0.00    +0.109 A 
ATOM     36  C   UNL     1      -2.128  -0.521  -6.088  0.00  0.00    +0.030 A 
ATOM     37  C   UNL     1      -2.820  -1.658  -6.455  0.00  0.00    +0.025 A 
BRANCH  32  41
ATOM     38  C   UNL     1      -4.877  -4.501  -9.809  0.00  0.00    +0.109 C 
ATOM     39  C   UNL     1      -4.036  -3.327  -9.378  0.00  0.00    +0.214 C 
ATOM     40  O   UNL     1      -3.323  -2.765 -10.182  0.00  0.00    -0.276 OA
ATOM     41  N   UNL     1      -4.077  -2.902  -8.100  0.00  0.00    -0.286 N 
ATOM     42  H   UNL     1      -4.590  -3.396  -7.441  0.00  0.00    +0.155 HD
ENDBRANCH  32  41
ENDBRANCH  29  35
ENDBRANCH  27  29
ENDBRANCH   1  27
TORSDOF 5
