REMARK  Name = ZINC31671650
REMARK  6 active torsions:
REMARK  status: ('A' for Active; 'I' for Inactive)
REMARK    1  A    between atoms: C_1  and  C_2
REMARK    2  A    between atoms: C_9  and  N_13
REMARK    3  A    between atoms: C_10  and  C_11
REMARK    4  A    between atoms: C_14  and  C_16
REMARK    5  A    between atoms: C_16  and  N_17
REMARK    6  A    between atoms: C_19  and  N_24
REMARK                            x       y       z     vdW  Elec       q    Type
REMARK                         _______ _______ _______ _____ _____    ______ ____
ROOT
ATOM      1  N   UNL     1       1.941  -5.828   1.697  0.00  0.00    -0.277 N 
ATOM      2  C   UNL     1       2.252  -6.088   2.983  0.00  0.00    +0.237 C 
ATOM      3  O   UNL     1       2.232  -5.196   3.804  0.00  0.00    -0.273 OA
ATOM      4  H   UNL     1       1.957  -6.541   1.040  0.00  0.00    +0.155 HD
ENDROOT
BRANCH   1  12
ATOM      5  C   UNL     1      -0.019   1.526   0.010  0.00  0.00    +0.008 C 
ATOM      6  C   UNL     1       0.002  -0.004   0.002  0.00  0.00    -0.009 C 
ATOM      7  C   UNL     1       0.724  -0.500  -1.254  0.00  0.00    +0.008 C 
ATOM      8  C   UNL     1       0.537  -2.012  -1.399  0.00  0.00    +0.037 C 
ATOM      9  C   UNL     1       0.935  -2.680  -0.092  0.00  0.00    -0.018 A 
ATOM     10  C   UNL     1       1.019  -1.977   1.059  0.00  0.00    -0.004 A 
ATOM     11  S   UNL     1       1.508  -3.165   2.275  0.00  0.00    -0.077 S 
ATOM     12  C   UNL     1       1.599  -4.539   1.313  0.00  0.00    +0.090 A 
ATOM     13  C   UNL     1       1.254  -4.090   0.049  0.00  0.00    +0.084 A 
ATOM     14  C   UNL     1       0.750  -0.515   1.242  0.00  0.00    +0.046 C 
BRANCH  13  15
ATOM     15  C   UNL     1       1.212  -4.980  -1.072  0.00  0.00    +0.102 C 
ATOM     16  N   UNL     1       1.180  -5.685  -1.962  0.00  0.00    -0.191 NA
ENDBRANCH  13  15
ENDBRANCH   1  12
BRANCH   2  17
ATOM     17  C   UNL     1       2.624  -7.488   3.399  0.00  0.00    +0.220 C 
BRANCH  17  18
ATOM     18  N   UNL     1       2.915  -7.509   4.835  0.00  0.00    -0.304 N 
ATOM     19  C   UNL     1       4.181  -7.279   5.267  0.00  0.00    +0.122 A 
ATOM     20  C   UNL     1       4.475  -7.293   6.588  0.00  0.00    +0.142 A 
ATOM     21  C   UNL     1       3.465  -7.548   7.526  0.00  0.00    +0.039 A 
ATOM     22  C   UNL     1       2.193  -7.778   7.091  0.00  0.00    +0.072 A 
ATOM     23  C   UNL     1       1.922  -7.750   5.712  0.00  0.00    +0.252 A 
ATOM     24  O   UNL     1       0.787  -7.950   5.309  0.00  0.00    -0.268 OA
BRANCH  20  25
ATOM     25  N   UNL     1       5.861  -7.042   7.042  0.00  0.00    +0.058 N 
ATOM     26  O   UNL     1       6.731  -6.823   6.232  0.00  0.00    -0.126 OA
ATOM     27  O   UNL     1       6.122  -7.055   8.222  0.00  0.00    -0.126 OA
ENDBRANCH  20  25
ENDBRANCH  17  18
ENDBRANCH   2  17
TORSDOF 5
