REMARK  Name = ZINC19638197
REMARK  4 active torsions:
REMARK  status: ('A' for Active; 'I' for Inactive)
REMARK    1  A    between atoms: C_3  and  C_7
REMARK    2  A    between atoms: N_8  and  N_9
REMARK    3  A    between atoms: C_10  and  C_12
REMARK    4  A    between atoms: C_14  and  N_20
REMARK                            x       y       z     vdW  Elec       q    Type
REMARK                         _______ _______ _______ _____ _____    ______ ____
ROOT
ATOM      1  N   UNL     1       6.015   1.989  -0.046  0.00  0.00    -0.202 N 
ATOM      2  C   UNL     1       7.155   1.271  -0.060  0.00  0.00    +0.283 C 
ATOM      3  O   UNL     1       7.109   0.056  -0.066  0.00  0.00    -0.267 OA
ATOM      4  H   UNL     1       6.052   2.958  -0.041  0.00  0.00    +0.178 HD
ENDROOT
BRANCH   2   5
ATOM      5  C   UNL     1       8.464   1.961  -0.070  0.00  0.00    +0.149 A 
ATOM      6  C   UNL     1       9.638   1.213  -0.091  0.00  0.00    +0.094 A 
ATOM      7  C   UNL     1      10.864   1.879  -0.099  0.00  0.00    +0.067 A 
ATOM      8  C   UNL     1      10.860   3.273  -0.086  0.00  0.00    +0.100 A 
ATOM      9  C   UNL     1       9.649   3.947  -0.066  0.00  0.00    +0.150 A 
ATOM     10  N   UNL     1       8.508   3.290  -0.063  0.00  0.00    -0.228 NA
ATOM     11 CL   UNL     1       9.637   5.683  -0.049  0.00  0.00    -0.060 Cl
ATOM     12 CL   UNL     1      12.355   4.155  -0.095  0.00  0.00    -0.078 Cl
ATOM     13 CL   UNL     1       9.578  -0.522  -0.105  0.00  0.00    -0.079 Cl
BRANCH   7  14
ATOM     14  N   UNL     1      12.063   1.169  -0.119  0.00  0.00    -0.356 N 
ATOM     15  H   UNL     1      12.052   0.199  -0.128  0.00  0.00    +0.142 HD
ATOM     16  H   UNL     1      12.908   1.644  -0.125  0.00  0.00    +0.142 HD
ENDBRANCH   7  14
ENDBRANCH   2   5
BRANCH   1  18
ATOM     17  C   UNL     1       3.678   2.026  -0.023  0.00  0.00    +0.139 C 
ATOM     18  N   UNL     1       4.776   1.335  -0.037  0.00  0.00    -0.187 NA
BRANCH  17  21
ATOM     19  C   UNL     1      -0.017   1.379   0.010  0.00  0.00    +0.020 A 
ATOM     20  C   UNL     1       1.180   2.073   0.002  0.00  0.00    +0.012 A 
ATOM     21  C   UNL     1       2.373   1.339  -0.013  0.00  0.00    +0.013 A 
ATOM     22  C   UNL     1       2.306  -0.057  -0.020  0.00  0.00    +0.120 A 
ATOM     23  N   UNL     1       1.141  -0.670  -0.012  0.00  0.00    -0.263 NA
ATOM     24  C   UNL     1       0.002  -0.004   0.002  0.00  0.00    +0.111 A 
ENDBRANCH  17  21
ENDBRANCH   1  18
TORSDOF 4
