REMARK  Name = ZINC05158973
REMARK  10 active torsions:
REMARK  status: ('A' for Active; 'I' for Inactive)
REMARK    1  A    between atoms: C_1  and  C_2
REMARK    2  A    between atoms: C_2  and  C_31
REMARK    3  A    between atoms: C_3  and  C_4
REMARK    4  A    between atoms: C_4  and  C_5
REMARK    5  A    between atoms: C_8  and  O_17
REMARK    6  A    between atoms: C_12  and  C_15
REMARK    7  A    between atoms: C_12  and  C_16
REMARK    8  A    between atoms: C_20  and  C_23
REMARK    9  A    between atoms: C_26  and  O_30
REMARK   10  A    between atoms: C_28  and  O_29
REMARK                            x       y       z     vdW  Elec       q    Type
REMARK                         _______ _______ _______ _____ _____    ______ ____
ROOT
ATOM      1  C   UNL     1      -0.864  -0.562   3.381  0.00  0.00    +0.042 A 
ATOM      2  C   UNL     1      -2.186  -0.131   3.398  0.00  0.00    +0.149 A 
ATOM      3  C   UNL     1      -3.103  -0.739   4.276  0.00  0.00    +0.107 A 
ATOM      4  C   UNL     1      -2.693  -1.763   5.138  0.00  0.00    +0.142 A 
ATOM      5  C   UNL     1      -1.366  -2.181   5.107  0.00  0.00    +0.059 A 
ATOM      6  C   UNL     1      -0.455  -1.580   4.219  0.00  0.00    +0.139 A 
ATOM      7  O   UNL     1       0.830  -2.018   4.212  0.00  0.00    -0.481 OA
ATOM      8  C   UNL     1       1.376  -2.452   5.457  0.00  0.00    +0.124 C 
ATOM      9  C   UNL     1       0.432  -3.399   6.149  0.00  0.00    +0.020 C 
ATOM     10  C   UNL     1      -0.880  -3.260   5.992  0.00  0.00    +0.015 C 
ATOM     11  C   UNL     1       2.708  -3.163   5.204  0.00  0.00    +0.060 C 
ATOM     12  C   UNL     1       1.617  -1.236   6.354  0.00  0.00    +0.060 C 
ATOM     13  C   UNL     1      -4.499  -0.271   4.255  0.00  0.00    +0.204 A 
ATOM     14  O   UNL     1      -5.298  -0.579   5.123  0.00  0.00    -0.286 OA
ATOM     15  C   UNL     1      -4.873   0.594   3.119  0.00  0.00    +0.068 A 
ATOM     16  C   UNL     1      -3.879   1.103   2.346  0.00  0.00    +0.208 A 
ATOM     17  O   UNL     1      -2.587   0.865   2.583  0.00  0.00    -0.462 OA
ENDROOT
BRANCH  15  18
ATOM     18  C   UNL     1      -6.295   0.900   2.829  0.00  0.00    +0.030 A 
ATOM     19  C   UNL     1      -7.114  -0.067   2.250  0.00  0.00    +0.016 A 
ATOM     20  C   UNL     1      -8.437   0.219   1.982  0.00  0.00    +0.046 A 
ATOM     21  C   UNL     1      -8.956   1.470   2.288  0.00  0.00    +0.120 A 
ATOM     22  C   UNL     1      -8.147   2.438   2.865  0.00  0.00    +0.091 A 
ATOM     23  C   UNL     1      -6.820   2.158   3.143  0.00  0.00    +0.128 A 
BRANCH  23  24
ATOM     24  O   UNL     1      -6.029   3.103   3.712  0.00  0.00    -0.506 OA
ATOM     25  H   UNL     1      -5.574   3.671   3.076  0.00  0.00    +0.292 HD
ENDBRANCH  23  24
BRANCH  21  26
ATOM     26  O   UNL     1     -10.259   1.746   2.022  0.00  0.00    -0.507 OA
ATOM     27  H   UNL     1     -10.862   1.536   2.748  0.00  0.00    +0.292 HD
ENDBRANCH  21  26
ENDBRANCH  15  18
BRANCH   4  28
ATOM     28  O   UNL     1      -3.576  -2.339   5.991  0.00  0.00    -0.505 OA
ATOM     29  H   UNL     1      -4.036  -3.106   5.622  0.00  0.00    +0.292 HD
ENDBRANCH   4  28
BRANCH   1  30
ATOM     30  C   UNL     1       0.123   0.078   2.439  0.00  0.00    +0.069 C 
BRANCH  30  33
ATOM     31  C   UNL     1      -0.166   1.492   0.017  0.00  0.00    +0.038 C 
ATOM     32  C   UNL     1      -0.068  -0.012   0.007  0.00  0.00    -0.079 C 
ATOM     33  C   UNL     1       0.121  -0.664   1.128  0.00  0.00    -0.023 C 
ATOM     34  C   UNL     1      -0.187  -0.767  -1.292  0.00  0.00    +0.038 C 
ENDBRANCH  30  33
ENDBRANCH   1  30
TORSDOF 6
