REMARK  Name = ZINC04421702
REMARK  6 active torsions:
REMARK  status: ('A' for Active; 'I' for Inactive)
REMARK    1  A    between atoms: C_4  and  N_7
REMARK    2  A    between atoms: C_8  and  C_9
REMARK    3  A    between atoms: N_15  and  N_16
REMARK    4  A    between atoms: C_17  and  C_18
REMARK    5  A    between atoms: C_21  and  O_25
REMARK    6  A    between atoms: C_23  and  O_24
REMARK                            x       y       z     vdW  Elec       q    Type
REMARK                         _______ _______ _______ _____ _____    ______ ____
ROOT
ATOM      1  N   UNL     1       4.720  -0.208  -0.143  0.00  0.00    -0.229 NA
ATOM      2  C   UNL     1       3.682  -0.827   0.370  0.00  0.00    +0.164 C 
ATOM      3  N   UNL     1       3.531  -2.182   0.188  0.00  0.00    -0.219 N 
ATOM      4  H   UNL     1       2.764  -2.639   0.566  0.00  0.00    +0.176 HD
ENDROOT
BRANCH   1   8
ATOM      5  C   UNL     1       4.880   3.926  -0.125  0.00  0.00    +0.000 A 
ATOM      6  C   UNL     1       5.842   3.197   0.552  0.00  0.00    +0.002 A 
ATOM      7  C   UNL     1       5.795   1.818   0.550  0.00  0.00    +0.028 A 
ATOM      8  C   UNL     1       4.772   1.158  -0.137  0.00  0.00    +0.066 A 
ATOM      9  C   UNL     1       3.807   1.901  -0.822  0.00  0.00    +0.028 A 
ATOM     10  C   UNL     1       3.864   3.279  -0.807  0.00  0.00    +0.002 A 
ENDBRANCH   1   8
BRANCH   2  11
ATOM     11  C   UNL     1       2.675  -0.067   1.143  0.00  0.00    +0.105 A 
ATOM     12  C   UNL     1       3.048   1.105   1.800  0.00  0.00    +0.031 A 
ATOM     13  C   UNL     1       2.094   1.804   2.520  0.00  0.00    +0.004 A 
ATOM     14  C   UNL     1       0.799   1.309   2.559  0.00  0.00    +0.020 A 
ATOM     15  C   UNL     1       0.499   0.138   1.883  0.00  0.00    +0.111 A 
ATOM     16  N   UNL     1       1.424  -0.508   1.206  0.00  0.00    -0.252 NA
ENDBRANCH   2  11
BRANCH   3  17
ATOM     17  N   UNL     1       4.485  -2.901  -0.544  0.00  0.00    -0.189 NA
ATOM     18  C   UNL     1       4.342  -4.181  -0.716  0.00  0.00    +0.142 C 
BRANCH  18  19
ATOM     19  C   UNL     1       5.345  -4.937  -1.486  0.00  0.00    +0.037 A 
ATOM     20  C   UNL     1       5.197  -6.315  -1.667  0.00  0.00    +0.032 A 
ATOM     21  C   UNL     1       6.134  -7.017  -2.394  0.00  0.00    +0.060 A 
ATOM     22  C   UNL     1       7.234  -6.362  -2.936  0.00  0.00    +0.134 A 
ATOM     23  C   UNL     1       7.392  -4.995  -2.756  0.00  0.00    +0.092 A 
ATOM     24  C   UNL     1       6.454  -4.278  -2.034  0.00  0.00    +0.129 A 
ATOM     25 BR   UNL     1       5.928  -8.880  -2.646  0.00  0.00    -0.047 Br
BRANCH  24  26
ATOM     26  O   UNL     1       6.609  -2.940  -1.857  0.00  0.00    -0.506 OA
ATOM     27  H   UNL     1       7.109  -2.704  -1.065  0.00  0.00    +0.292 HD
ENDBRANCH  24  26
BRANCH  22  28
ATOM     28  O   UNL     1       8.157  -7.062  -3.646  0.00  0.00    -0.506 OA
ATOM     29  H   UNL     1       8.880  -7.415  -3.110  0.00  0.00    +0.292 HD
ENDBRANCH  22  28
ENDBRANCH  18  19
ENDBRANCH   3  17
TORSDOF 6
