REMARK  Name = ZINC47793107
REMARK  10 active torsions:
REMARK  status: ('A' for Active; 'I' for Inactive)
REMARK    1  A    between atoms: C_1  and  N_2
REMARK    2  A    between atoms: N_2  and  C_3
REMARK    3  A    between atoms: N_2  and  C_4
REMARK    4  A    between atoms: C_4  and  C_5
REMARK    5  A    between atoms: C_4  and  C_20
REMARK    6  A    between atoms: C_5  and  N_6
REMARK    7  A    between atoms: N_9  and  C_10
REMARK    8  A    between atoms: C_10  and  C_11
REMARK    9  A    between atoms: C_11  and  O_12
REMARK   10  A    between atoms: O_12  and  C_13
REMARK                            x       y       z     vdW  Elec       q    Type
REMARK                         _______ _______ _______ _____ _____    ______ ____
ROOT
ATOM      1  N   UNL     1      -0.914  -2.531   0.563  0.00  0.00    -0.301 N 
ATOM      2  C   UNL     1      -0.976  -3.877   0.530  0.00  0.00    +0.300 C 
ATOM      3  O   UNL     1      -1.635  -4.435  -0.327  0.00  0.00    -0.253 OA
ATOM      4  N   UNL     1      -0.308  -4.606   1.447  0.00  0.00    -0.296 N 
ATOM      5  H   UNL     1      -0.389  -2.087   1.247  0.00  0.00    +0.150 HD
ATOM      6  H   UNL     1       0.217  -4.161   2.130  0.00  0.00    +0.150 HD
ENDROOT
BRANCH   1   7
ATOM      7  C   UNL     1      -1.640  -1.740  -0.433  0.00  0.00    +0.098 C 
BRANCH   7   8
ATOM      8  C   UNL     1      -1.509  -0.253  -0.097  0.00  0.00    +0.016 C 
BRANCH   8   9
ATOM      9  C   UNL     1      -0.069   0.169  -0.239  0.00  0.00    +0.093 A 
ATOM     10  C   UNL     1       0.460   0.819  -1.291  0.00  0.00    +0.043 A 
ATOM     11  C   UNL     1       1.831   1.013  -1.006  0.00  0.00    +0.041 A 
ATOM     12  C   UNL     1       2.058   0.470   0.204  0.00  0.00    +0.195 A 
ATOM     13  O   UNL     1       0.902  -0.035   0.666  0.00  0.00    -0.469 OA
ENDBRANCH   8   9
BRANCH   8  15
ATOM     14  C   UNL     1      -1.819   1.404   1.610  0.00  0.00    -0.096 C 
ATOM     15  N   UNL     1      -1.953  -0.022   1.284  0.00  0.00    +0.384 N 
ATOM     16  C   UNL     1      -3.359  -0.425   1.421  0.00  0.00    -0.096 C 
ATOM     17  H   UNL     1      -1.385  -0.566   1.916  0.00  0.00    -0.082 HD
ENDBRANCH   8  15
ENDBRANCH   7   8
ENDBRANCH   1   7
BRANCH   4  18
ATOM     18  C   UNL     1      -0.376  -6.069   1.410  0.00  0.00    +0.146 C 
BRANCH  18  19
ATOM     19  C   UNL     1       0.465  -6.646   2.551  0.00  0.00    +0.247 C 
BRANCH  19  20
ATOM     20  O   UNL     1      -0.112  -6.272   3.804  0.00  0.00    -0.490 OA
BRANCH  20  21
ATOM     21  C   UNL     1       0.517  -6.708   4.927  0.00  0.00    +0.123 A 
ATOM     22  C   UNL     1       1.669  -7.474   4.825  0.00  0.00    +0.046 A 
ATOM     23  C   UNL     1       2.308  -7.917   5.968  0.00  0.00    +0.006 A 
ATOM     24  C   UNL     1       1.801  -7.596   7.213  0.00  0.00    +0.038 A 
ATOM     25  C   UNL     1       0.651  -6.831   7.319  0.00  0.00    +0.127 A 
ATOM     26  C   UNL     1       0.012  -6.381   6.177  0.00  0.00    +0.084 A 
ATOM     27  F   UNL     1       0.157  -6.519   8.537  0.00  0.00    -0.205 F 
ENDBRANCH  20  21
ENDBRANCH  19  20
ENDBRANCH  18  19
ENDBRANCH   4  18
TORSDOF 8
