REMARK  Name = ZINC00705595
REMARK  7 active torsions:
REMARK  status: ('A' for Active; 'I' for Inactive)
REMARK    1  A    between atoms: C_1  and  C_2
REMARK    2  A    between atoms: C_3  and  C_20
REMARK    3  A    between atoms: C_14  and  C_18
REMARK    4  A    between atoms: C_15  and  N_17
REMARK    5  A    between atoms: C_20  and  O_22
REMARK    6  A    between atoms: O_22  and  C_23
REMARK    7  A    between atoms: C_23  and  C_24
REMARK                            x       y       z     vdW  Elec       q    Type
REMARK                         _______ _______ _______ _____ _____    ______ ____
ROOT
ATOM      1  C   UNL     1      -0.013   1.086   0.008  0.00  0.00    +0.087 C 
ATOM      2  C   UNL     1      -0.718   1.572   1.248  0.00  0.00    +0.116 C 
ATOM      3  C   UNL     1      -0.839   2.892   1.449  0.00  0.00    +0.099 C 
ATOM      4  C   UNL     1      -1.540   3.422   2.666  0.00  0.00    +0.148 C 
ATOM      5  C   UNL     1      -0.540   3.992   3.640  0.00  0.00    -0.001 A 
ATOM      6  C   UNL     1       0.519   3.445   4.329  0.00  0.00    +0.007 A 
ATOM      7  C   UNL     1       1.277   4.236   5.174  0.00  0.00    +0.000 A 
ATOM      8  C   UNL     1       0.968   5.576   5.322  0.00  0.00    +0.002 A 
ATOM      9  C   UNL     1      -0.092   6.128   4.633  0.00  0.00    +0.023 A 
ATOM     10  C   UNL     1      -0.860   5.338   3.780  0.00  0.00    +0.038 A 
ATOM     11  N   UNL     1      -1.963   5.656   2.987  0.00  0.00    -0.284 N 
ATOM     12  C   UNL     1      -2.422   4.593   2.303  0.00  0.00    +0.238 C 
ATOM     13  O   UNL     1      -3.365   4.577   1.540  0.00  0.00    -0.274 OA
ATOM     14  C   UNL     1      -2.351   2.339   3.320  0.00  0.00    +0.110 C 
ATOM     15  C   UNL     1      -2.135   1.037   3.008  0.00  0.00    +0.199 C 
ATOM     16  O   UNL     1      -1.199   0.670   2.116  0.00  0.00    -0.445 OA
ATOM     17  H   UNL     1      -2.353   6.543   2.934  0.00  0.00    +0.155 HD
ENDROOT
BRANCH  15  18
ATOM     18  N   UNL     1      -2.893   0.069   3.618  0.00  0.00    -0.328 N 
ATOM     19  H   UNL     1      -2.750  -0.866   3.404  0.00  0.00    +0.145 HD
ATOM     20  H   UNL     1      -3.572   0.320   4.264  0.00  0.00    +0.145 HD
ENDBRANCH  15  18
BRANCH  14  21
ATOM     21  C   UNL     1      -3.357   2.684   4.279  0.00  0.00    +0.102 C 
ATOM     22  N   UNL     1      -4.155   2.958   5.039  0.00  0.00    -0.191 NA
ENDBRANCH  14  21
BRANCH   3  23
ATOM     23  C   UNL     1      -0.304   3.797   0.500  0.00  0.00    +0.340 C 
ATOM     24  O   UNL     1       0.262   3.375  -0.491  0.00  0.00    -0.245 OA
BRANCH  23  25
ATOM     25  O   UNL     1      -0.421   5.127   0.695  0.00  0.00    -0.457 OA
BRANCH  25  26
ATOM     26  C   UNL     1       0.142   5.981  -0.302  0.00  0.00    +0.268 C 
BRANCH  26  27
ATOM     27  C   UNL     1      -0.084   7.420   0.083  0.00  0.00    -0.010 A 
ATOM     28  C   UNL     1      -1.226   8.077  -0.338  0.00  0.00    +0.007 A 
ATOM     29  C   UNL     1      -1.436   9.396   0.020  0.00  0.00    +0.000 A 
ATOM     30  C   UNL     1      -0.499  10.061   0.788  0.00  0.00    +0.000 A 
ATOM     31  C   UNL     1       0.645   9.406   1.204  0.00  0.00    +0.000 A 
ATOM     32  C   UNL     1       0.853   8.085   0.851  0.00  0.00    +0.007 A 
ENDBRANCH  26  27
ENDBRANCH  25  26
ENDBRANCH  23  25
ENDBRANCH   3  23
TORSDOF 6
