REMARK  Name = ZINC01934925
REMARK  5 active torsions:
REMARK  status: ('A' for Active; 'I' for Inactive)
REMARK    1  A    between atoms: C_1  and  C_2
REMARK    2  A    between atoms: C_9  and  N_14
REMARK    3  A    between atoms: C_10  and  C_11
REMARK    4  A    between atoms: C_15  and  C_17
REMARK    5  A    between atoms: C_22  and  N_23
REMARK                            x       y       z     vdW  Elec       q    Type
REMARK                         _______ _______ _______ _____ _____    ______ ____
ROOT
ATOM      1  C   UNL     1      -1.697   3.682   2.531  0.00  0.00    +0.008 C 
ATOM      2  C   UNL     1      -1.170   3.149   1.198  0.00  0.00    -0.009 C 
ATOM      3  C   UNL     1      -0.974   1.633   1.293  0.00  0.00    +0.008 C 
ATOM      4  C   UNL     1      -0.223   1.127   0.060  0.00  0.00    +0.037 C 
ATOM      5  C   UNL     1      -0.934   1.630  -1.191  0.00  0.00    -0.023 A 
ATOM      6  C   UNL     1      -1.798   2.667  -1.131  0.00  0.00    -0.004 A 
ATOM      7  S   UNL     1      -2.360   2.884  -2.795  0.00  0.00    -0.077 S 
ATOM      8  C   UNL     1      -1.462   1.617  -3.562  0.00  0.00    +0.085 A 
ATOM      9  C   UNL     1      -0.748   1.056  -2.513  0.00  0.00    +0.068 A 
ATOM     10  C   UNL     1      -2.183   3.452   0.085  0.00  0.00    +0.046 C 
ENDROOT
BRANCH   9  11
ATOM     11  C   UNL     1       0.161  -0.074  -2.729  0.00  0.00    +0.244 C 
ATOM     12  O   UNL     1      -0.255  -1.215  -2.639  0.00  0.00    -0.270 OA
ATOM     13  N   UNL     1       1.456   0.150  -3.029  0.00  0.00    -0.325 N 
ATOM     14  H   UNL     1       1.786   1.059  -3.101  0.00  0.00    +0.145 HD
ATOM     15  H   UNL     1       2.057  -0.598  -3.172  0.00  0.00    +0.145 HD
ENDBRANCH   9  11
BRANCH   8  16
ATOM     16  N   UNL     1      -1.456   1.253  -4.899  0.00  0.00    -0.275 N 
ATOM     17  C   UNL     1      -2.223   1.922  -5.783  0.00  0.00    +0.251 C 
ATOM     18  O   UNL     1      -2.920   2.845  -5.407  0.00  0.00    -0.270 OA
ATOM     19  H   UNL     1      -0.901   0.517  -5.199  0.00  0.00    +0.156 HD
BRANCH  17  20
ATOM     20  C   UNL     1      -2.218   1.533  -7.208  0.00  0.00    +0.067 A 
ATOM     21  C   UNL     1      -2.506   0.218  -7.577  0.00  0.00    +0.017 A 
ATOM     22  C   UNL     1      -2.504  -0.137  -8.909  0.00  0.00    +0.021 A 
ATOM     23  C   UNL     1      -2.206   0.805  -9.880  0.00  0.00    +0.043 A 
ATOM     24  C   UNL     1      -1.914   2.110  -9.520  0.00  0.00    +0.053 A 
ATOM     25  C   UNL     1      -1.918   2.479  -8.191  0.00  0.00    +0.140 A 
ATOM     26 CL   UNL     1      -2.199   0.349 -11.555  0.00  0.00    -0.083 Cl
BRANCH  25  27
ATOM     27  N   UNL     1      -1.606   3.874  -7.807  0.00  0.00    +0.057 N 
ATOM     28  O   UNL     1      -1.462   4.724  -8.667  0.00  0.00    -0.126 OA
ATOM     29  O   UNL     1      -1.493   4.171  -6.631  0.00  0.00    -0.126 OA
ENDBRANCH  25  27
ENDBRANCH  17  20
ENDBRANCH   8  16
TORSDOF 4
