REMARK  Name = ZINC12893027
REMARK  9 active torsions:
REMARK  status: ('A' for Active; 'I' for Inactive)
REMARK    1  A    between atoms: C_4  and  CA_7
REMARK    2  A    between atoms: CA_7  and  C_9
REMARK    3  A    between atoms: CA_7  and  N_11
REMARK    4  A    between atoms: C_12  and  C_14
REMARK    5  A    between atoms: C_14  and  C_15
REMARK    6  A    between atoms: C_15  and  C_17
REMARK    7  A    between atoms: C_15  and  C_26
REMARK    8  A    between atoms: C_17  and  N_18
REMARK    9  A    between atoms: C_19  and  C_21
REMARK                            x       y       z     vdW  Elec       q    Type
REMARK                         _______ _______ _______ _____ _____    ______ ____
ROOT
ATOM      1  C   UNL     1       3.571   2.193  -0.020  0.00  0.00    +0.045 C 
ENDROOT
BRANCH   1   2
ATOM      2  C   UNL     1       3.565   2.969   1.272  0.00  0.00    -0.042 A 
ATOM      3  C   UNL     1       3.702   2.305   2.477  0.00  0.00    +0.005 A 
ATOM      4  C   UNL     1       3.702   3.017   3.662  0.00  0.00    +0.020 A 
ATOM      5  C   UNL     1       3.552   4.392   3.642  0.00  0.00    +0.041 A 
ATOM      6  C   UNL     1       3.409   5.055   2.437  0.00  0.00    +0.020 A 
ATOM      7  C   UNL     1       3.415   4.343   1.252  0.00  0.00    +0.005 A 
ATOM      8 CL   UNL     1       3.545   5.286   5.131  0.00  0.00    -0.084 Cl
ENDBRANCH   1   2
BRANCH   1   9
ATOM      9  C   UNL     1       4.902   1.451  -0.163  0.00  0.00    +0.105 C 
BRANCH   9  11
ATOM     10  N   UNL     1       7.293   2.023  -0.429  0.00  0.00    -0.299 N 
ATOM     11  C   UNL     1       6.023   2.450  -0.291  0.00  0.00    +0.215 C 
ATOM     12  O   UNL     1       5.781   3.638  -0.272  0.00  0.00    -0.276 OA
ATOM     13  H   UNL     1       7.487   1.072  -0.445  0.00  0.00    +0.150 HD
BRANCH  10  14
ATOM     14  CA  UNL     1       8.383   2.994  -0.554  0.00  0.00    +0.217 C 
BRANCH  14  18
ATOM     15  C   UNL     1      12.035   1.213   0.766  0.00  0.00    +0.000 A 
ATOM     16  C   UNL     1      11.753   2.529   1.084  0.00  0.00    +0.000 A 
ATOM     17  C   UNL     1      10.571   3.105   0.657  0.00  0.00    +0.006 A 
ATOM     18  C   UNL     1       9.672   2.366  -0.089  0.00  0.00    -0.016 A 
ATOM     19  C   UNL     1       9.952   1.049  -0.402  0.00  0.00    +0.006 A 
ATOM     20  C   UNL     1      11.135   0.474   0.021  0.00  0.00    +0.000 A 
ENDBRANCH  14  18
BRANCH  14  21
ATOM     21  C   UNL     1       8.521   3.412  -1.996  0.00  0.00    +0.380 C 
ATOM     22  O   UNL     1       7.784   2.946  -2.833  0.00  0.00    -0.244 OA
ATOM     23  OXT UNL     1       9.461   4.301  -2.350  0.00  0.00    -0.244 OA
ENDBRANCH  14  21
ENDBRANCH  10  14
ENDBRANCH   9  11
ENDBRANCH   1   9
BRANCH   1  24
ATOM     24  C   UNL     1       2.422   1.183  -0.015  0.00  0.00    +0.112 C 
BRANCH  24  25
ATOM     25  N   UNL     1       1.143   1.898   0.001  0.00  0.00    -0.316 N 
ATOM     26  C   UNL     1      -0.014   1.209   0.009  0.00  0.00    +0.200 C 
ATOM     27  O   UNL     1       0.002  -0.004   0.002  0.00  0.00    -0.278 OA
ATOM     28  H   UNL     1       1.130   2.868   0.007  0.00  0.00    +0.149 HD
BRANCH  26  29
ATOM     29  C   UNL     1      -1.330   1.944   0.019  0.00  0.00    +0.027 C 
ATOM     30  C   UNL     1      -1.551   2.536   1.433  0.00  0.00    +0.060 C 
ATOM     31  S   UNL     1      -3.373   2.284   1.606  0.00  0.00    -0.181 S 
ATOM     32  C   UNL     1      -3.478   0.779   0.539  0.00  0.00    -0.011 C 
ATOM     33  N   UNL     1      -2.374   1.008  -0.465  0.00  0.00    +0.393 N 
ATOM     34  H   UNL     1      -1.931   0.105  -0.674  0.00  0.00    -0.084 HD
ATOM     35  H   UNL     1      -2.786   1.394  -1.322  0.00  0.00    -0.084 HD
ENDBRANCH  26  29
ENDBRANCH  24  25
ENDBRANCH   1  24
TORSDOF 9
