REMARK  Name = ZINC20873031
REMARK  8 active torsions:
REMARK  status: ('A' for Active; 'I' for Inactive)
REMARK    1  A    between atoms: C_1  and  C_2
REMARK    2  A    between atoms: C_6  and  C_26
REMARK    3  A    between atoms: C_9  and  N_12
REMARK    4  A    between atoms: N_12  and  C_13
REMARK    5  A    between atoms: C_13  and  C_14
REMARK    6  A    between atoms: C_19  and  O_20
REMARK    7  A    between atoms: O_20  and  C_21
REMARK    8  A    between atoms: C_21  and  C_22
REMARK                            x       y       z     vdW  Elec       q    Type
REMARK                         _______ _______ _______ _____ _____    ______ ____
ROOT
ATOM      1  N   UNL     1      -2.791  -2.572   0.015  0.00  0.00    +0.386 N 
ATOM      2  H   UNL     1      -2.777  -3.581   0.009  0.00  0.00    -0.085 HD
ATOM      3  H   UNL     1      -3.263  -2.247   0.845  0.00  0.00    -0.085 HD
ENDROOT
BRANCH   1  12
ATOM      4  C   UNL     1      -0.019   1.526   0.010  0.00  0.00    +0.011 C 
ATOM      5  C   UNL     1       0.002  -0.004   0.002  0.00  0.00    -0.033 C 
ATOM      6  C   UNL     1       0.718  -0.497  -1.257  0.00  0.00    +0.010 C 
ATOM      7  C   UNL     1       0.739  -2.027  -1.265  0.00  0.00    -0.011 C 
ATOM      8  C   UNL     1       1.479  -2.534  -0.026  0.00  0.00    +0.010 C 
ATOM      9  C   UNL     1       0.763  -2.041   1.233  0.00  0.00    -0.033 C 
ATOM     10  C   UNL     1       0.742  -0.511   1.242  0.00  0.00    +0.013 C 
ATOM     11  C   UNL     1      -0.673  -2.570   1.244  0.00  0.00    -0.006 C 
ATOM     12  C   UNL     1      -1.413  -2.063   0.004  0.00  0.00    -0.067 C 
ATOM     13  C   UNL     1      -0.696  -2.557  -1.254  0.00  0.00    -0.009 C 
ATOM     14  C   UNL     1      -1.433  -0.534   0.013  0.00  0.00    -0.006 C 
ATOM     15  C   UNL     1       1.503  -2.548   2.473  0.00  0.00    +0.011 C 
ENDBRANCH   1  12
BRANCH   1  16
ATOM     16  C   UNL     1      -3.501  -2.085  -1.175  0.00  0.00    -0.042 C 
BRANCH  16  17
ATOM     17  C   UNL     1      -4.915  -2.607  -1.165  0.00  0.00    -0.022 A 
ATOM     18  C   UNL     1      -5.252  -3.705  -1.932  0.00  0.00    +0.020 A 
ATOM     19  C   UNL     1      -6.550  -4.184  -1.922  0.00  0.00    +0.018 A 
ATOM     20  C   UNL     1      -7.513  -3.565  -1.145  0.00  0.00    +0.019 A 
ATOM     21  C   UNL     1      -7.179  -2.467  -0.376  0.00  0.00    +0.047 A 
ATOM     22  C   UNL     1      -5.877  -1.988  -0.380  0.00  0.00    +0.123 A 
ATOM     23 BR   UNL     1      -7.009  -5.688  -2.974  0.00  0.00    -0.050 Br
BRANCH  22  24
ATOM     24  O   UNL     1      -5.546  -0.911   0.379  0.00  0.00    -0.483 OA
BRANCH  24  25
ATOM     25  C   UNL     1      -6.588  -0.324   1.162  0.00  0.00    +0.324 C 
BRANCH  25  26
ATOM     26  C   UNL     1      -6.038   0.849   1.932  0.00  0.00    +0.248 C 
ATOM     27  O   UNL     1      -4.869   1.153   1.821  0.00  0.00    -0.272 OA
ATOM     28  N   UNL     1      -6.845   1.561   2.744  0.00  0.00    -0.327 N 
ATOM     29  H   UNL     1      -7.780   1.317   2.832  0.00  0.00    +0.145 HD
ATOM     30  H   UNL     1      -6.491   2.316   3.239  0.00  0.00    +0.145 HD
ENDBRANCH  25  26
ENDBRANCH  24  25
ENDBRANCH  22  24
ENDBRANCH  16  17
ENDBRANCH   1  16
TORSDOF 6
