REMARK  Name = ZINC14921544
REMARK  9 active torsions:
REMARK  status: ('A' for Active; 'I' for Inactive)
REMARK    1  A    between atoms: C_1  and  C_2
REMARK    2  A    between atoms: C_5  and  S_9
REMARK    3  A    between atoms: C_6  and  C_8
REMARK    4  A    between atoms: S_9  and  N_12
REMARK    5  A    between atoms: N_15  and  C_18
REMARK    6  A    between atoms: C_18  and  C_20
REMARK    7  A    between atoms: C_18  and  C_21
REMARK    8  A    between atoms: N_23  and  C_24
REMARK    9  A    between atoms: C_25  and  C_32
REMARK                            x       y       z     vdW  Elec       q    Type
REMARK                         _______ _______ _______ _____ _____    ______ ____
ROOT
ATOM      1  C   UNL     1       4.247  -7.942   1.851  0.00  0.00    +0.140 C 
ATOM      2  C   UNL     1       3.369  -9.146   1.504  0.00  0.00    +0.034 C 
ENDROOT
BRANCH   1   6
ATOM      3  N   UNL     1       1.506  -5.005   0.635  0.00  0.00    -0.174 NA
ATOM      4  C   UNL     1       2.693  -5.202  -0.211  0.00  0.00    +0.125 C 
ATOM      5  C   UNL     1       3.284  -6.583   0.093  0.00  0.00    +0.102 C 
ATOM      6  N   UNL     1       3.524  -6.702   1.538  0.00  0.00    -0.289 NA
ATOM      7  C   UNL     1       2.268  -6.620   2.295  0.00  0.00    +0.102 C 
ATOM      8  C   UNL     1       1.637  -5.234   2.082  0.00  0.00    +0.125 C 
BRANCH   3   9
ATOM      9  S   UNL     1       0.063  -4.530  -0.023  0.00  0.00    +0.061 S 
ATOM     10  O   UNL     1      -0.953  -4.955   0.876  0.00  0.00    -0.153 OA
ATOM     11  O   UNL     1       0.087  -4.929  -1.387  0.00  0.00    -0.153 OA
BRANCH   9  16
ATOM     12  C   UNL     1      -0.018   1.503   0.010  0.00  0.00    +0.044 C 
ATOM     13  C   UNL     1       0.002  -0.004   0.002  0.00  0.00    -0.050 A 
ATOM     14  C   UNL     1       0.006  -0.689  -1.199  0.00  0.00    +0.005 A 
ATOM     15  C   UNL     1       0.025  -2.071  -1.207  0.00  0.00    +0.029 A 
ATOM     16  C   UNL     1       0.040  -2.768  -0.013  0.00  0.00    +0.108 A 
ATOM     17  C   UNL     1       0.037  -2.084   1.188  0.00  0.00    -0.024 A 
ATOM     18  C   UNL     1       0.023  -0.702   1.195  0.00  0.00    +0.008 A 
ATOM     19  C   UNL     1       0.054  -2.845   2.489  0.00  0.00    +0.046 C 
ENDBRANCH   9  16
ENDBRANCH   3   9
ENDBRANCH   1   6
BRANCH   1  20
ATOM     20  C   UNL     1       4.582  -7.971   3.319  0.00  0.00    +0.235 C 
ATOM     21  O   UNL     1       4.252  -7.049   4.035  0.00  0.00    -0.274 OA
ATOM     22  N   UNL     1       5.250  -9.020   3.838  0.00  0.00    -0.278 N 
ATOM     23  H   UNL     1       5.515  -9.757   3.265  0.00  0.00    +0.155 HD
BRANCH  22  24
ATOM     24  C   UNL     1       5.559  -9.047   5.189  0.00  0.00    +0.084 A 
ATOM     25  C   UNL     1       6.237 -10.029   5.888  0.00  0.00    +0.068 A 
ATOM     26  C   UNL     1       6.436  -9.816   7.320  0.00  0.00    -0.023 A 
ATOM     27  C   UNL     1       5.918  -8.663   7.781  0.00  0.00    -0.004 A 
ATOM     28  S   UNL     1       5.202  -7.891   6.351  0.00  0.00    -0.077 S 
ATOM     29  C   UNL     1       6.147  -8.496   9.258  0.00  0.00    +0.043 C 
ATOM     30  C   UNL     1       6.512  -9.911   9.759  0.00  0.00    +0.010 C 
ATOM     31  C   UNL     1       7.091 -10.557   8.484  0.00  0.00    +0.037 C 
BRANCH  25  32
ATOM     32  C   UNL     1       6.735 -11.235   5.219  0.00  0.00    +0.244 C 
ATOM     33  O   UNL     1       7.854 -11.248   4.742  0.00  0.00    -0.270 OA
ATOM     34  N   UNL     1       5.953 -12.329   5.133  0.00  0.00    -0.325 N 
ATOM     35  H   UNL     1       5.060 -12.319   5.513  0.00  0.00    +0.145 HD
ATOM     36  H   UNL     1       6.282 -13.127   4.690  0.00  0.00    +0.145 HD
ENDBRANCH  25  32
ENDBRANCH  22  24
ENDBRANCH   1  20
TORSDOF 6
