REMARK  Name = ZINC38675422
REMARK  10 active torsions:
REMARK  status: ('A' for Active; 'I' for Inactive)
REMARK    1  A    between atoms: C_1  and  C_2
REMARK    2  A    between atoms: C_2  and  C_3
REMARK    3  A    between atoms: C_2  and  C_4
REMARK    4  A    between atoms: C_2  and  C_5
REMARK    5  A    between atoms: C_8  and  N_11
REMARK    6  A    between atoms: N_14  and  C_15
REMARK    7  A    between atoms: C_15  and  C_16
REMARK    8  A    between atoms: C_16  and  C_18
REMARK    9  A    between atoms: C_16  and  N_24
REMARK   10  A    between atoms: N_22  and  C_23
REMARK                            x       y       z     vdW  Elec       q    Type
REMARK                         _______ _______ _______ _____ _____    ______ ____
ROOT
ATOM      1  N   UNL     1       2.723  -2.283  -4.582  0.00  0.00    -0.269 N 
ATOM      2  C   UNL     1       3.895  -1.690  -4.883  0.00  0.00    +0.304 C 
ATOM      3  O   UNL     1       4.391  -0.895  -4.109  0.00  0.00    -0.253 OA
ATOM      4  N   UNL     1       4.518  -1.980  -6.043  0.00  0.00    -0.300 N 
ATOM      5  H   UNL     1       2.365  -2.974  -5.162  0.00  0.00    +0.156 HD
ATOM      6  H   UNL     1       4.123  -2.614  -6.661  0.00  0.00    +0.150 HD
ENDROOT
BRANCH   1  10
ATOM      7  C   UNL     1       0.632  -1.149  -1.162  0.00  0.00    -0.042 A 
ATOM      8  C   UNL     1       1.381  -0.215  -1.855  0.00  0.00    +0.006 A 
ATOM      9  C   UNL     1       2.075  -0.588  -2.989  0.00  0.00    +0.023 A 
ATOM     10  C   UNL     1       2.021  -1.902  -3.433  0.00  0.00    +0.035 A 
ATOM     11  C   UNL     1       1.268  -2.837  -2.736  0.00  0.00    +0.023 A 
ATOM     12  C   UNL     1       0.580  -2.459  -1.599  0.00  0.00    +0.006 A 
BRANCH   7  14
ATOM     13  C   UNL     1       0.378  -1.548   1.272  0.00  0.00    +0.015 C 
ATOM     14  C   UNL     1      -0.124  -0.738   0.075  0.00  0.00    -0.013 C 
ATOM     15  C   UNL     1      -1.617  -1.002  -0.129  0.00  0.00    +0.015 C 
ATOM     16  C   UNL     1       0.099   0.752   0.338  0.00  0.00    +0.015 C 
ENDBRANCH   7  14
ENDBRANCH   1  10
BRANCH   4  17
ATOM     17  C   UNL     1       5.793  -1.335  -6.370  0.00  0.00    +0.096 C 
BRANCH  17  18
ATOM     18  C   UNL     1       6.223  -1.743  -7.780  0.00  0.00    -0.003 C 
BRANCH  18  19
ATOM     19  C   UNL     1       5.239  -1.199  -8.783  0.00  0.00    +0.006 A 
ATOM     20  C   UNL     1       4.450  -1.933  -9.595  0.00  0.00    +0.021 A 
ATOM     21  C   UNL     1       3.688  -1.034 -10.367  0.00  0.00    +0.019 A 
ATOM     22  C   UNL     1       4.041   0.214  -9.999  0.00  0.00    +0.085 A 
ATOM     23  N   UNL     1       4.988   0.119  -9.023  0.00  0.00    -0.355 N 
ATOM     24  C   UNL     1       5.632   1.247  -8.346  0.00  0.00    +0.148 C 
ENDBRANCH  18  19
BRANCH  18  25
ATOM     25  N   UNL     1       6.261  -3.209  -7.876  0.00  0.00    +0.386 N 
ATOM     26  C   UNL     1       6.896  -3.623  -9.154  0.00  0.00    -0.078 C 
ATOM     27  C   UNL     1       7.365  -5.071  -8.864  0.00  0.00    -0.020 C 
ATOM     28  C   UNL     1       7.833  -4.994  -7.393  0.00  0.00    -0.020 C 
ATOM     29  C   UNL     1       7.111  -3.768  -6.803  0.00  0.00    -0.078 C 
ATOM     30  H   UNL     1       5.327  -3.586  -7.813  0.00  0.00    -0.081 HD
ENDBRANCH  18  25
ENDBRANCH  17  18
ENDBRANCH   4  17
TORSDOF 6
