REMARK  Name = ZINC50650472
REMARK  5 active torsions:
REMARK  status: ('A' for Active; 'I' for Inactive)
REMARK    1  A    between atoms: C_6  and  N_7
REMARK    2  A    between atoms: N_7  and  S_8
REMARK    3  A    between atoms: S_8  and  C_11
REMARK    4  A    between atoms: C_14  and  N_18
REMARK    5  A    between atoms: C_16  and  N_17
REMARK                            x       y       z     vdW  Elec       q    Type
REMARK                         _______ _______ _______ _____ _____    ______ ____
ROOT
ATOM      1  S   UNL     1      -1.460  -1.946  -1.105  0.00  0.00    +0.074 S 
ATOM      2  O   UNL     1      -2.782  -2.463  -1.034  0.00  0.00    -0.150 OA
ATOM      3  O   UNL     1      -0.932  -1.366  -2.290  0.00  0.00    -0.150 OA
ENDROOT
BRANCH   1   4
ATOM      4  C   UNL     1      -0.379  -3.266  -0.665  0.00  0.00    +0.129 A 
ATOM      5  C   UNL     1       0.703  -3.571  -1.469  0.00  0.00    +0.033 A 
ATOM      6  C   UNL     1       1.552  -4.606  -1.124  0.00  0.00    +0.035 A 
ATOM      7  C   UNL     1       1.321  -5.340   0.025  0.00  0.00    +0.128 A 
ATOM      8  C   UNL     1       0.242  -5.040   0.833  0.00  0.00    +0.057 A 
ATOM      9  C   UNL     1      -0.610  -3.997   0.493  0.00  0.00    +0.054 A 
BRANCH   9  10
ATOM     10  N   UNL     1      -1.699  -3.688   1.310  0.00  0.00    -0.356 N 
ATOM     11  H   UNL     1      -2.248  -2.913   1.114  0.00  0.00    +0.142 HD
ATOM     12  H   UNL     1      -1.906  -4.248   2.075  0.00  0.00    +0.142 HD
ENDBRANCH   9  10
BRANCH   7  13
ATOM     13  N   UNL     1       2.233  -6.448   0.390  0.00  0.00    +0.056 N 
ATOM     14  O   UNL     1       3.178  -6.711  -0.317  0.00  0.00    -0.126 OA
ATOM     15  O   UNL     1       2.032  -7.090   1.394  0.00  0.00    -0.126 OA
ENDBRANCH   7  13
ENDBRANCH   1   4
BRANCH   1  16
ATOM     16  N   UNL     1      -1.337  -0.796   0.080  0.00  0.00    -0.216 N 
ATOM     17  H   UNL     1      -2.093  -0.614   0.660  0.00  0.00    +0.174 HD
BRANCH  16  23
ATOM     18  C   UNL     1      -0.169   1.292   0.400  0.00  0.00    +0.025 A 
ATOM     19  C   UNL     1       1.012   1.988   0.563  0.00  0.00    +0.016 A 
ATOM     20  C   UNL     1       2.219   1.313   0.573  0.00  0.00    +0.013 A 
ATOM     21  C   UNL     1       2.248  -0.061   0.420  0.00  0.00    +0.016 A 
ATOM     22  C   UNL     1       1.070  -0.764   0.255  0.00  0.00    +0.025 A 
ATOM     23  C   UNL     1      -0.144  -0.088   0.245  0.00  0.00    +0.048 A 
ATOM     24  I   UNL     1       4.009   2.374   0.821  0.00  0.00    -0.044 I 
ENDBRANCH  16  23
ENDBRANCH   1  16
TORSDOF 5
