REMARK  Name = ZINC45713013
REMARK  6 active torsions:
REMARK  status: ('A' for Active; 'I' for Inactive)
REMARK    1  A    between atoms: C_1  and  C_2
REMARK    2  A    between atoms: C_12  and  O_13
REMARK    3  A    between atoms: O_13  and  C_14
REMARK    4  A    between atoms: C_14  and  C_15
REMARK    5  A    between atoms: N_17  and  C_18
REMARK    6  A    between atoms: C_19  and  C_27
REMARK                            x       y       z     vdW  Elec       q    Type
REMARK                         _______ _______ _______ _____ _____    ______ ____
ROOT
ATOM      1  C   UNL     1       5.727  -3.901   1.787  0.00  0.00    +0.255 C 
ATOM      2  O   UNL     1       5.833  -3.965   0.581  0.00  0.00    -0.272 OA
ATOM      3  N   UNL     1       6.629  -4.518   2.576  0.00  0.00    -0.277 N 
ATOM      4  H   UNL     1       6.544  -4.467   3.541  0.00  0.00    +0.155 HD
ENDROOT
BRANCH   3   5
ATOM      5  C   UNL     1       7.678  -5.226   2.009  0.00  0.00    +0.084 A 
ATOM      6  C   UNL     1       8.686  -5.921   2.657  0.00  0.00    +0.068 A 
ATOM      7  C   UNL     1       9.675  -6.585   1.826  0.00  0.00    -0.023 A 
ATOM      8  C   UNL     1       9.475  -6.432   0.499  0.00  0.00    -0.004 A 
ATOM      9  S   UNL     1       8.013  -5.444   0.378  0.00  0.00    -0.077 S 
ATOM     10  C   UNL     1      10.316  -6.989  -0.608  0.00  0.00    +0.043 C 
ATOM     11  C   UNL     1      11.656  -7.447  -0.012  0.00  0.00    +0.005 C 
ATOM     12  C   UNL     1      11.380  -8.287   1.238  0.00  0.00    +0.005 C 
ATOM     13  C   UNL     1      10.849  -7.393   2.361  0.00  0.00    +0.037 C 
BRANCH   6  14
ATOM     14  C   UNL     1       8.752  -5.984   4.120  0.00  0.00    +0.244 C 
ATOM     15  O   UNL     1       8.185  -6.881   4.717  0.00  0.00    -0.270 OA
ATOM     16  N   UNL     1       9.439  -5.048   4.805  0.00  0.00    -0.325 N 
ATOM     17  H   UNL     1       9.890  -4.333   4.329  0.00  0.00    +0.145 HD
ATOM     18  H   UNL     1       9.482  -5.090   5.773  0.00  0.00    +0.145 HD
ENDBRANCH   6  14
ENDBRANCH   3   5
BRANCH   1  19
ATOM     19  C   UNL     1       4.588  -3.132   2.404  0.00  0.00    +0.324 C 
BRANCH  19  20
ATOM     20  O   UNL     1       3.775  -2.574   1.369  0.00  0.00    -0.482 OA
BRANCH  20  31
ATOM     21  C   UNL     1      -0.019   1.526   0.010  0.00  0.00    +0.013 C 
ATOM     22  C   UNL     1       0.002  -0.004   0.002  0.00  0.00    +0.026 C 
ATOM     23  C   UNL     1       0.767  -0.514  -1.227  0.00  0.00    +0.087 C 
ATOM     24  C   UNL     1       1.927  -1.306  -0.675  0.00  0.00    +0.168 C 
ATOM     25  O   UNL     1       2.775  -1.876  -1.329  0.00  0.00    -0.292 OA
ATOM     26  C   UNL     1       1.853  -1.266   0.791  0.00  0.00    +0.064 A 
ATOM     27  C   UNL     1       0.748  -0.519   1.210  0.00  0.00    -0.012 A 
ATOM     28  C   UNL     1       0.494  -0.358   2.557  0.00  0.00    +0.045 A 
ATOM     29  C   UNL     1       1.328  -0.933   3.503  0.00  0.00    +0.024 A 
ATOM     30  C   UNL     1       2.424  -1.673   3.108  0.00  0.00    +0.048 A 
ATOM     31  C   UNL     1       2.699  -1.846   1.758  0.00  0.00    +0.132 A 
ATOM     32 CL   UNL     1      -0.880   0.571   3.070  0.00  0.00    -0.083 Cl
ENDBRANCH  20  31
ENDBRANCH  19  20
ENDBRANCH   1  19
TORSDOF 5
