REMARK  Name = ZINC39543844
REMARK  8 active torsions:
REMARK  status: ('A' for Active; 'I' for Inactive)
REMARK    1  A    between atoms: C_1  and  C_2
REMARK    2  A    between atoms: C_2  and  N_3
REMARK    3  A    between atoms: N_3  and  O_26
REMARK    4  A    between atoms: C_4  and  C_6
REMARK    5  A    between atoms: C_9  and  S_20
REMARK    6  A    between atoms: S_20  and  C_23
REMARK    7  A    between atoms: C_23  and  C_24
REMARK    8  A    between atoms: C_23  and  C_25
REMARK                            x       y       z     vdW  Elec       q    Type
REMARK                         _______ _______ _______ _____ _____    ______ ____
ROOT
ATOM      1  C   UNL     1       3.423  -0.606  -2.789  0.00  0.00    +0.152 C 
ATOM      2  C   UNL     1       3.050  -2.098  -2.888  0.00  0.00    +0.088 C 
ATOM      3  C   UNL     1       4.357  -2.821  -2.656  0.00  0.00    +0.102 C 
ATOM      4  C   UNL     1       5.312  -1.946  -2.468  0.00  0.00    +0.096 C 
ATOM      5  N   UNL     1       6.659  -2.239  -2.185  0.00  0.00    -0.302 N 
ATOM      6  C   UNL     1       7.279  -1.354  -1.287  0.00  0.00    +0.037 A 
ATOM      7  C   UNL     1       8.570  -1.611  -0.846  0.00  0.00    +0.023 A 
ATOM      8  C   UNL     1       9.184  -0.736   0.029  0.00  0.00    +0.002 A 
ATOM      9  C   UNL     1       8.509   0.391   0.462  0.00  0.00    +0.000 A 
ATOM     10  C   UNL     1       7.222   0.644   0.027  0.00  0.00    +0.007 A 
ATOM     11  C   UNL     1       6.596  -0.229  -0.847  0.00  0.00    -0.010 A 
ATOM     12  C   UNL     1       5.184   0.061  -1.284  0.00  0.00    +0.124 C 
ATOM     13  N   UNL     1       4.876  -0.613  -2.549  0.00  0.00    -0.368 NA
ATOM     14  H   UNL     1       7.123  -2.993  -2.580  0.00  0.00    +0.153 HD
ATOM     15  H   UNL     1       5.348  -0.145  -3.308  0.00  0.00    +0.129 HD
ENDROOT
BRANCH   1  17
ATOM     16  N   UNL     1       2.426   1.363  -1.672  0.00  0.00    -0.183 N 
ATOM     17  C   UNL     1       2.701   0.043  -1.637  0.00  0.00    +0.257 C 
ATOM     18  O   UNL     1       2.367  -0.621  -0.679  0.00  0.00    -0.272 OA
BRANCH  16  20
ATOM     19  C   UNL     1       2.686   2.156   0.627  0.00  0.00    +0.027 C 
ATOM     20  C   UNL     1       1.724   1.994  -0.552  0.00  0.00    +0.136 C 
ENDBRANCH  16  20
BRANCH  16  21
ATOM     21  O   UNL     1       2.816   2.138  -2.791  0.00  0.00    -0.292 OA
ATOM     22  H   UNL     1       3.272   1.634  -3.478  0.00  0.00    +0.242 HD
ENDBRANCH  16  21
ENDBRANCH   1  17
BRANCH   3  23
ATOM     23  S   UNL     1       4.564  -4.571  -2.640  0.00  0.00    -0.002 S 
ATOM     24  O   UNL     1       5.929  -4.772  -2.301  0.00  0.00    -0.169 OA
ATOM     25  O   UNL     1       3.528  -5.050  -1.793  0.00  0.00    -0.169 OA
BRANCH  23  26
ATOM     26  C   UNL     1       4.262  -5.091  -4.352  0.00  0.00    +0.130 C 
ATOM     27  C   UNL     1       5.168  -4.296  -5.294  0.00  0.00    +0.032 C 
ATOM     28  C   UNL     1       4.565  -6.584  -4.492  0.00  0.00    +0.032 C 
ENDBRANCH  23  26
ENDBRANCH   3  23
TORSDOF 5
