REMARK  Name = ZINC04544087
REMARK  5 active torsions:
REMARK  status: ('A' for Active; 'I' for Inactive)
REMARK    1  A    between atoms: C_3  and  O_11
REMARK    2  A    between atoms: C_6  and  C_7
REMARK    3  A    between atoms: N_8  and  O_9
REMARK    4  A    between atoms: O_11  and  C_12
REMARK    5  A    between atoms: C_15  and  N_18
REMARK                            x       y       z     vdW  Elec       q    Type
REMARK                         _______ _______ _______ _____ _____    ______ ____
ROOT
ATOM      1  C   UNL     1       4.704   1.411  -0.140  0.00  0.00    +0.129 A 
ATOM      2  C   UNL     1       4.668   0.028  -0.250  0.00  0.00    +0.048 A 
ATOM      3  C   UNL     1       5.844  -0.685  -0.370  0.00  0.00    +0.027 A 
ATOM      4  C   UNL     1       7.062  -0.019  -0.383  0.00  0.00    +0.044 A 
ATOM      5  C   UNL     1       7.097   1.364  -0.273  0.00  0.00    +0.027 A 
ATOM      6  C   UNL     1       5.921   2.078  -0.158  0.00  0.00    +0.048 A 
ENDROOT
BRANCH   4   7
ATOM      7  N   UNL     1       8.257  -0.744  -0.505  0.00  0.00    -0.210 N 
ATOM      8  C   UNL     1       9.168  -0.807   0.472  0.00  0.00    +0.231 C 
ATOM      9  O   UNL     1       9.076  -0.262   1.551  0.00  0.00    -0.274 OA
ATOM     10  C   UNL     1      10.330  -1.664   0.024  0.00  0.00    +0.095 C 
ATOM     11  C   UNL     1      10.303  -2.993   0.844  0.00  0.00    +0.025 C 
ATOM     12  C   UNL     1      10.831  -4.006  -0.236  0.00  0.00    +0.016 C 
ATOM     13  C   UNL     1       9.691  -3.651  -1.259  0.00  0.00    +0.025 C 
ATOM     14  C   UNL     1       9.922  -2.094  -1.416  0.00  0.00    +0.095 C 
ATOM     15  C   UNL     1       8.576  -1.433  -1.607  0.00  0.00    +0.231 C 
ATOM     16  O   UNL     1       7.891  -1.513  -2.604  0.00  0.00    -0.274 OA
ATOM     17  C   UNL     1       8.469  -3.766  -0.340  0.00  0.00    -0.027 C 
ATOM     18  C   UNL     1       8.819  -3.375   0.891  0.00  0.00    -0.027 C 
ENDBRANCH   4   7
BRANCH   1  19
ATOM     19  O   UNL     1       3.546   2.113  -0.020  0.00  0.00    -0.456 OA
BRANCH  19  22
ATOM     20  C   UNL     1       4.059   5.494  -1.254  0.00  0.00    +0.015 A 
ATOM     21  C   UNL     1       3.986   4.119  -1.221  0.00  0.00    +0.047 A 
ATOM     22  C   UNL     1       3.617   3.469  -0.050  0.00  0.00    +0.128 A 
ATOM     23  C   UNL     1       3.320   4.203   1.092  0.00  0.00    +0.047 A 
ATOM     24  C   UNL     1       3.390   5.579   1.066  0.00  0.00    +0.015 A 
ATOM     25  C   UNL     1       3.761   6.235  -0.109  0.00  0.00    +0.018 A 
BRANCH  25  26
ATOM     26  C   UNL     1       3.839   7.712  -0.141  0.00  0.00    +0.162 C 
ATOM     27  N   UNL     1       4.185   8.322  -1.237  0.00  0.00    -0.072 NA
ATOM     28  N   UNL     1       3.543   8.445   0.996  0.00  0.00    -0.340 N 
ATOM     29  H   UNL     1       3.285   7.991   1.813  0.00  0.00    +0.144 HD
ATOM     30  H   UNL     1       3.594   9.414   0.976  0.00  0.00    +0.144 HD
BRANCH  27  31
ATOM     31  O   UNL     1       4.260   9.736  -1.267  0.00  0.00    -0.408 OA
ATOM     32  H   UNL     1       4.525  10.098  -2.124  0.00  0.00    +0.328 HD
ENDBRANCH  27  31
ENDBRANCH  25  26
ENDBRANCH  19  22
ENDBRANCH   1  19
TORSDOF 5
