REMARK  Name = ZINC05775380
REMARK  6 active torsions:
REMARK  status: ('A' for Active; 'I' for Inactive)
REMARK    1  A    between atoms: C_4  and  C_7
REMARK    2  A    between atoms: C_7  and  C_9
REMARK    3  A    between atoms: C_7  and  N_20
REMARK    4  A    between atoms: C_18  and  O_19
REMARK    5  A    between atoms: C_21  and  C_23
REMARK    6  A    between atoms: C_27  and  N_29
REMARK                            x       y       z     vdW  Elec       q    Type
REMARK                         _______ _______ _______ _____ _____    ______ ____
ROOT
ATOM      1  C   UNL     1       0.961   7.507   0.094  0.00  0.00    +0.138 C 
ENDROOT
BRANCH   1   2
ATOM      2  C   UNL     1       2.236   8.060   0.677  0.00  0.00    +0.026 A 
ATOM      3  C   UNL     1       2.188   9.093   1.627  0.00  0.00    -0.009 A 
ATOM      4  C   UNL     1       0.963   9.634   2.055  0.00  0.00    +0.009 A 
ATOM      5  C   UNL     1       0.954  10.635   2.977  0.00  0.00    +0.001 A 
ATOM      6  C   UNL     1       2.143  11.134   3.505  0.00  0.00    +0.001 A 
ATOM      7  C   UNL     1       3.348  10.628   3.123  0.00  0.00    +0.008 A 
ATOM      8  C   UNL     1       3.397   9.597   2.169  0.00  0.00    -0.017 A 
ATOM      9  C   UNL     1       4.624   9.062   1.738  0.00  0.00    +0.012 A 
ATOM     10  C   UNL     1       4.636   8.065   0.812  0.00  0.00    +0.046 A 
ATOM     11  C   UNL     1       3.445   7.562   0.281  0.00  0.00    +0.123 A 
BRANCH  11  12
ATOM     12  O   UNL     1       3.490   6.566  -0.642  0.00  0.00    -0.506 OA
ATOM     13  H   UNL     1       3.625   6.875  -1.548  0.00  0.00    +0.292 HD
ENDBRANCH  11  12
ENDBRANCH   1   2
BRANCH   1  17
ATOM     14  C   UNL     1       0.511   8.900  -3.919  0.00  0.00    +0.000 A 
ATOM     15  C   UNL     1      -0.037   9.618  -2.873  0.00  0.00    +0.000 A 
ATOM     16  C   UNL     1       0.109   9.167  -1.574  0.00  0.00    +0.006 A 
ATOM     17  C   UNL     1       0.802   7.999  -1.322  0.00  0.00    -0.023 A 
ATOM     18  C   UNL     1       1.355   7.283  -2.368  0.00  0.00    +0.006 A 
ATOM     19  C   UNL     1       1.206   7.732  -3.667  0.00  0.00    +0.000 A 
ENDBRANCH   1  17
BRANCH   1  20
ATOM     20  N   UNL     1       1.016   6.043   0.100  0.00  0.00    -0.300 N 
ATOM     21  C   UNL     1      -0.126   5.327   0.116  0.00  0.00    +0.245 C 
ATOM     22  O   UNL     1      -1.200   5.895   0.126  0.00  0.00    -0.270 OA
ATOM     23  H   UNL     1       1.873   5.590   0.091  0.00  0.00    +0.150 HD
BRANCH  21  24
ATOM     24  C   UNL     1      -0.070   3.849   0.121  0.00  0.00    +0.039 A 
ATOM     25  C   UNL     1       1.162   3.193   0.110  0.00  0.00    +0.013 A 
ATOM     26  C   UNL     1       1.206   1.815   0.115  0.00  0.00    +0.003 A 
ATOM     27  C   UNL     1       0.033   1.082   0.131  0.00  0.00    +0.033 A 
ATOM     28  C   UNL     1      -1.192   1.725   0.137  0.00  0.00    +0.127 A 
ATOM     29  C   UNL     1      -1.250   3.104   0.138  0.00  0.00    +0.045 A 
BRANCH  28  30
ATOM     30  N   UNL     1      -2.442   0.933   0.147  0.00  0.00    +0.056 N 
ATOM     31  O   UNL     1      -2.392  -0.284   0.150  0.00  0.00    -0.126 OA
ATOM     32  O   UNL     1      -3.521   1.498   0.152  0.00  0.00    -0.126 OA
ENDBRANCH  28  30
ENDBRANCH  21  24
ENDBRANCH   1  20
TORSDOF 6
