REMARK  Name = ZINC38103107
REMARK  9 active torsions:
REMARK  status: ('A' for Active; 'I' for Inactive)
REMARK    1  A    between atoms: C_1  and  C_2
REMARK    2  A    between atoms: C_2  and  C_4
REMARK    3  A    between atoms: C_2  and  N_9
REMARK    4  A    between atoms: C_4  and  C_5
REMARK    5  A    between atoms: C_5  and  C_6
REMARK    6  A    between atoms: C_6  and  C_7
REMARK    7  A    between atoms: C_6  and  C_8
REMARK    8  A    between atoms: C_10  and  C_12
REMARK    9  A    between atoms: C_17  and  N_18
REMARK                            x       y       z     vdW  Elec       q    Type
REMARK                         _______ _______ _______ _____ _____    ______ ____
ROOT
ATOM      1  N   UNL     1      -1.104  -0.944  -0.684  0.00  0.00    -0.309 N 
ATOM      2  C   UNL     1      -2.047  -0.794  -1.635  0.00  0.00    +0.247 C 
ATOM      3  O   UNL     1      -1.757  -0.303  -2.708  0.00  0.00    -0.270 OA
ATOM      4  H   UNL     1      -1.335  -1.336   0.172  0.00  0.00    +0.149 HD
ENDROOT
BRANCH   2   5
ATOM      5  C   UNL     1      -3.436  -1.228  -1.372  0.00  0.00    +0.070 A 
ATOM      6  C   UNL     1      -3.696  -2.537  -0.962  0.00  0.00    +0.053 A 
ATOM      7  C   UNL     1      -4.996  -2.935  -0.718  0.00  0.00    +0.124 A 
ATOM      8  C   UNL     1      -6.040  -2.038  -0.880  0.00  0.00    +0.040 A 
ATOM      9  C   UNL     1      -5.787  -0.740  -1.286  0.00  0.00    +0.036 A 
ATOM     10  C   UNL     1      -4.492  -0.329  -1.527  0.00  0.00    +0.138 A 
ATOM     11  F   UNL     1      -5.251  -4.201  -0.321  0.00  0.00    -0.205 F 
BRANCH  10  12
ATOM     12  N   UNL     1      -4.224   1.062  -1.956  0.00  0.00    +0.057 N 
ATOM     13  O   UNL     1      -5.144   1.805  -2.209  0.00  0.00    -0.126 OA
ATOM     14  O   UNL     1      -3.085   1.456  -2.053  0.00  0.00    -0.126 OA
ENDBRANCH  10  12
ENDBRANCH   2   5
BRANCH   1  16
ATOM     15  C   UNL     1       0.408   0.978  -0.636  0.00  0.00    +0.028 C 
ATOM     16  C   UNL     1       0.273  -0.514  -0.945  0.00  0.00    +0.070 C 
BRANCH  16  17
ATOM     17  C   UNL     1       1.232  -1.308  -0.055  0.00  0.00    +0.022 C 
BRANCH  17  18
ATOM     18  C   UNL     1       1.188  -2.786  -0.448  0.00  0.00    +0.005 C 
BRANCH  18  19
ATOM     19  C   UNL     1       2.147  -3.579   0.442  0.00  0.00    -0.017 C 
ATOM     20  C   UNL     1       1.656  -3.531   1.890  0.00  0.00    +0.007 C 
ATOM     21  C   UNL     1       2.197  -5.033  -0.032  0.00  0.00    +0.007 C 
ENDBRANCH  18  19
ENDBRANCH  17  18
ENDBRANCH  16  17
ENDBRANCH   1  16
TORSDOF 6
