REMARK  Name = ZINC05346816
REMARK  8 active torsions:
REMARK  status: ('A' for Active; 'I' for Inactive)
REMARK    1  A    between atoms: C_1  and  C_2
REMARK    2  A    between atoms: C_16  and  C_18
REMARK    3  A    between atoms: C_18  and  C_20
REMARK    4  A    between atoms: C_18  and  O_21
REMARK    5  A    between atoms: N_24  and  C_27
REMARK    6  A    between atoms: C_27  and  C_28
REMARK    7  A    between atoms: C_28  and  O_29
REMARK    8  A    between atoms: O_29  and  C_30
REMARK                            x       y       z     vdW  Elec       q    Type
REMARK                         _______ _______ _______ _____ _____    ______ ____
ROOT
ATOM      1  C   UNL     1       5.269   7.066   0.430  0.00  0.00    +0.046 C 
ATOM      2  C   UNL     1       4.182   6.439  -0.405  0.00  0.00    -0.028 A 
ATOM      3  C   UNL     1       3.573   7.172  -1.403  0.00  0.00    +0.025 A 
ATOM      4  C   UNL     1       2.574   6.606  -2.175  0.00  0.00    +0.042 A 
ATOM      5  C   UNL     1       2.184   5.297  -1.945  0.00  0.00    +0.024 A 
ATOM      6  C   UNL     1       2.789   4.563  -0.950  0.00  0.00    -0.026 A 
ATOM      7  C   UNL     1       3.796   5.123  -0.168  0.00  0.00    +0.039 A 
ATOM      8  N   UNL     1       4.254   4.192   0.768  0.00  0.00    -0.286 N 
ATOM      9  C   UNL     1       3.610   3.014   0.670  0.00  0.00    +0.211 C 
ATOM     10  O   UNL     1       3.798   2.026   1.349  0.00  0.00    -0.277 OA
ATOM     11  C   UNL     1       2.612   3.159  -0.446  0.00  0.00    +0.050 C 
ATOM     12  C   UNL     1       2.856   2.126  -1.553  0.00  0.00    +0.088 C 
ATOM     13  C   UNL     1       1.846   0.984  -1.251  0.00  0.00    +0.075 C 
ATOM     14  C   UNL     1       1.096   1.443   0.017  0.00  0.00    -0.028 C 
ATOM     15  C   UNL     1       0.904   1.029  -2.433  0.00  0.00    +0.224 C 
ATOM     16  O   UNL     1      -0.052   0.301  -2.595  0.00  0.00    -0.275 OA
ATOM     17  N   UNL     1       1.289   1.999  -3.271  0.00  0.00    -0.240 N 
ATOM     18  C   UNL     1       2.389   2.683  -2.880  0.00  0.00    +0.225 C 
ATOM     19  O   UNL     1       2.917   3.592  -3.482  0.00  0.00    -0.275 OA
ATOM     20 CL   UNL     1       1.812   7.533  -3.429  0.00  0.00    -0.084 Cl
ATOM     21  H   UNL     1       4.955   4.374   1.414  0.00  0.00    +0.155 HD
ATOM     22  N   UNL     1       1.261   2.898   0.020  0.00  0.00    +0.396 N 
ATOM     23  H   UNL     1       0.578   3.334  -0.611  0.00  0.00    -0.083 HD
ATOM     24  H   UNL     1       1.135   3.268   0.969  0.00  0.00    -0.083 HD
ENDROOT
BRANCH  14  25
ATOM     25  C   UNL     1      -0.381   1.049  -0.066  0.00  0.00    +0.098 C 
ATOM     26  C   UNL     1      -0.511  -0.470   0.067  0.00  0.00    +0.036 C 
BRANCH  25  27
ATOM     27  O   UNL     1      -1.103   1.683   0.992  0.00  0.00    -0.394 OA
ATOM     28  H   UNL     1      -0.793   1.446   1.877  0.00  0.00    +0.210 HD
ENDBRANCH  25  27
ENDBRANCH  14  25
BRANCH  17  29
ATOM     29  C   UNL     1       0.580   2.295  -4.519  0.00  0.00    +0.144 C 
BRANCH  29  30
ATOM     30  C   UNL     1       1.111   1.391  -5.633  0.00  0.00    +0.179 C 
BRANCH  30  31
ATOM     31  O   UNL     1       0.814   0.028  -5.324  0.00  0.00    -0.381 OA
ATOM     32  C   UNL     1       1.269  -0.904  -6.307  0.00  0.00    +0.194 C 
ENDBRANCH  30  31
ENDBRANCH  29  30
ENDBRANCH  17  29
TORSDOF 5
