REMARK  Name = ZINC63506470
REMARK  5 active torsions:
REMARK  status: ('A' for Active; 'I' for Inactive)
REMARK    1  A    between atoms: C_1  and  C_2
REMARK    2  A    between atoms: C_2  and  C_3
REMARK    3  A    between atoms: C_8  and  N_9
REMARK    4  A    between atoms: C_25  and  C_27
REMARK    5  A    between atoms: C_30  and  C_33
REMARK                            x       y       z     vdW  Elec       q    Type
REMARK                         _______ _______ _______ _____ _____    ______ ____
ROOT
ATOM      1  N   UNL     1      -1.022  -0.307   2.871  0.00  0.00    -0.269 N 
ATOM      2  C   UNL     1      -1.844  -0.579   3.903  0.00  0.00    +0.307 C 
ATOM      3  O   UNL     1      -1.397  -1.055   4.928  0.00  0.00    -0.252 OA
ATOM      4  N   UNL     1      -3.163  -0.322   3.799  0.00  0.00    -0.276 N 
ATOM      5  C   UNL     1      -3.712   0.153   2.525  0.00  0.00    +0.114 C 
ATOM      6  C   UNL     1      -4.810  -0.813   2.046  0.00  0.00    +0.052 C 
ATOM      7  C   UNL     1      -5.680  -1.106   3.244  0.00  0.00    -0.035 C 
ATOM      8  C   UNL     1      -6.995  -1.033   3.413  0.00  0.00    -0.001 A 
ATOM      9  C   UNL     1      -8.089  -0.748   2.471  0.00  0.00    +0.010 A 
ATOM     10  C   UNL     1      -9.343  -0.732   2.996  0.00  0.00    +0.001 A 
ATOM     11  C   UNL     1      -9.614  -0.969   4.347  0.00  0.00    +0.002 A 
ATOM     12  C   UNL     1      -8.670  -1.247   5.282  0.00  0.00    +0.026 A 
ATOM     13  C   UNL     1      -7.313  -1.299   4.849  0.00  0.00    +0.043 A 
ATOM     14  N   UNL     1      -6.228  -1.563   5.514  0.00  0.00    -0.375 N 
ATOM     15  C   UNL     1      -5.101  -1.557   4.580  0.00  0.00    +0.131 C 
ATOM     16  C   UNL     1      -4.039  -0.529   4.963  0.00  0.00    +0.134 C 
ATOM     17  H   UNL     1      -1.373   0.106   2.067  0.00  0.00    +0.156 HD
ATOM     18  H   UNL     1      -6.173  -1.733   6.467  0.00  0.00    +0.160 HD
ENDROOT
BRANCH  16  19
ATOM     19  C   UNL     1      -4.704   0.771   5.338  0.00  0.00    -0.025 A 
ATOM     20  C   UNL     1      -4.446   1.350   6.567  0.00  0.00    +0.006 A 
ATOM     21  C   UNL     1      -5.056   2.542   6.911  0.00  0.00    +0.004 A 
ATOM     22  C   UNL     1      -5.924   3.155   6.026  0.00  0.00    -0.050 A 
ATOM     23  C   UNL     1      -6.181   2.576   4.798  0.00  0.00    +0.004 A 
ATOM     24  C   UNL     1      -5.568   1.386   4.452  0.00  0.00    +0.006 A 
ATOM     25  C   UNL     1      -6.589   4.454   6.402  0.00  0.00    +0.044 C 
ENDBRANCH  16  19
BRANCH   1  31
ATOM     26  C   UNL     1       1.078  -0.847   1.805  0.00  0.00    -0.026 A 
ATOM     27  C   UNL     1       2.422  -1.151   1.896  0.00  0.00    +0.005 A 
ATOM     28  C   UNL     1       3.031  -1.238   3.134  0.00  0.00    +0.000 A 
ATOM     29  C   UNL     1       2.297  -1.020   4.286  0.00  0.00    +0.002 A 
ATOM     30  C   UNL     1       0.953  -0.715   4.202  0.00  0.00    +0.023 A 
ATOM     31  C   UNL     1       0.339  -0.622   2.959  0.00  0.00    +0.038 A 
BRANCH  26  33
ATOM     32  C   UNL     1       0.408   0.705  -0.010  0.00  0.00    +0.009 C 
ATOM     33  C   UNL     1       0.415  -0.753   0.455  0.00  0.00    +0.033 C 
ENDBRANCH  26  33
ENDBRANCH   1  31
TORSDOF 3
