REMARK  Name = ZINC39955816
REMARK  6 active torsions:
REMARK  status: ('A' for Active; 'I' for Inactive)
REMARK    1  A    between atoms: C_1  and  C_2
REMARK    2  A    between atoms: C_2  and  C_3
REMARK    3  A    between atoms: C_2  and  C_4
REMARK    4  A    between atoms: C_8  and  C_20
REMARK    5  A    between atoms: C_10  and  C_14
REMARK    6  A    between atoms: C_20  and  C_21
REMARK                            x       y       z     vdW  Elec       q    Type
REMARK                         _______ _______ _______ _____ _____    ______ ____
ROOT
ATOM      1  C   UNL     1      -1.419  -0.252  -0.507  0.00  0.00    -0.009 C 
ATOM      2  C   UNL     1      -1.976  -0.914  -1.505  0.00  0.00    +0.091 C 
ATOM      3  N   UNL     1      -3.344  -1.065  -1.318  0.00  0.00    -0.267 N 
ATOM      4  N   UNL     1      -3.752  -0.236  -0.281  0.00  0.00    -0.191 N 
ATOM      5  C   UNL     1      -2.514   0.069   0.480  0.00  0.00    +0.146 C 
ATOM      6  N   UNL     1      -2.572   1.507   0.780  0.00  0.00    -0.323 N 
ATOM      7  C   UNL     1      -3.768   2.005   1.242  0.00  0.00    -0.004 C 
ATOM      8  C   UNL     1      -4.937   1.422   0.901  0.00  0.00    +0.085 C 
ATOM      9  C   UNL     1      -4.946   0.282   0.048  0.00  0.00    +0.259 C 
ATOM     10  O   UNL     1      -5.986  -0.207  -0.353  0.00  0.00    -0.269 OA
ATOM     11  H   UNL     1      -3.921  -1.654  -1.829  0.00  0.00    +0.170 HD
ATOM     12  H   UNL     1      -1.800   2.081   0.656  0.00  0.00    +0.148 HD
ENDROOT
BRANCH   7  13
ATOM     13  C   UNL     1      -3.774   3.216   2.139  0.00  0.00    -0.026 C 
ATOM     14  C   UNL     1      -3.190   4.429   1.385  0.00  0.00    -0.012 C 
ATOM     15  C   UNL     1      -2.367   5.158   2.480  0.00  0.00    -0.020 C 
ATOM     16  C   UNL     1      -1.817   3.966   3.302  0.00  0.00    -0.082 C 
ATOM     17  N   UNL     1      -2.916   2.973   3.313  0.00  0.00    +0.384 N 
ATOM     18  H   UNL     1      -3.460   3.075   4.157  0.00  0.00    -0.085 HD
ATOM     19  H   UNL     1      -2.534   2.041   3.268  0.00  0.00    -0.085 HD
ENDBRANCH   7  13
BRANCH   1  21
ATOM     20  C   UNL     1       0.865  -0.748  -1.335  0.00  0.00    +0.012 C 
ATOM     21  C   UNL     1       0.037   0.111  -0.376  0.00  0.00    +0.014 C 
ATOM     22  C   UNL     1       0.229   1.589  -0.722  0.00  0.00    +0.012 C 
ENDBRANCH   1  21
BRANCH   5  23
ATOM     23  C   UNL     1      -2.398  -0.783   1.746  0.00  0.00    +0.087 C 
BRANCH  23  24
ATOM     24  C   UNL     1      -2.408  -2.243   1.371  0.00  0.00    -0.043 A 
ATOM     25  C   UNL     1      -3.610  -2.912   1.230  0.00  0.00    +0.004 A 
ATOM     26  C   UNL     1      -3.619  -4.250   0.886  0.00  0.00    +0.000 A 
ATOM     27  C   UNL     1      -2.427  -4.920   0.683  0.00  0.00    +0.000 A 
ATOM     28  C   UNL     1      -1.226  -4.251   0.823  0.00  0.00    +0.000 A 
ATOM     29  C   UNL     1      -1.216  -2.911   1.162  0.00  0.00    +0.004 A 
ENDBRANCH  23  24
ENDBRANCH   5  23
TORSDOF 4
