REMARK  Name = ZINC28360386
REMARK  13 active torsions:
REMARK  status: ('A' for Active; 'I' for Inactive)
REMARK    1  A    between atoms: C_1  and  C_2
REMARK    2  A    between atoms: C_2  and  C_3
REMARK    3  A    between atoms: C_3  and  O_4
REMARK    4  A    between atoms: O_4  and  C_5
REMARK    5  A    between atoms: C_5  and  C_7
REMARK    6  A    between atoms: C_10  and  N_13
REMARK    7  A    between atoms: C_14  and  C_16
REMARK    8  A    between atoms: C_16  and  C_18
REMARK    9  A    between atoms: C_16  and  N_19
REMARK   10  A    between atoms: N_19  and  C_20
REMARK   11  A    between atoms: C_23  and  O_26
REMARK   12  A    between atoms: O_26  and  C_27
REMARK   13  A    between atoms: C_27  and  C_28
REMARK                            x       y       z     vdW  Elec       q    Type
REMARK                         _______ _______ _______ _____ _____    ______ ____
ROOT
ATOM      1  C   UNL     1       0.013   0.010  -0.165  0.00  0.00    +0.154 C 
ATOM      2  C   UNL     1      -0.881  -0.518  -1.289  0.00  0.00    +0.038 C 
ENDROOT
BRANCH   1   4
ATOM      3  N   UNL     1      -1.195   2.161   0.019  0.00  0.00    -0.284 N 
ATOM      4  C   UNL     1      -0.024   1.516  -0.159  0.00  0.00    +0.237 C 
ATOM      5  O   UNL     1       0.998   2.149  -0.320  0.00  0.00    -0.273 OA
ATOM      6  H   UNL     1      -2.133   1.590   0.076  0.00  0.00    +0.155 HD
BRANCH   3  10
ATOM      7  C   UNL     1      -1.257   6.312   0.357  0.00  0.00    +0.059 A 
ATOM      8  C   UNL     1      -2.322   5.642  -0.252  0.00  0.00    +0.017 A 
ATOM      9  C   UNL     1      -2.298   4.271  -0.362  0.00  0.00    +0.024 A 
ATOM     10  C   UNL     1      -1.215   3.550   0.132  0.00  0.00    +0.033 A 
ATOM     11  C   UNL     1      -0.155   4.213   0.744  0.00  0.00    +0.024 A 
ATOM     12  C   UNL     1      -0.170   5.585   0.853  0.00  0.00    +0.017 A 
BRANCH   7  13
ATOM     13  C   UNL     1      -1.279   7.782   0.477  0.00  0.00    +0.339 C 
ATOM     14  O   UNL     1      -2.224   8.412   0.046  0.00  0.00    -0.245 OA
BRANCH  13  15
ATOM     15  O   UNL     1      -0.251   8.425   1.064  0.00  0.00    -0.461 OA
BRANCH  15  16
ATOM     16  C   UNL     1      -0.340   9.872   1.147  0.00  0.00    +0.232 C 
BRANCH  16  18
ATOM     17  C   UNL     1       0.815  11.946   1.927  0.00  0.00    +0.007 C 
ATOM     18  C   UNL     1       0.909  10.421   1.840  0.00  0.00    +0.038 C 
ENDBRANCH  16  18
ENDBRANCH  15  16
ENDBRANCH  13  15
ENDBRANCH   7  13
ENDBRANCH   3  10
ENDBRANCH   1   4
BRANCH   1  19
ATOM     19  N   UNL     1       1.389  -0.443  -0.382  0.00  0.00    -0.333 N 
ATOM     20  H   UNL     1       2.107   0.207  -0.903  0.00  0.00    +0.147 HD
BRANCH  19  21
ATOM     21  C   UNL     1       1.790  -1.704   0.073  0.00  0.00    +0.028 A 
ATOM     22  C   UNL     1       0.886  -2.524   0.735  0.00  0.00    +0.026 A 
ATOM     23  C   UNL     1       1.281  -3.771   1.178  0.00  0.00    +0.047 A 
ATOM     24  C   UNL     1       2.584  -4.200   0.973  0.00  0.00    +0.121 A 
ATOM     25  C   UNL     1       3.490  -3.379   0.317  0.00  0.00    +0.047 A 
ATOM     26  C   UNL     1       3.095  -2.135  -0.132  0.00  0.00    +0.026 A 
BRANCH  24  27
ATOM     27  O   UNL     1       2.973  -5.426   1.415  0.00  0.00    -0.483 OA
BRANCH  27  28
ATOM     28  C   UNL     1       1.989  -6.218   2.082  0.00  0.00    +0.324 C 
BRANCH  28  29
ATOM     29  C   UNL     1       2.599  -7.532   2.496  0.00  0.00    +0.248 C 
ATOM     30  O   UNL     1       3.761  -7.768   2.245  0.00  0.00    -0.272 OA
ATOM     31  N   UNL     1       1.851  -8.447   3.146  0.00  0.00    -0.327 N 
ATOM     32  H   UNL     1       2.296  -9.406   3.449  0.00  0.00    +0.145 HD
ATOM     33  H   UNL     1       0.796  -8.233   3.374  0.00  0.00    +0.145 HD
ENDBRANCH  28  29
ENDBRANCH  27  28
ENDBRANCH  24  27
ENDBRANCH  19  21
ENDBRANCH   1  19
TORSDOF 11
