REMARK  Name = ZINC32776031
REMARK  9 active torsions:
REMARK  status: ('A' for Active; 'I' for Inactive)
REMARK    1  A    between atoms: C_1  and  C_2
REMARK    2  A    between atoms: C_2  and  C_4
REMARK    3  A    between atoms: C_2  and  O_15
REMARK    4  A    between atoms: N_6  and  C_7
REMARK    5  A    between atoms: C_8  and  C_12
REMARK    6  A    between atoms: O_15  and  C_16
REMARK    7  A    between atoms: C_16  and  C_18
REMARK    8  A    between atoms: C_27  and  N_30
REMARK    9  A    between atoms: C_31  and  C_33
REMARK                            x       y       z     vdW  Elec       q    Type
REMARK                         _______ _______ _______ _____ _____    ______ ____
ROOT
ATOM      1  O   UNL     1       0.671  -0.465  -1.174  0.00  0.00    -0.452 OA
ENDROOT
BRANCH   1   3
ATOM      2  C   UNL     1      -0.019   1.526   0.010  0.00  0.00    +0.062 C 
ATOM      3  C   UNL     1       0.002  -0.004   0.002  0.00  0.00    +0.259 C 
BRANCH   3   4
ATOM      4  C   UNL     1       0.731  -0.503   1.223  0.00  0.00    +0.258 C 
ATOM      5  O   UNL     1       1.774  -1.109   1.101  0.00  0.00    -0.271 OA
ATOM      6  N   UNL     1       0.223  -0.277   2.451  0.00  0.00    -0.276 N 
ATOM      7  H   UNL     1      -0.611   0.208   2.548  0.00  0.00    +0.155 HD
BRANCH   6   8
ATOM      8  C   UNL     1       0.894  -0.736   3.574  0.00  0.00    +0.084 A 
ATOM      9  C   UNL     1       0.522  -0.601   4.904  0.00  0.00    +0.065 A 
ATOM     10  C   UNL     1       1.411  -1.179   5.885  0.00  0.00    +0.022 A 
ATOM     11  C   UNL     1       2.508  -1.787   5.397  0.00  0.00    +0.048 A 
ATOM     12  S   UNL     1       2.338  -1.588   3.637  0.00  0.00    -0.081 S 
BRANCH   9  13
ATOM     13  C   UNL     1      -0.710   0.092   5.293  0.00  0.00    +0.244 C 
ATOM     14  O   UNL     1      -1.436   0.568   4.440  0.00  0.00    -0.270 OA
ATOM     15  N   UNL     1      -1.038   0.203   6.596  0.00  0.00    -0.325 N 
ATOM     16  H   UNL     1      -0.459  -0.176   7.276  0.00  0.00    +0.145 HD
ATOM     17  H   UNL     1      -1.853   0.661   6.854  0.00  0.00    +0.145 HD
ENDBRANCH   9  13
ENDBRANCH   6   8
ENDBRANCH   3   4
ENDBRANCH   1   3
BRANCH   1  18
ATOM     18  C   UNL     1      -0.085  -0.672  -2.263  0.00  0.00    +0.314 C 
ATOM     19  O   UNL     1      -1.276  -0.469  -2.220  0.00  0.00    -0.250 OA
BRANCH  18  20
ATOM     20  C   UNL     1       0.551  -1.158  -3.540  0.00  0.00    +0.070 C 
ATOM     21  C   UNL     1       1.599  -0.146  -4.005  0.00  0.00    +0.021 C 
ATOM     22  C   UNL     1       2.245  -0.639  -5.302  0.00  0.00    -0.008 C 
ATOM     23  C   UNL     1       2.916  -1.992  -5.055  0.00  0.00    +0.007 C 
ATOM     24  C   UNL     1       1.867  -3.004  -4.590  0.00  0.00    -0.008 C 
ATOM     25  C   UNL     1       1.222  -2.511  -3.293  0.00  0.00    +0.021 C 
ATOM     26  C   UNL     1       0.793  -3.158  -5.668  0.00  0.00    +0.029 C 
ATOM     27  C   UNL     1       0.122  -1.805  -5.915  0.00  0.00    +0.036 C 
ATOM     28  C   UNL     1       1.170  -0.793  -6.380  0.00  0.00    +0.029 C 
ATOM     29  C   UNL     1      -0.524  -1.312  -4.619  0.00  0.00    +0.043 C 
BRANCH  27  30
ATOM     30  N   UNL     1      -0.907  -1.952  -6.948  0.00  0.00    -0.310 N 
ATOM     31  C   UNL     1      -0.568  -2.377  -8.181  0.00  0.00    +0.210 C 
ATOM     32  O   UNL     1       0.588  -2.639  -8.436  0.00  0.00    -0.276 OA
ATOM     33  C   UNL     1      -1.627  -2.528  -9.243  0.00  0.00    +0.109 C 
ATOM     34  H   UNL     1      -1.832  -1.743  -6.744  0.00  0.00    +0.149 HD
ENDBRANCH  27  30
ENDBRANCH  18  20
ENDBRANCH   1  18
TORSDOF 7
