REMARK  Name = ZINC37359789
REMARK  8 active torsions:
REMARK  status: ('A' for Active; 'I' for Inactive)
REMARK    1  A    between atoms: C_1  and  C_2
REMARK    2  A    between atoms: C_6  and  N_8
REMARK    3  A    between atoms: C_9  and  N_29
REMARK    4  A    between atoms: C_11  and  C_22
REMARK    5  A    between atoms: N_17  and  C_18
REMARK    6  A    between atoms: C_18  and  C_19
REMARK    7  A    between atoms: C_19  and  C_20
REMARK    8  A    between atoms: C_19  and  C_21
REMARK                            x       y       z     vdW  Elec       q    Type
REMARK                         _______ _______ _______ _____ _____    ______ ____
ROOT
ATOM      1  N   UNL     1      -0.293  -2.682   2.574  0.00  0.00    -0.216 N 
ATOM      2  C   UNL     1      -0.632  -3.983   2.666  0.00  0.00    +0.131 A 
ATOM      3  C   UNL     1      -0.083  -4.475   3.844  0.00  0.00    +0.086 A 
ATOM      4  C   UNL     1      -0.067  -5.721   4.510  0.00  0.00    +0.089 A 
ATOM      5  N   UNL     1       0.588  -5.810   5.661  0.00  0.00    -0.214 NA
ATOM      6  C   UNL     1       1.220  -4.771   6.197  0.00  0.00    +0.218 A 
ATOM      7  N   UNL     1       1.256  -3.576   5.645  0.00  0.00    -0.193 NA
ATOM      8  C   UNL     1       0.631  -3.349   4.474  0.00  0.00    +0.189 A 
ATOM      9  N   UNL     1       0.481  -2.312   3.679  0.00  0.00    -0.144 NA
ATOM     10  N   UNL     1       1.876  -4.956   7.401  0.00  0.00    -0.313 N 
ATOM     11  H   UNL     1       1.867  -5.825   7.830  0.00  0.00    +0.149 HD
ENDROOT
BRANCH   1  17
ATOM     12  C   UNL     1      -1.570   1.803   1.014  0.00  0.00    +0.044 C 
ATOM     13  C   UNL     1      -1.281   0.349   0.741  0.00  0.00    -0.048 A 
ATOM     14  C   UNL     1      -1.374  -0.143  -0.549  0.00  0.00    +0.003 A 
ATOM     15  C   UNL     1      -1.109  -1.476  -0.804  0.00  0.00    +0.002 A 
ATOM     16  C   UNL     1      -0.750  -2.320   0.229  0.00  0.00    +0.028 A 
ATOM     17  C   UNL     1      -0.656  -1.829   1.525  0.00  0.00    +0.068 A 
ATOM     18  C   UNL     1      -0.918  -0.488   1.777  0.00  0.00    +0.031 A 
ENDBRANCH   1  17
BRANCH   4  19
ATOM     19  C   UNL     1      -0.762  -6.896   3.938  0.00  0.00    +0.004 A 
ATOM     20  C   UNL     1      -0.606  -7.214   2.588  0.00  0.00    +0.010 A 
ATOM     21  C   UNL     1      -1.256  -8.311   2.060  0.00  0.00    +0.003 A 
ATOM     22  C   UNL     1      -2.062  -9.096   2.865  0.00  0.00    +0.038 A 
ATOM     23  C   UNL     1      -2.222  -8.786   4.207  0.00  0.00    +0.124 A 
ATOM     24  C   UNL     1      -1.571  -7.694   4.748  0.00  0.00    +0.048 A 
ATOM     25  F   UNL     1      -3.011  -9.556   4.987  0.00  0.00    -0.205 F 
ENDBRANCH   4  19
BRANCH   2  26
ATOM     26  N   UNL     1      -1.388  -4.697   1.756  0.00  0.00    -0.342 N 
ATOM     27  H   UNL     1      -1.589  -4.315   0.887  0.00  0.00    +0.144 HD
ATOM     28  H   UNL     1      -1.717  -5.580   1.986  0.00  0.00    +0.144 HD
ENDBRANCH   2  26
BRANCH  10  29
ATOM     29  C   UNL     1       2.586  -3.837   8.027  0.00  0.00    +0.107 C 
BRANCH  29  30
ATOM     30  C   UNL     1       3.220  -4.306   9.338  0.00  0.00    -0.000 C 
ATOM     31  C   UNL     1       4.296  -5.352   9.040  0.00  0.00    +0.009 C 
ATOM     32  C   UNL     1       3.854  -3.111  10.054  0.00  0.00    +0.009 C 
ENDBRANCH  29  30
ENDBRANCH  10  29
TORSDOF 5
