REMARK  Name = ZINC54410016
REMARK  9 active torsions:
REMARK  status: ('A' for Active; 'I' for Inactive)
REMARK    1  A    between atoms: C_1  and  C_2
REMARK    2  A    between atoms: C_6  and  O_8
REMARK    3  A    between atoms: O_8  and  C_9
REMARK    4  A    between atoms: C_9  and  C_10
REMARK    5  A    between atoms: C_10  and  C_12
REMARK    6  A    between atoms: C_10  and  N_13
REMARK    7  A    between atoms: N_16  and  C_17
REMARK    8  A    between atoms: C_22  and  C_23
REMARK    9  A    between atoms: C_23  and  C_24
REMARK                            x       y       z     vdW  Elec       q    Type
REMARK                         _______ _______ _______ _____ _____    ______ ____
ROOT
ATOM      1  N   UNL     1      -1.179  -4.474   4.355  0.00  0.00    -0.293 N 
ATOM      2  C   UNL     1      -1.622  -5.250   5.364  0.00  0.00    +0.304 C 
ATOM      3  O   UNL     1      -0.984  -6.226   5.705  0.00  0.00    -0.252 OA
ATOM      4  N   UNL     1      -2.773  -4.943   5.995  0.00  0.00    -0.269 N 
ATOM      5  H   UNL     1      -1.689  -3.694   4.083  0.00  0.00    +0.151 HD
ATOM      6  H   UNL     1      -3.240  -4.121   5.779  0.00  0.00    +0.156 HD
ENDROOT
BRANCH   4   7
ATOM      7  C   UNL     1      -3.294  -5.810   6.961  0.00  0.00    +0.038 A 
ATOM      8  C   UNL     1      -2.972  -7.161   6.930  0.00  0.00    +0.023 A 
ATOM      9  C   UNL     1      -3.488  -8.015   7.885  0.00  0.00    +0.002 A 
ATOM     10  C   UNL     1      -4.324  -7.526   8.872  0.00  0.00    +0.000 A 
ATOM     11  C   UNL     1      -4.646  -6.182   8.906  0.00  0.00    +0.006 A 
ATOM     12  C   UNL     1      -4.129  -5.322   7.957  0.00  0.00    -0.017 A 
BRANCH  12  13
ATOM     13  C   UNL     1      -4.476  -3.856   7.998  0.00  0.00    +0.132 C 
BRANCH  13  14
ATOM     14  C   UNL     1      -5.647  -3.591   7.087  0.00  0.00    +0.215 C 
ATOM     15  O   UNL     1      -6.151  -4.503   6.466  0.00  0.00    -0.276 OA
ATOM     16  N   UNL     1      -6.135  -2.341   6.963  0.00  0.00    -0.329 N 
ATOM     17  H   UNL     1      -5.733  -1.611   7.460  0.00  0.00    +0.145 HD
ATOM     18  H   UNL     1      -6.889  -2.170   6.377  0.00  0.00    +0.145 HD
ENDBRANCH  13  14
ENDBRANCH  12  13
ENDBRANCH   4   7
BRANCH   1  19
ATOM     19  C   UNL     1       0.072  -4.807   3.669  0.00  0.00    +0.109 C 
ATOM     20  C   UNL     1       1.251  -4.218   4.445  0.00  0.00    +0.031 C 
BRANCH  19  21
ATOM     21  C   UNL     1       0.050  -4.224   2.255  0.00  0.00    +0.251 C 
BRANCH  21  22
ATOM     22  O   UNL     1       0.027  -2.797   2.328  0.00  0.00    -0.490 OA
BRANCH  22  28
ATOM     23  C   UNL     1      -0.064   1.462  -0.054  0.00  0.00    +0.044 C 
ATOM     24  C   UNL     1      -0.039  -0.045  -0.050  0.00  0.00    -0.047 A 
ATOM     25  C   UNL     1      -0.039  -0.739  -1.246  0.00  0.00    +0.003 A 
ATOM     26  C   UNL     1      -0.017  -2.121  -1.246  0.00  0.00    +0.004 A 
ATOM     27  C   UNL     1       0.006  -2.813  -0.051  0.00  0.00    +0.045 A 
ATOM     28  C   UNL     1       0.006  -2.119   1.151  0.00  0.00    +0.121 A 
ATOM     29  C   UNL     1      -0.011  -0.732   1.148  0.00  0.00    +0.049 A 
ENDBRANCH  22  28
ENDBRANCH  21  22
ENDBRANCH  19  21
ENDBRANCH   1  19
TORSDOF 7
