REMARK  Name = ZINC57369478
REMARK  4 active torsions:
REMARK  status: ('A' for Active; 'I' for Inactive)
REMARK    1  A    between atoms: C_1  and  C_2
REMARK    2  A    between atoms: C_7  and  N_8
REMARK    3  A    between atoms: N_11  and  C_14
REMARK    4  A    between atoms: C_14  and  C_15
REMARK                            x       y       z     vdW  Elec       q    Type
REMARK                         _______ _______ _______ _____ _____    ______ ____
ROOT
ATOM      1  N   UNL     1       0.025  -0.016   2.415  0.00  0.00    -0.333 N 
ATOM      2  C   UNL     1      -1.235   0.335   3.088  0.00  0.00    +0.086 C 
ATOM      3  C   UNL     1      -1.150  -0.123   4.548  0.00  0.00    -0.059 C 
ATOM      4  N   UNL     1       0.049   0.450   5.171  0.00  0.00    +0.386 N 
ATOM      5  C   UNL     1       1.254  -0.081   4.519  0.00  0.00    -0.059 C 
ATOM      6  C   UNL     1       1.288   0.374   3.061  0.00  0.00    +0.086 C 
ATOM      7  H   UNL     1       0.030   1.454   5.073  0.00  0.00    -0.081 HD
ENDROOT
BRANCH   1  14
ATOM      8  C   UNL     1      -0.018   1.503   0.010  0.00  0.00    +0.045 C 
ATOM      9  C   UNL     1       0.002  -0.004   0.002  0.00  0.00    -0.029 A 
ATOM     10  C   UNL     1       0.006  -0.689  -1.198  0.00  0.00    +0.005 A 
ATOM     11  C   UNL     1       0.024  -2.071  -1.206  0.00  0.00    +0.000 A 
ATOM     12  C   UNL     1       0.039  -2.773  -0.014  0.00  0.00    +0.002 A 
ATOM     13  C   UNL     1       0.036  -2.095   1.188  0.00  0.00    +0.023 A 
ATOM     14  C   UNL     1       0.023  -0.706   1.200  0.00  0.00    +0.033 A 
ENDBRANCH   1  14
BRANCH   4  15
ATOM     15  C   UNL     1       0.072   0.101   6.598  0.00  0.00    -0.001 C 
BRANCH  15  16
ATOM     16  C   UNL     1       1.235   0.790   7.264  0.00  0.00    +0.117 A 
ATOM     17  N   UNL     1       2.397   0.160   7.301  0.00  0.00    -0.195 NA
ATOM     18  C   UNL     1       3.449   0.735   7.881  0.00  0.00    +0.288 A 
ATOM     19  O   UNL     1       4.647   0.104   7.927  0.00  0.00    -0.265 OA
ATOM     20  C   UNL     1       3.288   1.991   8.434  0.00  0.00    +0.104 A 
ATOM     21  C   UNL     1       2.042   2.654   8.389  0.00  0.00    +0.085 A 
ATOM     22  N   UNL     1       1.042   1.980   7.770  0.00  0.00    -0.233 NA
ATOM     23  C   UNL     1       2.015   3.926   8.989  0.00  0.00    +0.036 A 
ATOM     24  C   UNL     1       3.128   4.431   9.553  0.00  0.00    +0.048 A 
ATOM     25  S   UNL     1       4.333   3.141   9.287  0.00  0.00    -0.090 S 
ENDBRANCH  15  16
ENDBRANCH   4  15
TORSDOF 3
