REMARK  Name = ZINC36660026
REMARK  5 active torsions:
REMARK  status: ('A' for Active; 'I' for Inactive)
REMARK    1  A    between atoms: C_1  and  C_2
REMARK    2  A    between atoms: C_18  and  S_19
REMARK    3  A    between atoms: S_19  and  C_20
REMARK    4  A    between atoms: C_20  and  C_21
REMARK    5  A    between atoms: C_21  and  N_23
REMARK                            x       y       z     vdW  Elec       q    Type
REMARK                         _______ _______ _______ _____ _____    ______ ____
ROOT
ATOM      1  C   UNL     1       0.035   1.503  -0.007  0.00  0.00    +0.045 C 
ATOM      2  C   UNL     1       0.028  -0.004  -0.006  0.00  0.00    -0.034 A 
ATOM      3  C   UNL     1      -0.713  -0.700  -0.965  0.00  0.00    +0.008 A 
ATOM      4  C   UNL     1      -0.706  -2.081  -0.947  0.00  0.00    +0.043 A 
ATOM      5  C   UNL     1       0.040  -2.744   0.027  0.00  0.00    +0.111 A 
ATOM      6  N   UNL     1       0.748  -2.032   0.943  0.00  0.00    -0.349 N 
ATOM      7  C   UNL     1       0.746  -0.686   0.923  0.00  0.00    +0.087 A 
ATOM      8  N   UNL     1       0.059  -4.104   0.060  0.00  0.00    -0.200 N 
ATOM      9  C   UNL     1      -0.034  -4.800  -1.092  0.00  0.00    +0.260 C 
ATOM     10  O   UNL     1      -0.135  -4.233  -2.168  0.00  0.00    -0.269 OA
ATOM     11  C   UNL     1      -0.009  -6.266  -1.001  0.00  0.00    +0.063 A 
ATOM     12  C   UNL     1      -0.098  -7.079  -2.130  0.00  0.00    +0.015 A 
ATOM     13  C   UNL     1      -0.068  -8.438  -1.984  0.00  0.00    +0.001 A 
ATOM     14  C   UNL     1       0.049  -9.016  -0.725  0.00  0.00    +0.002 A 
ATOM     15  C   UNL     1       0.138  -8.244   0.398  0.00  0.00    +0.028 A 
ATOM     16  C   UNL     1       0.111  -6.849   0.282  0.00  0.00    +0.079 A 
ATOM     17  N   UNL     1       0.196  -6.045   1.356  0.00  0.00    -0.225 NA
ATOM     18  C   UNL     1       0.175  -4.736   1.237  0.00  0.00    +0.170 C 
ATOM     19  H   UNL     1       1.265  -2.500   1.618  0.00  0.00    +0.167 HD
ENDROOT
BRANCH  18  20
ATOM     20  S   UNL     1       0.299  -3.761   2.699  0.00  0.00    -0.080 S 
BRANCH  20  21
ATOM     21  C   UNL     1       0.436  -4.985   4.032  0.00  0.00    +0.175 C 
BRANCH  21  22
ATOM     22  C   UNL     1       0.550  -4.275   5.356  0.00  0.00    +0.249 C 
ATOM     23  O   UNL     1       0.540  -3.059   5.397  0.00  0.00    -0.273 OA
BRANCH  22  24
ATOM     24  N   UNL     1       0.662  -4.977   6.479  0.00  0.00    -0.156 NA
ATOM     25  C   UNL     1       0.763  -4.349   7.649  0.00  0.00    +0.164 A 
ATOM     26  N   UNL     1       0.889  -4.903   8.881  0.00  0.00    -0.335 N 
ATOM     27  C   UNL     1       0.981  -4.088   9.995  0.00  0.00    +0.055 A 
ATOM     28  C   UNL     1       1.115  -4.444  11.344  0.00  0.00    +0.029 A 
ATOM     29  C   UNL     1       1.191  -3.478  12.320  0.00  0.00    +0.040 A 
ATOM     30  C   UNL     1       1.138  -2.130  12.001  0.00  0.00    +0.125 A 
ATOM     31  C   UNL     1       1.007  -1.752  10.674  0.00  0.00    +0.055 A 
ATOM     32  C   UNL     1       0.931  -2.718   9.699  0.00  0.00    +0.041 A 
ATOM     33  S   UNL     1       0.770  -2.693   7.933  0.00  0.00    -0.052 S 
ATOM     34  F   UNL     1       1.214  -1.194  12.973  0.00  0.00    -0.205 F 
ATOM     35  H   UNL     1       0.914  -5.867   8.981  0.00  0.00    +0.168 HD
ENDBRANCH  22  24
ENDBRANCH  21  22
ENDBRANCH  20  21
ENDBRANCH  18  20
TORSDOF 4
