REMARK  Name = ZINC61365432
REMARK  3 active torsions:
REMARK  status: ('A' for Active; 'I' for Inactive)
REMARK    1  A    between atoms: C_6  and  S_7
REMARK    2  A    between atoms: S_7  and  N_10
REMARK    3  A    between atoms: N_10  and  C_11
REMARK                            x       y       z     vdW  Elec       q    Type
REMARK                         _______ _______ _______ _____ _____    ______ ____
ROOT
ATOM      1  N   UNL     1      -1.939  -1.161  -1.568  0.00  0.00    -0.182 NA
ATOM      2  H   UNL     1      -2.750  -0.758  -1.916  0.00  0.00    +0.149 HD
ENDROOT
BRANCH   1   3
ATOM      3  C   UNL     1      -1.099  -1.987  -2.438  0.00  0.00    +0.107 C 
ATOM      4  C   UNL     1      -1.129  -1.427  -3.861  0.00  0.00    +0.025 C 
ATOM      5  C   UNL     1      -2.530  -1.591  -4.459  0.00  0.00    +0.007 C 
ATOM      6  C   UNL     1      -2.779  -3.083  -4.729  0.00  0.00    +0.043 C 
ATOM      7  C   UNL     1      -2.381  -3.853  -3.512  0.00  0.00    -0.005 A 
ATOM      8  C   UNL     1      -1.633  -3.417  -2.458  0.00  0.00    -0.019 A 
ATOM      9  C   UNL     1      -1.398  -4.333  -1.434  0.00  0.00    +0.013 A 
ATOM     10  C   UNL     1      -1.901  -5.586  -1.517  0.00  0.00    +0.046 A 
ATOM     11  S   UNL     1      -2.758  -5.533  -3.093  0.00  0.00    -0.101 S 
ENDBRANCH   1   3
BRANCH   1  12
ATOM     12  S   UNL     1      -1.505  -0.916   0.011  0.00  0.00    +0.060 S 
ATOM     13  O   UNL     1      -1.203  -2.195   0.553  0.00  0.00    -0.153 OA
ATOM     14  O   UNL     1      -2.492  -0.064   0.576  0.00  0.00    -0.153 OA
BRANCH  12  20
ATOM     15  C   UNL     1      -0.017   1.383   0.010  0.00  0.00    +0.033 A 
ATOM     16  C   UNL     1       1.193   2.059   0.002  0.00  0.00    +0.042 A 
ATOM     17  C   UNL     1       2.371   1.333  -0.013  0.00  0.00    +0.129 A 
ATOM     18  N   UNL     1       2.350   0.014  -0.021  0.00  0.00    -0.242 NA
ATOM     19  C   UNL     1       1.217  -0.662  -0.014  0.00  0.00    +0.141 A 
ATOM     20  C   UNL     1       0.002  -0.004   0.002  0.00  0.00    +0.123 A 
ATOM     21 CL   UNL     1       3.893   2.168  -0.024  0.00  0.00    -0.062 Cl
ENDBRANCH  12  20
ENDBRANCH   1  12
TORSDOF 3
