REMARK  Name = ZINC10659868
REMARK  13 active torsions:
REMARK  status: ('A' for Active; 'I' for Inactive)
REMARK    1  A    between atoms: C_1  and  C_2
REMARK    2  A    between atoms: C_2  and  C_3
REMARK    3  A    between atoms: C_2  and  C_4
REMARK    4  A    between atoms: C_4  and  N_5
REMARK    5  A    between atoms: C_6  and  N_27
REMARK    6  A    between atoms: C_7  and  N_14
REMARK    7  A    between atoms: N_14  and  C_15
REMARK    8  A    between atoms: N_14  and  C_20
REMARK    9  A    between atoms: C_15  and  C_16
REMARK   10  A    between atoms: C_16  and  C_17
REMARK   11  A    between atoms: C_17  and  O_18
REMARK   12  A    between atoms: O_18  and  C_19
REMARK   13  A    between atoms: C_20  and  C_21
REMARK                            x       y       z     vdW  Elec       q    Type
REMARK                         _______ _______ _______ _____ _____    ______ ____
ROOT
ATOM      1  N   UNL     1       1.289   3.633   0.539  0.00  0.00    -0.280 N 
ATOM      2  C   UNL     1       0.027   4.165   0.402  0.00  0.00    +0.127 A 
ATOM      3  C   UNL     1      -1.046   3.325   0.290  0.00  0.00    +0.133 A 
ATOM      4  C   UNL     1      -0.830   1.935   0.313  0.00  0.00    +0.277 A 
ATOM      5  O   UNL     1      -1.771   1.166   0.209  0.00  0.00    -0.266 OA
ATOM      6  N   UNL     1       0.422   1.459   0.455  0.00  0.00    -0.273 N 
ATOM      7  H   UNL     1       0.577   0.471   0.479  0.00  0.00    +0.173 HD
ATOM      8  C   UNL     1       1.467   2.300   0.564  0.00  0.00    +0.331 A 
ATOM      9  O   UNL     1       2.589   1.847   0.686  0.00  0.00    -0.246 OA
ENDROOT
BRANCH   2  10
ATOM     10  N   UNL     1      -0.153   5.529   0.377  0.00  0.00    -0.343 N 
ATOM     11  H   UNL     1       0.612   6.121   0.456  0.00  0.00    +0.144 HD
ATOM     12  H   UNL     1      -1.044   5.899   0.280  0.00  0.00    +0.144 HD
ENDBRANCH   2  10
BRANCH   1  13
ATOM     13  C   UNL     1       2.446   4.524   0.660  0.00  0.00    +0.131 C 
BRANCH  13  15
ATOM     14  C   UNL     1       4.131   5.856  -0.618  0.00  0.00    +0.009 C 
ATOM     15  C   UNL     1       3.002   4.829  -0.733  0.00  0.00    +0.003 C 
ATOM     16  C   UNL     1       3.546   3.542  -1.358  0.00  0.00    +0.009 C 
ENDBRANCH  13  15
ENDBRANCH   1  13
BRANCH   3  17
ATOM     17  N   UNL     1      -2.354   3.845   0.147  0.00  0.00    -0.323 N 
BRANCH  17  18
ATOM     18  C   UNL     1      -2.929   3.474  -1.152  0.00  0.00    +0.107 C 
BRANCH  18  19
ATOM     19  C   UNL     1      -2.301   4.333  -2.252  0.00  0.00    +0.047 C 
BRANCH  19  20
ATOM     20  C   UNL     1      -2.990   4.037  -3.586  0.00  0.00    +0.161 C 
BRANCH  20  21
ATOM     21  O   UNL     1      -2.404   4.840  -4.613  0.00  0.00    -0.383 OA
ATOM     22  C   UNL     1      -2.978   4.639  -5.906  0.00  0.00    +0.193 C 
ENDBRANCH  20  21
ENDBRANCH  19  20
ENDBRANCH  18  19
ENDBRANCH  17  18
BRANCH  17  23
ATOM     23  C   UNL     1      -3.218   3.406   1.251  0.00  0.00    +0.109 C 
BRANCH  23  24
ATOM     24  C   UNL     1      -4.470   4.285   1.299  0.00  0.00    +0.006 C 
ATOM     25  C   UNL     1      -4.065   5.732   1.588  0.00  0.00    +0.005 C 
ATOM     26  C   UNL     1      -5.316   6.612   1.637  0.00  0.00    +0.000 C 
ATOM     27  C   UNL     1      -6.248   6.112   2.743  0.00  0.00    +0.000 C 
ATOM     28  C   UNL     1      -6.652   4.665   2.454  0.00  0.00    +0.000 C 
ATOM     29  C   UNL     1      -5.401   3.786   2.405  0.00  0.00    +0.005 C 
ENDBRANCH  23  24
ENDBRANCH  17  23
ENDBRANCH   3  17
TORSDOF 10
