REMARK  Name = ZINC29336458
REMARK  6 active torsions:
REMARK  status: ('A' for Active; 'I' for Inactive)
REMARK    1  A    between atoms: C_1  and  C_2
REMARK    2  A    between atoms: C_9  and  C_11
REMARK    3  A    between atoms: N_13  and  N_14
REMARK    4  A    between atoms: N_17  and  C_18
REMARK    5  A    between atoms: C_18  and  C_20
REMARK    6  A    between atoms: C_18  and  C_21
REMARK                            x       y       z     vdW  Elec       q    Type
REMARK                         _______ _______ _______ _____ _____    ______ ____
ROOT
ATOM      1  C   UNL     1       1.932  -5.253   2.754  0.00  0.00    +0.267 C 
ATOM      2  O   UNL     1       2.879  -4.985   3.470  0.00  0.00    -0.268 OA
ATOM      3  N   UNL     1       1.542  -6.534   2.603  0.00  0.00    -0.229 N 
ATOM      4  H   UNL     1       0.787  -6.747   2.032  0.00  0.00    +0.173 HD
ENDROOT
BRANCH   1  12
ATOM      5  C   UNL     1      -0.019   1.526   0.010  0.00  0.00    +0.008 C 
ATOM      6  C   UNL     1       0.002  -0.004   0.002  0.00  0.00    -0.009 C 
ATOM      7  C   UNL     1      -1.435  -0.533   0.009  0.00  0.00    +0.009 C 
ATOM      8  C   UNL     1      -1.408  -2.041  -0.272  0.00  0.00    +0.043 C 
ATOM      9  C   UNL     1      -0.377  -2.671   0.618  0.00  0.00    -0.006 A 
ATOM     10  C   UNL     1       0.604  -2.027   1.313  0.00  0.00    -0.036 A 
ATOM     11  C   UNL     1       1.449  -2.818   2.077  0.00  0.00    +0.024 A 
ATOM     12  C   UNL     1       1.214  -4.181   2.057  0.00  0.00    +0.076 A 
ATOM     13  S   UNL     1      -0.189  -4.294   0.963  0.00  0.00    -0.088 S 
ATOM     14  C   UNL     1       0.745  -0.509   1.239  0.00  0.00    +0.039 C 
ENDBRANCH   1  12
BRANCH   3  15
ATOM     15  N   UNL     1       2.228  -7.558   3.269  0.00  0.00    -0.218 N 
ATOM     16  C   UNL     1       1.839  -8.839   3.117  0.00  0.00    +0.316 C 
ATOM     17  O   UNL     1       2.434  -9.728   3.695  0.00  0.00    -0.251 OA
ATOM     18  N   UNL     1       0.789  -9.136   2.324  0.00  0.00    -0.290 N 
ATOM     19  H   UNL     1       2.983  -7.345   3.839  0.00  0.00    +0.174 HD
ATOM     20  H   UNL     1       0.315  -8.426   1.863  0.00  0.00    +0.151 HD
BRANCH  18  21
ATOM     21  C   UNL     1       0.366 -10.528   2.159  0.00  0.00    +0.120 C 
ATOM     22  C   UNL     1      -0.576 -10.914   3.302  0.00  0.00    +0.034 C 
BRANCH  21  23
ATOM     23  C   UNL     1      -0.351 -10.683   0.843  0.00  0.00    +0.061 A 
ATOM     24  C   UNL     1      -0.391 -11.920   0.228  0.00  0.00    +0.025 A 
ATOM     25  C   UNL     1      -1.053 -12.051  -0.983  0.00  0.00    +0.003 A 
ATOM     26  C   UNL     1      -1.654 -10.928  -1.532  0.00  0.00    +0.020 A 
ATOM     27  C   UNL     1      -1.573  -9.724  -0.859  0.00  0.00    +0.111 A 
ATOM     28  N   UNL     1      -0.939  -9.637   0.294  0.00  0.00    -0.258 NA
ENDBRANCH  21  23
ENDBRANCH  18  21
ENDBRANCH   3  15
TORSDOF 4
