REMARK  Name = ZINC36274009
REMARK  5 active torsions:
REMARK  status: ('A' for Active; 'I' for Inactive)
REMARK    1  A    between atoms: C_3  and  N_25
REMARK    2  A    between atoms: C_6  and  C_7
REMARK    3  A    between atoms: C_8  and  C_17
REMARK    4  A    between atoms: C_11  and  N_16
REMARK    5  A    between atoms: C_17  and  N_18
REMARK                            x       y       z     vdW  Elec       q    Type
REMARK                         _______ _______ _______ _____ _____    ______ ____
ROOT
ATOM      1  C   UNL     1      -1.285  -0.744  -0.020  0.00  0.00    +0.091 A 
ATOM      2  C   UNL     1      -1.527  -1.901  -0.699  0.00  0.00    +0.035 A 
ATOM      3  N   UNL     1      -2.793  -2.299  -0.376  0.00  0.00    -0.303 N 
ATOM      4  C   UNL     1      -3.546  -3.376  -0.758  0.00  0.00    +0.115 A 
ATOM      5  C   UNL     1      -4.803  -3.542  -0.280  0.00  0.00    +0.041 A 
ATOM      6  C   UNL     1      -5.348  -2.603   0.619  0.00  0.00    +0.028 A 
ATOM      7  C   UNL     1      -4.607  -1.530   1.004  0.00  0.00    +0.048 A 
ATOM      8  C   UNL     1      -3.300  -1.373   0.497  0.00  0.00    +0.138 A 
ATOM      9  N   UNL     1      -2.375  -0.446   0.704  0.00  0.00    -0.228 NA
ENDROOT
BRANCH   1  15
ATOM     10  C   UNL     1      -0.082   1.434  -0.172  0.00  0.00    +0.012 A 
ATOM     11  C   UNL     1       1.089   2.164  -0.216  0.00  0.00    +0.033 A 
ATOM     12  C   UNL     1       2.312   1.520  -0.158  0.00  0.00    +0.126 A 
ATOM     13  C   UNL     1       2.368   0.142  -0.056  0.00  0.00    +0.033 A 
ATOM     14  C   UNL     1       1.204  -0.598  -0.011  0.00  0.00    +0.012 A 
ATOM     15  C   UNL     1      -0.030   0.046  -0.069  0.00  0.00    +0.002 A 
BRANCH  12  16
ATOM     16  N   UNL     1       3.564   2.308  -0.207  0.00  0.00    +0.056 N 
ATOM     17  O   UNL     1       3.517   3.513  -0.296  0.00  0.00    -0.126 OA
ATOM     18  O   UNL     1       4.634   1.748  -0.156  0.00  0.00    -0.126 OA
ENDBRANCH  12  16
ENDBRANCH   1  15
BRANCH   5  19
ATOM     19  N   UNL     1      -5.563  -4.649  -0.680  0.00  0.00    -0.357 N 
ATOM     20  H   UNL     1      -5.189  -5.296  -1.299  0.00  0.00    +0.142 HD
ATOM     21  H   UNL     1      -6.463  -4.769  -0.339  0.00  0.00    +0.142 HD
ENDBRANCH   5  19
BRANCH   2  22
ATOM     22  C   UNL     1      -0.577  -2.609  -1.630  0.00  0.00    -0.022 C 
BRANCH  22  23
ATOM     23  N   UNL     1      -0.647  -1.993  -2.962  0.00  0.00    +0.383 N 
ATOM     24  C   UNL     1      -2.021  -2.140  -3.479  0.00  0.00    -0.078 C 
ATOM     25  C   UNL     1      -2.266  -1.048  -4.490  0.00  0.00    -0.019 C 
ATOM     26  C   UNL     1      -2.013  -1.542  -5.927  0.00  0.00    -0.002 C 
ATOM     27  C   UNL     1      -0.765  -2.445  -6.010  0.00  0.00    -0.002 C 
ATOM     28  C   UNL     1       0.376  -1.925  -5.174  0.00  0.00    -0.019 C 
ATOM     29  C   UNL     1       0.319  -2.583  -3.779  0.00  0.00    -0.078 C 
ATOM     30  H   UNL     1      -0.440  -1.009  -2.874  0.00  0.00    -0.081 HD
ENDBRANCH  22  23
ENDBRANCH   2  22
TORSDOF 5
