REMARK  Name = ZINC09356326
REMARK  6 active torsions:
REMARK  status: ('A' for Active; 'I' for Inactive)
REMARK    1  A    between atoms: C_1  and  C_2
REMARK    2  A    between atoms: C_2  and  C_3
REMARK    3  A    between atoms: C_3  and  N_4
REMARK    4  A    between atoms: C_5  and  C_6
REMARK    5  A    between atoms: C_5  and  C_7
REMARK    6  A    between atoms: C_8  and  C_23
REMARK                            x       y       z     vdW  Elec       q    Type
REMARK                         _______ _______ _______ _____ _____    ______ ____
ROOT
ATOM      1  C   UNL     1       1.801  -4.047   1.467  0.00  0.00    +0.087 A 
ATOM      2  C   UNL     1       2.740  -5.008   1.092  0.00  0.00    +0.077 A 
ATOM      3  N   UNL     1       2.108  -6.218   1.041  0.00  0.00    -0.287 N 
ATOM      4  H   UNL     1       2.529  -7.060   0.807  0.00  0.00    +0.188 HD
ATOM      5  N   UNL     1       0.761  -6.057   1.379  0.00  0.00    -0.194 N 
ATOM      6  C   UNL     1       0.529  -4.757   1.651  0.00  0.00    +0.283 A 
ATOM      7  O   UNL     1      -0.533  -4.265   1.984  0.00  0.00    -0.265 OA
ATOM      8  C   UNL     1      -0.181  -7.069   1.432  0.00  0.00    +0.196 A 
ATOM      9  N   UNL     1      -0.027  -8.351   1.192  0.00  0.00    -0.221 NA
ATOM     10  C   UNL     1      -1.045  -9.234   1.282  0.00  0.00    +0.081 A 
ATOM     11  C   UNL     1      -1.014 -10.629   1.052  0.00  0.00    +0.029 A 
ATOM     12  C   UNL     1      -2.148 -11.386   1.188  0.00  0.00    +0.002 A 
ATOM     13  C   UNL     1      -3.360 -10.818   1.553  0.00  0.00    +0.001 A 
ATOM     14  C   UNL     1      -3.427  -9.457   1.787  0.00  0.00    +0.017 A 
ATOM     15  C   UNL     1      -2.296  -8.690   1.653  0.00  0.00    +0.041 A 
ATOM     16  S   UNL     1      -1.916  -6.966   1.850  0.00  0.00    -0.048 S 
ENDROOT
BRANCH   2  17
ATOM     17  C   UNL     1       4.165  -4.762   0.802  0.00  0.00    +0.000 A 
ATOM     18  C   UNL     1       5.147  -5.589   1.354  0.00  0.00    +0.010 A 
ATOM     19  C   UNL     1       6.477  -5.352   1.078  0.00  0.00    +0.001 A 
ATOM     20  C   UNL     1       6.840  -4.299   0.257  0.00  0.00    +0.000 A 
ATOM     21  C   UNL     1       5.873  -3.475  -0.293  0.00  0.00    +0.001 A 
ATOM     22  C   UNL     1       4.539  -3.704  -0.031  0.00  0.00    +0.010 A 
ENDBRANCH   2  17
BRANCH   1  24
ATOM     23  N   UNL     1       2.669  -2.186   2.698  0.00  0.00    -0.288 NA
ATOM     24  C   UNL     1       2.038  -2.612   1.647  0.00  0.00    +0.047 C 
ATOM     25  C   UNL     1       1.550  -1.632   0.612  0.00  0.00    +0.066 C 
BRANCH  23  26
ATOM     26  C   UNL     1       2.814  -0.747   2.932  0.00  0.00    +0.141 C 
BRANCH  26  28
ATOM     27  C   UNL     1       2.211   1.145   4.449  0.00  0.00    +0.005 C 
ATOM     28  C   UNL     1       2.060  -0.358   4.205  0.00  0.00    +0.020 C 
ENDBRANCH  26  28
ENDBRANCH  23  26
ENDBRANCH   1  24
TORSDOF 4
