REMARK  Name = ZINC39638726
REMARK  7 active torsions:
REMARK  status: ('A' for Active; 'I' for Inactive)
REMARK    1  A    between atoms: C_1  and  C_2
REMARK    2  A    between atoms: C_2  and  O_3
REMARK    3  A    between atoms: O_3  and  C_4
REMARK    4  A    between atoms: C_9  and  C_10
REMARK    5  A    between atoms: C_10  and  N_11
REMARK    6  A    between atoms: C_12  and  C_14
REMARK    7  A    between atoms: C_25  and  C_27
REMARK                            x       y       z     vdW  Elec       q    Type
REMARK                         _______ _______ _______ _____ _____    ______ ____
ROOT
ATOM      1  C   UNL     1       5.332   0.474  -3.314  0.00  0.00    +0.100 C 
ATOM      2  C   UNL     1       6.300  -0.701  -3.044  0.00  0.00    +0.121 C 
ATOM      3  N   UNL     1       7.074  -0.844  -4.299  0.00  0.00    -0.296 N 
ATOM      4  C   UNL     1       7.320   0.550  -4.742  0.00  0.00    +0.115 C 
ATOM      5  C   UNL     1       6.008   1.294  -4.426  0.00  0.00    -0.004 C 
ATOM      6  C   UNL     1       6.307   2.707  -3.933  0.00  0.00    -0.010 C 
ATOM      7  C   UNL     1       6.924   3.520  -5.074  0.00  0.00    -0.082 C 
ATOM      8  N   UNL     1       5.992   3.563  -6.207  0.00  0.00    +0.379 N 
ATOM      9  C   UNL     1       5.783   2.209  -6.734  0.00  0.00    -0.082 C 
ATOM     10  C   UNL     1       5.117   1.340  -5.663  0.00  0.00    -0.010 C 
ATOM     11  C   UNL     1       7.466  -1.984  -4.902  0.00  0.00    +0.248 C 
ATOM     12  O   UNL     1       7.103  -3.059  -4.465  0.00  0.00    -0.270 OA
ATOM     13  H   UNL     1       5.109   3.943  -5.901  0.00  0.00    -0.086 HD
ATOM     14  H   UNL     1       6.375   4.149  -6.934  0.00  0.00    -0.086 HD
ENDROOT
BRANCH  11  15
ATOM     15  C   UNL     1       8.332  -1.927  -6.086  0.00  0.00    +0.052 A 
ATOM     16  C   UNL     1       9.287  -0.968  -6.210  0.00  0.00    +0.059 A 
ATOM     17  S   UNL     1      10.030  -1.267  -7.684  0.00  0.00    -0.096 S 
ATOM     18  C   UNL     1       9.111  -2.685  -8.217  0.00  0.00    +0.020 A 
ATOM     19  C   UNL     1       8.198  -2.906  -7.168  0.00  0.00    +0.001 A 
ATOM     20  C   UNL     1       7.314  -3.993  -7.300  0.00  0.00    +0.010 A 
ATOM     21  C   UNL     1       7.361  -4.795  -8.413  0.00  0.00    +0.001 A 
ATOM     22  C   UNL     1       8.273  -4.560  -9.431  0.00  0.00    +0.001 A 
ATOM     23  C   UNL     1       9.146  -3.494  -9.333  0.00  0.00    +0.015 A 
ENDBRANCH  11  15
BRANCH   1  25
ATOM     24  N   UNL     1       2.872   0.645  -3.501  0.00  0.00    -0.311 N 
ATOM     25  C   UNL     1       3.996  -0.043  -3.781  0.00  0.00    +0.218 C 
ATOM     26  O   UNL     1       3.933  -1.079  -4.408  0.00  0.00    -0.275 OA
ATOM     27  H   UNL     1       2.923   1.474  -2.999  0.00  0.00    +0.149 HD
BRANCH  24  28
ATOM     28  C   UNL     1       1.573   0.142  -3.955  0.00  0.00    +0.143 C 
BRANCH  28  34
ATOM     29  C   UNL     1       0.248   2.252  -4.234  0.00  0.00    +0.125 A 
ATOM     30  C   UNL     1      -0.757   3.120  -3.831  0.00  0.00    +0.046 A 
ATOM     31  C   UNL     1      -1.514   2.827  -2.713  0.00  0.00    +0.004 A 
ATOM     32  C   UNL     1      -1.270   1.669  -1.996  0.00  0.00    +0.001 A 
ATOM     33  C   UNL     1      -0.270   0.803  -2.396  0.00  0.00    +0.009 A 
ATOM     34  C   UNL     1       0.486   1.090  -3.517  0.00  0.00    +0.011 A 
BRANCH  29  35
ATOM     35  O   UNL     1       0.993   2.539  -5.334  0.00  0.00    -0.492 OA
BRANCH  35  37
ATOM     36  C   UNL     1       1.627   3.903  -7.225  0.00  0.00    +0.048 C 
ATOM     37  C   UNL     1       0.692   3.753  -6.024  0.00  0.00    +0.225 C 
ENDBRANCH  35  37
ENDBRANCH  29  35
ENDBRANCH  28  34
ENDBRANCH  24  28
ENDBRANCH   1  25
TORSDOF 6
