REMARK  Name = ZINC39605530
REMARK  7 active torsions:
REMARK  status: ('A' for Active; 'I' for Inactive)
REMARK    1  A    between atoms: C_5  and  C_7
REMARK    2  A    between atoms: C_10  and  C_12
REMARK    3  A    between atoms: C_16  and  C_25
REMARK    4  A    between atoms: N_27  and  C_28
REMARK    5  A    between atoms: C_28  and  C_29
REMARK    6  A    between atoms: C_29  and  C_30
REMARK    7  A    between atoms: C_30  and  O_31
REMARK                            x       y       z     vdW  Elec       q    Type
REMARK                         _______ _______ _______ _____ _____    ______ ____
ROOT
ATOM      1  C   UNL     1       2.357  -5.515  -1.356  0.00  0.00    +0.282 C 
ATOM      2  O   UNL     1       2.144  -6.657  -0.995  0.00  0.00    -0.267 OA
ATOM      3  N   UNL     1       3.229  -5.275  -2.355  0.00  0.00    -0.294 N 
ATOM      4  C   UNL     1       3.621  -3.963  -2.923  0.00  0.00    +0.121 C 
ATOM      5  C   UNL     1       5.138  -4.089  -3.184  0.00  0.00    +0.100 C 
ATOM      6  C   UNL     1       5.389  -5.600  -3.323  0.00  0.00    -0.004 C 
ATOM      7  C   UNL     1       4.018  -6.263  -3.129  0.00  0.00    +0.115 C 
ATOM      8  C   UNL     1       6.356  -6.076  -2.243  0.00  0.00    -0.010 C 
ATOM      9  C   UNL     1       6.634  -7.570  -2.437  0.00  0.00    -0.082 C 
ATOM     10  N   UNL     1       7.208  -7.793  -3.769  0.00  0.00    +0.379 N 
ATOM     11  C   UNL     1       6.236  -7.419  -4.803  0.00  0.00    -0.082 C 
ATOM     12  C   UNL     1       5.940  -5.919  -4.709  0.00  0.00    -0.010 C 
ATOM     13  H   UNL     1       8.041  -7.233  -3.874  0.00  0.00    -0.086 HD
ATOM     14  H   UNL     1       7.447  -8.768  -3.872  0.00  0.00    -0.086 HD
ENDROOT
BRANCH   1  18
ATOM     15  C   UNL     1       1.020  -2.360  -0.203  0.00  0.00    +0.139 A 
ATOM     16  C   UNL     1       0.348  -3.202   0.637  0.00  0.00    +0.051 A 
ATOM     17  C   UNL     1       0.754  -4.504   0.324  0.00  0.00    +0.055 A 
ATOM     18  C   UNL     1       1.665  -4.400  -0.704  0.00  0.00    +0.190 A 
ATOM     19  O   UNL     1       1.806  -3.092  -1.009  0.00  0.00    -0.450 OA
BRANCH  15  24
ATOM     20  C   UNL     1      -0.472   1.084  -0.288  0.00  0.00    +0.001 A 
ATOM     21  C   UNL     1       0.666   1.872  -0.267  0.00  0.00    +0.003 A 
ATOM     22  C   UNL     1       1.919   1.289  -0.226  0.00  0.00    +0.039 A 
ATOM     23  C   UNL     1       2.043  -0.088  -0.204  0.00  0.00    +0.134 A 
ATOM     24  C   UNL     1       0.897  -0.889  -0.225  0.00  0.00    +0.052 A 
ATOM     25  C   UNL     1      -0.364  -0.290  -0.267  0.00  0.00    +0.014 A 
ATOM     26  F   UNL     1       3.267  -0.657  -0.164  0.00  0.00    -0.205 F 
ENDBRANCH  15  24
ENDBRANCH   1  18
BRANCH   5  27
ATOM     27  C   UNL     1       5.513  -3.373  -4.457  0.00  0.00    +0.218 C 
ATOM     28  O   UNL     1       4.715  -3.297  -5.367  0.00  0.00    -0.275 OA
ATOM     29  N   UNL     1       6.735  -2.818  -4.583  0.00  0.00    -0.315 N 
ATOM     30  H   UNL     1       7.373  -2.879  -3.855  0.00  0.00    +0.149 HD
BRANCH  29  31
ATOM     31  C   UNL     1       7.099  -2.123  -5.820  0.00  0.00    +0.106 C 
BRANCH  31  32
ATOM     32  C   UNL     1       8.529  -1.590  -5.703  0.00  0.00    +0.046 C 
BRANCH  32  33
ATOM     33  C   UNL     1       8.909  -0.864  -6.995  0.00  0.00    +0.157 C 
BRANCH  33  34
ATOM     34  O   UNL     1      10.244  -0.366  -6.886  0.00  0.00    -0.395 OA
ATOM     35  H   UNL     1      10.553   0.107  -7.671  0.00  0.00    +0.209 HD
ENDBRANCH  33  34
ENDBRANCH  32  33
ENDBRANCH  31  32
ENDBRANCH  29  31
ENDBRANCH   5  27
TORSDOF 7
