REMARK  Name = ZINC13131864
REMARK  4 active torsions:
REMARK  status: ('A' for Active; 'I' for Inactive)
REMARK    1  A    between atoms: C_1  and  O_2
REMARK    2  A    between atoms: O_2  and  C_3
REMARK    3  A    between atoms: C_7  and  C_9
REMARK    4  A    between atoms: C_12  and  C_21
REMARK                            x       y       z     vdW  Elec       q    Type
REMARK                         _______ _______ _______ _____ _____    ______ ____
ROOT
ATOM      1  C   UNL     1      -2.540  -4.171   0.015  0.00  0.00    +0.106 C 
ATOM      2  C   UNL     1      -2.829  -4.673  -1.404  0.00  0.00    +0.058 C 
ATOM      3  C   UNL     1      -4.139  -4.058  -1.913  0.00  0.00    +0.143 C 
ATOM      4  N   UNL     1      -5.171  -4.233  -0.892  0.00  0.00    -0.224 N 
ATOM      5  C   UNL     1      -4.917  -4.497   0.412  0.00  0.00    +0.216 A 
ATOM      6  N   UNL     1      -6.060  -4.595   1.038  0.00  0.00    -0.180 NA
ATOM      7  C   UNL     1      -7.063  -4.397   0.170  0.00  0.00    +0.233 A 
ATOM      8  N   UNL     1      -6.559  -4.172  -1.023  0.00  0.00    -0.132 NA
ATOM      9  N   UNL     1      -8.423  -4.426   0.483  0.00  0.00    -0.326 N 
ATOM     10  N   UNL     1      -3.623  -4.624   0.909  0.00  0.00    -0.307 N 
ATOM     11  H   UNL     1      -8.707  -4.599   1.393  0.00  0.00    +0.145 HD
ATOM     12  H   UNL     1      -9.083  -4.271  -0.211  0.00  0.00    +0.145 HD
ATOM     13  H   UNL     1      -3.442  -4.989   1.790  0.00  0.00    +0.149 HD
ENDROOT
BRANCH   3  14
ATOM     14  C   UNL     1      -4.560  -4.749  -3.184  0.00  0.00    -0.023 A 
ATOM     15  C   UNL     1      -4.816  -6.108  -3.180  0.00  0.00    +0.007 A 
ATOM     16  C   UNL     1      -5.202  -6.742  -4.346  0.00  0.00    +0.020 A 
ATOM     17  C   UNL     1      -5.333  -6.017  -5.517  0.00  0.00    +0.041 A 
ATOM     18  C   UNL     1      -5.077  -4.657  -5.520  0.00  0.00    +0.020 A 
ATOM     19  C   UNL     1      -4.697  -4.023  -4.353  0.00  0.00    +0.007 A 
ATOM     20 CL   UNL     1      -5.818  -6.813  -6.981  0.00  0.00    -0.084 Cl
ENDBRANCH   3  14
BRANCH   1  25
ATOM     21  C   UNL     1      -1.200  -0.637   0.010  0.00  0.00    +0.120 A 
ATOM     22  C   UNL     1      -2.375   0.101   0.019  0.00  0.00    +0.045 A 
ATOM     23  C   UNL     1      -3.596  -0.545   0.027  0.00  0.00    +0.004 A 
ATOM     24  C   UNL     1      -3.648  -1.927   0.026  0.00  0.00    +0.006 A 
ATOM     25  C   UNL     1      -2.479  -2.665   0.017  0.00  0.00    -0.024 A 
ATOM     26  C   UNL     1      -1.255  -2.023   0.003  0.00  0.00    +0.051 A 
BRANCH  21  28
ATOM     27  C   UNL     1      -0.017   1.425   0.010  0.00  0.00    +0.277 C 
ATOM     28  O   UNL     1       0.002  -0.004   0.002  0.00  0.00    -0.495 OA
ENDBRANCH  21  28
ENDBRANCH   1  25
TORSDOF 3
