REMARK  Name = ZINC27610157
REMARK  10 active torsions:
REMARK  status: ('A' for Active; 'I' for Inactive)
REMARK    1  A    between atoms: C_1  and  C_2
REMARK    2  A    between atoms: C_4  and  C_13
REMARK    3  A    between atoms: C_6  and  S_9
REMARK    4  A    between atoms: C_7  and  C_8
REMARK    5  A    between atoms: S_9  and  N_12
REMARK    6  A    between atoms: N_15  and  N_16
REMARK    7  A    between atoms: C_17  and  C_19
REMARK    8  A    between atoms: C_19  and  N_20
REMARK    9  A    between atoms: C_21  and  C_26
REMARK   10  A    between atoms: C_23  and  C_25
REMARK                            x       y       z     vdW  Elec       q    Type
REMARK                         _______ _______ _______ _____ _____    ______ ____
ROOT
ATOM      1  C   UNL     1      -0.513   1.424  -4.808  0.00  0.00    +0.260 C 
ATOM      2  O   UNL     1       0.484   0.739  -4.933  0.00  0.00    -0.269 OA
ATOM      3  N   UNL     1      -0.966   1.736  -3.578  0.00  0.00    -0.230 N 
ATOM      4  H   UNL     1      -1.868   2.356  -3.465  0.00  0.00    +0.173 HD
ENDROOT
BRANCH   1   8
ATOM      5  C   UNL     1      -4.272   4.002  -6.839  0.00  0.00    +0.044 C 
ATOM      6  C   UNL     1      -3.036   3.153  -6.988  0.00  0.00    -0.045 A 
ATOM      7  C   UNL     1      -2.376   2.695  -5.866  0.00  0.00    +0.016 A 
ATOM      8  C   UNL     1      -1.228   1.913  -6.006  0.00  0.00    +0.040 A 
ATOM      9  C   UNL     1      -0.761   1.591  -7.282  0.00  0.00    +0.042 A 
ATOM     10  C   UNL     1      -1.433   2.051  -8.395  0.00  0.00    +0.109 A 
ATOM     11  C   UNL     1      -2.568   2.830  -8.249  0.00  0.00    -0.021 A 
ATOM     12  C   UNL     1      -3.297   3.329  -9.470  0.00  0.00    +0.046 C 
BRANCH  10  13
ATOM     13  S   UNL     1      -0.846   1.646 -10.006  0.00  0.00    +0.056 S 
ATOM     14  O   UNL     1      -0.806   2.862 -10.741  0.00  0.00    -0.153 OA
ATOM     15  O   UNL     1       0.301   0.827  -9.826  0.00  0.00    -0.153 OA
BRANCH  13  16
ATOM     16  N   UNL     1      -1.998   0.697 -10.723  0.00  0.00    -0.204 NA
ATOM     17  H   UNL     1      -1.667   0.421 -11.736  0.00  0.00    +0.144 HD
ATOM     18  H   UNL     1      -2.945   1.253 -10.785  0.00  0.00    +0.144 HD
ENDBRANCH  13  16
ENDBRANCH  10  13
ENDBRANCH   1   8
BRANCH   3  19
ATOM     19  N   UNL     1      -0.288   1.272  -2.443  0.00  0.00    -0.233 N 
ATOM     20  C   UNL     1      -0.742   1.585  -1.213  0.00  0.00    +0.251 C 
ATOM     21  O   UNL     1      -1.736   2.268  -1.088  0.00  0.00    -0.272 OA
ATOM     22  H   UNL     1       0.614   0.653  -2.556  0.00  0.00    +0.173 HD
BRANCH  20  23
ATOM     23  C   UNL     1      -0.013   1.086   0.008  0.00  0.00    +0.240 C 
BRANCH  23  24
ATOM     24  N   UNL     1      -0.698   1.558   1.213  0.00  0.00    -0.259 N 
ATOM     25  C   UNL     1      -0.449   2.711   1.869  0.00  0.00    +0.037 A 
ATOM     26  C   UNL     1      -1.294   2.778   2.923  0.00  0.00    +0.047 A 
ATOM     27  C   UNL     1      -2.082   1.622   2.917  0.00  0.00    +0.060 A 
ATOM     28  N   UNL     1      -1.725   0.890   1.893  0.00  0.00    -0.176 NA
ATOM     29  C   UNL     1      -3.154   1.279   3.918  0.00  0.00    +0.067 C 
ATOM     30  C   UNL     1       0.585   3.741   1.491  0.00  0.00    +0.065 C 
ENDBRANCH  23  24
ENDBRANCH  20  23
ENDBRANCH   3  19
TORSDOF 6
