REMARK  Name = ZINC10440263
REMARK  12 active torsions:
REMARK  status: ('A' for Active; 'I' for Inactive)
REMARK    1  A    between atoms: C_1  and  C_2
REMARK    2  A    between atoms: C_2  and  C_3
REMARK    3  A    between atoms: C_10  and  C_12
REMARK    4  A    between atoms: C_15  and  S_18
REMARK    5  A    between atoms: N_16  and  C_17
REMARK    6  A    between atoms: S_18  and  C_19
REMARK    7  A    between atoms: C_19  and  C_21
REMARK    8  A    between atoms: C_19  and  C_22
REMARK    9  A    between atoms: C_22  and  C_24
REMARK   10  A    between atoms: C_25  and  N_34
REMARK   11  A    between atoms: N_26  and  C_33
REMARK   12  A    between atoms: N_29  and  C_32
REMARK                            x       y       z     vdW  Elec       q    Type
REMARK                         _______ _______ _______ _____ _____    ______ ____
ROOT
ATOM      1  S   UNL     1       0.180  -4.524  -0.528  0.00  0.00    -0.075 S 
ENDROOT
BRANCH   1   5
ATOM      2  C   UNL     1      -3.255  -6.386  -0.419  0.00  0.00    +0.171 A 
ATOM      3  N   UNL     1      -3.539  -5.221   0.121  0.00  0.00    -0.128 NA
ATOM      4  N   UNL     1      -2.486  -4.485   0.154  0.00  0.00    -0.122 NA
ATOM      5  C   UNL     1      -1.465  -5.132  -0.361  0.00  0.00    +0.192 A 
ATOM      6  N   UNL     1      -1.919  -6.362  -0.750  0.00  0.00    -0.305 N 
ATOM      7  C   UNL     1      -1.144  -7.431  -1.383  0.00  0.00    +0.153 C 
BRANCH   2  14
ATOM      8  C   UNL     1      -8.189 -10.227  -0.637  0.00  0.00    -0.007 C 
ATOM      9  C   UNL     1      -7.505 -11.090  -1.701  0.00  0.00    +0.009 C 
ATOM     10  C   UNL     1      -6.005 -11.171  -1.380  0.00  0.00    +0.043 C 
ATOM     11  C   UNL     1      -5.510  -9.790  -1.093  0.00  0.00    -0.006 A 
ATOM     12  C   UNL     1      -6.256  -8.679  -0.832  0.00  0.00    -0.036 A 
ATOM     13  C   UNL     1      -5.559  -7.502  -0.591  0.00  0.00    +0.023 A 
ATOM     14  C   UNL     1      -4.191  -7.501  -0.634  0.00  0.00    +0.057 A 
ATOM     15  S   UNL     1      -3.836  -9.211  -1.013  0.00  0.00    -0.090 S 
ATOM     16  C   UNL     1      -7.780  -8.764  -0.806  0.00  0.00    +0.039 C 
BRANCH   8  18
ATOM     17  C   UNL     1     -10.392  -9.602   0.362  0.00  0.00    +0.004 C 
ATOM     18  C   UNL     1      -9.707 -10.350  -0.783  0.00  0.00    +0.000 C 
ENDBRANCH   8  18
ENDBRANCH   2  14
ENDBRANCH   1   5
BRANCH   1  19
ATOM     19  C   UNL     1      -0.020  -2.874   0.188  0.00  0.00    +0.122 C 
ATOM     20  C   UNL     1      -0.371  -3.001   1.672  0.00  0.00    +0.028 C 
BRANCH  19  21
ATOM     21  C   UNL     1       1.266  -2.103   0.040  0.00  0.00    +0.185 C 
ATOM     22  O   UNL     1       2.322  -2.695  -0.059  0.00  0.00    -0.291 OA
BRANCH  21  23
ATOM     23  C   UNL     1       1.244  -0.692   0.017  0.00  0.00    +0.121 A 
ATOM     24  C   UNL     1       2.412   0.048  -0.239  0.00  0.00    +0.116 A 
ATOM     25  N   UNL     1       2.341   1.412  -0.251  0.00  0.00    -0.284 N 
ATOM     26  C   UNL     1       1.183   2.052  -0.025  0.00  0.00    +0.333 A 
ATOM     27  O   UNL     1       1.173   3.267  -0.046  0.00  0.00    -0.246 OA
ATOM     28  N   UNL     1       0.037   1.399   0.225  0.00  0.00    -0.263 N 
ATOM     29  C   UNL     1       0.001   0.051   0.259  0.00  0.00    +0.269 A 
ATOM     30  O   UNL     1      -1.040  -0.537   0.485  0.00  0.00    -0.267 OA
ATOM     31  C   UNL     1      -1.193   2.161   0.458  0.00  0.00    +0.157 C 
ATOM     32  C   UNL     1       3.553   2.191  -0.517  0.00  0.00    +0.155 C 
BRANCH  24  33
ATOM     33  N   UNL     1       3.594  -0.585  -0.471  0.00  0.00    -0.344 N 
ATOM     34  H   UNL     1       4.294  -0.138  -0.972  0.00  0.00    +0.144 HD
ATOM     35  H   UNL     1       3.738  -1.483  -0.134  0.00  0.00    +0.144 HD
ENDBRANCH  24  33
ENDBRANCH  21  23
ENDBRANCH  19  21
ENDBRANCH   1  19
TORSDOF 7
