REMARK  Name = ZINC39515531
REMARK  9 active torsions:
REMARK  status: ('A' for Active; 'I' for Inactive)
REMARK    1  A    between atoms: C_1  and  C_2
REMARK    2  A    between atoms: C_9  and  C_18
REMARK    3  A    between atoms: N_13  and  C_14
REMARK    4  A    between atoms: C_14  and  C_15
REMARK    5  A    between atoms: C_15  and  O_16
REMARK    6  A    between atoms: O_16  and  C_17
REMARK    7  A    between atoms: C_18  and  N_19
REMARK    8  A    between atoms: N_19  and  C_20
REMARK    9  A    between atoms: C_20  and  C_21
REMARK                            x       y       z     vdW  Elec       q    Type
REMARK                         _______ _______ _______ _____ _____    ______ ____
ROOT
ATOM      1  C   UNL     1      -0.018   1.503   0.010  0.00  0.00    +0.044 C 
ATOM      2  C   UNL     1       0.002  -0.004   0.002  0.00  0.00    -0.050 A 
ATOM      3  C   UNL     1       0.006  -0.688  -1.200  0.00  0.00    +0.005 A 
ATOM      4  C   UNL     1       0.017  -2.069  -1.211  0.00  0.00    +0.024 A 
ATOM      5  C   UNL     1       0.020  -2.772  -0.013  0.00  0.00    +0.040 A 
ATOM      6  C   UNL     1       0.034  -2.082   1.192  0.00  0.00    -0.025 A 
ATOM      7  C   UNL     1       0.023  -0.701   1.196  0.00  0.00    +0.008 A 
ATOM      8  C   UNL     1       0.088  -2.838   2.494  0.00  0.00    +0.048 C 
ATOM      9  C   UNL     1      -0.673  -4.156   2.356  0.00  0.00    +0.063 C 
ATOM     10  C   UNL     1      -0.242  -4.864   1.099  0.00  0.00    +0.221 C 
ATOM     11  O   UNL     1      -0.134  -6.072   1.096  0.00  0.00    -0.275 OA
ATOM     12  N   UNL     1       0.025  -4.169  -0.021  0.00  0.00    -0.269 N 
ENDROOT
BRANCH  12  13
ATOM     13  C   UNL     1       0.324  -4.885  -1.263  0.00  0.00    +0.141 C 
BRANCH  13  14
ATOM     14  C   UNL     1       1.831  -5.132  -1.360  0.00  0.00    +0.178 C 
BRANCH  14  15
ATOM     15  O   UNL     1       2.238  -6.011  -0.309  0.00  0.00    -0.381 OA
ATOM     16  C   UNL     1       3.636  -6.308  -0.309  0.00  0.00    +0.194 C 
ENDBRANCH  14  15
ENDBRANCH  13  14
ENDBRANCH  12  13
BRANCH   9  17
ATOM     17  C   UNL     1      -0.376  -5.045   3.566  0.00  0.00    -0.069 C 
BRANCH  17  18
ATOM     18  N   UNL     1      -1.197  -6.260   3.495  0.00  0.00    +0.383 N 
ATOM     19  H   UNL     1      -2.174  -6.007   3.496  0.00  0.00    -0.085 HD
ATOM     20  H   UNL     1      -0.981  -6.763   2.647  0.00  0.00    -0.085 HD
BRANCH  18  21
ATOM     21  C   UNL     1      -0.912  -7.113   4.656  0.00  0.00    -0.028 C 
BRANCH  21  22
ATOM     22  C   UNL     1      -1.755  -8.360   4.583  0.00  0.00    -0.000 A 
ATOM     23  H   UNL     1      -3.543  -7.753   5.462  0.00  0.00    +0.166 HD
ATOM     24  C   UNL     1      -1.355  -9.531   4.064  0.00  0.00    +0.029 A 
ATOM     25  C   UNL     1      -2.477 -10.464   4.195  0.00  0.00    -0.000 A 
ATOM     26  C   UNL     1      -2.672 -11.802   3.849  0.00  0.00    +0.010 A 
ATOM     27  C   UNL     1      -3.870 -12.404   4.113  0.00  0.00    +0.001 A 
ATOM     28  C   UNL     1      -4.895 -11.694   4.724  0.00  0.00    +0.002 A 
ATOM     29  C   UNL     1      -4.724 -10.373   5.074  0.00  0.00    +0.026 A 
ATOM     30  C   UNL     1      -3.513  -9.741   4.814  0.00  0.00    +0.047 A 
ATOM     31  N   UNL     1      -3.039  -8.468   5.042  0.00  0.00    -0.360 N 
ENDBRANCH  21  22
ENDBRANCH  18  21
ENDBRANCH  17  18
ENDBRANCH   9  17
TORSDOF 7
