REMARK  Name = ZINC39167349
REMARK  6 active torsions:
REMARK  status: ('A' for Active; 'I' for Inactive)
REMARK    1  A    between atoms: C_1  and  C_2
REMARK    2  A    between atoms: C_2  and  O_3
REMARK    3  A    between atoms: O_3  and  C_4
REMARK    4  A    between atoms: C_6  and  C_11
REMARK    5  A    between atoms: C_9  and  O_10
REMARK    6  A    between atoms: N_36  and  N_39
REMARK                            x       y       z     vdW  Elec       q    Type
REMARK                         _______ _______ _______ _____ _____    ______ ____
ROOT
ATOM      1  C   UNL     1      -0.229  -4.969   0.477  0.00  0.00    +0.043 C 
ATOM      2  C   UNL     1       0.868  -5.835   1.051  0.00  0.00    +0.015 C 
ATOM      3  C   UNL     1       2.094  -5.138   1.742  0.00  0.00    +0.007 C 
ATOM      4  C   UNL     1       1.554  -5.029   3.233  0.00  0.00    +0.010 C 
ATOM      5  C   UNL     1       1.181  -6.589   3.393  0.00  0.00    +0.016 C 
ATOM      6  C   UNL     1       0.240  -6.607   2.245  0.00  0.00    +0.060 C 
ATOM      7  S   UNL     1      -0.705  -7.976   1.602  0.00  0.00    -0.107 S 
ATOM      8  C   UNL     1      -1.725  -7.089   0.587  0.00  0.00    +0.082 C 
ATOM      9  N   UNL     1      -2.977  -7.368   0.378  0.00  0.00    -0.168 NA
ATOM     10  C   UNL     1      -3.845  -6.541  -0.248  0.00  0.00    +0.296 C 
ATOM     11  O   UNL     1      -4.984  -6.763  -0.619  0.00  0.00    -0.261 OA
ATOM     12  S   UNL     1      -2.884  -5.027  -0.392  0.00  0.00    -0.055 S 
ATOM     13  C   UNL     1      -1.264  -5.851  -0.165  0.00  0.00    +0.116 C 
ATOM     14  C   UNL     1       2.609  -7.068   3.212  0.00  0.00    +0.093 C 
ATOM     15  C   UNL     1       2.944  -6.372   1.809  0.00  0.00    +0.092 C 
ATOM     16  C   UNL     1       4.226  -6.927   1.490  0.00  0.00    +0.240 C 
ATOM     17  O   UNL     1       5.175  -6.382   0.968  0.00  0.00    -0.274 OA
ATOM     18  N   UNL     1       4.117  -8.236   1.921  0.00  0.00    -0.175 N 
ATOM     19  C   UNL     1       2.984  -8.449   2.764  0.00  0.00    +0.240 C 
ATOM     20  O   UNL     1       2.424  -9.492   3.023  0.00  0.00    -0.274 OA
ENDROOT
BRANCH   1  23
ATOM     21  C   UNL     1       0.777  -1.811  -1.336  0.00  0.00    +0.162 A 
ATOM     22  C   UNL     1       0.243  -2.669  -0.388  0.00  0.00    +0.053 A 
ATOM     23  C   UNL     1       0.352  -4.037  -0.555  0.00  0.00    -0.039 A 
ATOM     24  C   UNL     1       0.992  -4.552  -1.667  0.00  0.00    +0.008 A 
ATOM     25  C   UNL     1       1.526  -3.702  -2.616  0.00  0.00    +0.049 A 
ATOM     26  C   UNL     1       1.416  -2.330  -2.458  0.00  0.00    +0.158 A 
BRANCH  26  27
ATOM     27  O   UNL     1       1.936  -1.492  -3.394  0.00  0.00    -0.503 OA
ATOM     28  H   UNL     1       2.856  -1.241  -3.231  0.00  0.00    +0.292 HD
ENDBRANCH  26  27
BRANCH  21  29
ATOM     29  O   UNL     1       0.671  -0.465  -1.174  0.00  0.00    -0.489 OA
BRANCH  29  31
ATOM     30  C   UNL     1      -0.019   1.526   0.010  0.00  0.00    +0.048 C 
ATOM     31  C   UNL     1       0.002  -0.004   0.002  0.00  0.00    +0.226 C 
ENDBRANCH  29  31
ENDBRANCH  21  29
ENDBRANCH   1  23
BRANCH  18  32
ATOM     32  N   UNL     1       5.020  -9.213   1.615  0.00  0.00    -0.245 NA
ATOM     33  H   UNL     1       4.753 -10.094   2.028  0.00  0.00    +0.141 HD
ATOM     34  H   UNL     1       5.132  -9.302   0.616  0.00  0.00    +0.141 HD
ENDBRANCH  18  32
TORSDOF 5
