REMARK  Name = ZINC09235228
REMARK  6 active torsions:
REMARK  status: ('A' for Active; 'I' for Inactive)
REMARK    1  A    between atoms: C_1  and  C_2
REMARK    2  A    between atoms: C_4  and  C_15
REMARK    3  A    between atoms: C_5  and  C_14
REMARK    4  A    between atoms: N_6  and  C_7
REMARK    5  A    between atoms: C_16  and  C_17
REMARK    6  A    between atoms: C_22  and  N_26
REMARK                            x       y       z     vdW  Elec       q    Type
REMARK                         _______ _______ _______ _____ _____    ______ ____
ROOT
ATOM      1  C   UNL     1      -6.943  -2.308   0.021  0.00  0.00    +0.064 C 
ATOM      2  C   UNL     1      -6.319  -0.936   0.025  0.00  0.00    +0.022 A 
ATOM      3  C   UNL     1      -4.999  -0.680   0.016  0.00  0.00    +0.031 A 
ATOM      4  C   UNL     1      -4.856   0.780   0.029  0.00  0.00    -0.004 A 
ATOM      5  C   UNL     1      -6.138   1.289   0.038  0.00  0.00    +0.028 A 
ATOM      6  N   UNL     1      -7.005   0.245   0.036  0.00  0.00    -0.317 N 
ATOM      7  C   UNL     1      -6.511   2.749   0.048  0.00  0.00    +0.064 C 
ENDROOT
BRANCH   6   8
ATOM      8  C   UNL     1      -8.402   0.362   0.043  0.00  0.00    +0.047 A 
ATOM      9  C   UNL     1      -9.048   0.915   1.141  0.00  0.00    +0.029 A 
ATOM     10  C   UNL     1     -10.424   1.034   1.144  0.00  0.00    +0.040 A 
ATOM     11  C   UNL     1     -11.160   0.593   0.057  0.00  0.00    +0.124 A 
ATOM     12  C   UNL     1     -10.518   0.037  -1.037  0.00  0.00    +0.040 A 
ATOM     13  C   UNL     1      -9.142  -0.079  -1.046  0.00  0.00    +0.029 A 
ATOM     14  F   UNL     1     -12.506   0.705   0.064  0.00  0.00    -0.205 F 
ENDBRANCH   6   8
BRANCH   4  15
ATOM     15  C   UNL     1      -3.602   1.544   0.028  0.00  0.00    +0.013 C 
ATOM     16  C   UNL     1      -2.416   0.896   0.018  0.00  0.00    +0.047 C 
BRANCH  16  17
ATOM     17  C   UNL     1      -1.205   1.634   0.017  0.00  0.00    +0.138 A 
ATOM     18  N   UNL     1      -0.011   0.966   0.007  0.00  0.00    -0.305 N 
ATOM     19  H   UNL     1       0.004  -0.134   0.006  0.00  0.00    +0.170 HD
ATOM     20  C   UNL     1       1.148   1.657   0.000  0.00  0.00    +0.286 A 
ATOM     21  O   UNL     1       2.220   1.071  -0.013  0.00  0.00    -0.265 OA
ATOM     22  C   UNL     1       1.102   3.057   0.007  0.00  0.00    +0.256 A 
ATOM     23  C   UNL     1      -0.133   3.685   0.022  0.00  0.00    +0.308 A 
ATOM     24  N   UNL     1      -1.250   2.955   0.029  0.00  0.00    -0.190 NA
ATOM     25  O   UNL     1      -0.206   5.037   0.030  0.00  0.00    -0.263 OA
BRANCH  22  26
ATOM     26  N   UNL     1       2.350   3.852  -0.001  0.00  0.00    +0.067 N 
ATOM     27  O   UNL     1       2.298   5.069   0.006  0.00  0.00    -0.126 OA
ATOM     28  O   UNL     1       3.431   3.289  -0.014  0.00  0.00    -0.126 OA
ENDBRANCH  22  26
ENDBRANCH  16  17
ENDBRANCH   4  15
TORSDOF 4
