REMARK  Name = ZINC50751066
REMARK  6 active torsions:
REMARK  status: ('A' for Active; 'I' for Inactive)
REMARK    1  A    between atoms: C_1  and  C_2
REMARK    2  A    between atoms: C_2  and  C_4
REMARK    3  A    between atoms: C_2  and  N_9
REMARK    4  A    between atoms: C_10  and  C_12
REMARK    5  A    between atoms: C_14  and  N_19
REMARK    6  A    between atoms: N_19  and  C_20
REMARK                            x       y       z     vdW  Elec       q    Type
REMARK                         _______ _______ _______ _____ _____    ______ ____
ROOT
ATOM      1  N   UNL     1       0.711  -0.489   1.189  0.00  0.00    -0.304 N 
ATOM      2  C   UNL     1       2.054  -0.600   1.174  0.00  0.00    +0.245 C 
ATOM      3  O   UNL     1       2.677  -0.297   0.175  0.00  0.00    -0.270 OA
ATOM      4  H   UNL     1       0.213  -0.731   1.986  0.00  0.00    +0.150 HD
ENDROOT
BRANCH   2   5
ATOM      5  C   UNL     1       2.770  -1.091   2.374  0.00  0.00    +0.043 A 
ATOM      6  C   UNL     1       4.161  -1.207   2.380  0.00  0.00    +0.056 A 
ATOM      7  C   UNL     1       4.793  -1.671   3.529  0.00  0.00    +0.121 A 
ATOM      8  N   UNL     1       4.091  -2.000   4.601  0.00  0.00    -0.221 NA
ATOM      9  C   UNL     1       2.775  -1.903   4.631  0.00  0.00    +0.132 A 
ATOM     10  C   UNL     1       2.071  -1.444   3.533  0.00  0.00    +0.053 A 
ATOM     11 CL   UNL     1       1.916  -2.350   6.071  0.00  0.00    -0.062 Cl
BRANCH   7  12
ATOM     12  N   UNL     1       6.178  -1.793   3.550  0.00  0.00    -0.332 N 
ATOM     13  C   UNL     1       6.963  -1.432   2.367  0.00  0.00    +0.127 C 
ATOM     14  H   UNL     1       6.624  -2.116   4.348  0.00  0.00    +0.147 HD
ENDBRANCH   7  12
ENDBRANCH   2   5
BRANCH   1  16
ATOM     15  C   UNL     1      -0.019   1.526   0.010  0.00  0.00    +0.033 C 
ATOM     16  C   UNL     1       0.002  -0.004   0.002  0.00  0.00    +0.107 C 
BRANCH  16  17
ATOM     17  C   UNL     1      -1.412  -0.526   0.013  0.00  0.00    +0.010 A 
ATOM     18  C   UNL     1      -2.157  -0.992  -1.019  0.00  0.00    +0.013 A 
ATOM     19  C   UNL     1      -3.447  -1.425  -0.772  0.00  0.00    +0.008 A 
ATOM     20  C   UNL     1      -3.927  -1.370   0.494  0.00  0.00    +0.045 A 
ATOM     21  S   UNL     1      -2.537  -0.697   1.389  0.00  0.00    -0.100 S 
ENDBRANCH  16  17
ENDBRANCH   1  16
TORSDOF 4
