REMARK  Name = ZINC08722685
REMARK  7 active torsions:
REMARK  status: ('A' for Active; 'I' for Inactive)
REMARK    1  A    between atoms: C_3  and  C_10
REMARK    2  A    between atoms: C_5  and  N_7
REMARK    3  A    between atoms: N_12  and  N_13
REMARK    4  A    between atoms: C_14  and  C_15
REMARK    5  A    between atoms: C_18  and  O_22
REMARK    6  A    between atoms: O_22  and  C_23
REMARK    7  A    between atoms: C_23  and  C_24
REMARK                            x       y       z     vdW  Elec       q    Type
REMARK                         _______ _______ _______ _____ _____    ______ ____
ROOT
ATOM      1  N   UNL     1      -7.361   1.111   0.045  0.00  0.00    -0.187 NA
ATOM      2  C   UNL     1      -8.491   1.749   0.054  0.00  0.00    +0.138 C 
ENDROOT
BRANCH   2   3
ATOM      3  C   UNL     1      -9.761   1.000   0.057  0.00  0.00    -0.004 A 
ATOM      4  C   UNL     1      -9.749  -0.398   0.043  0.00  0.00    +0.013 A 
ATOM      5  C   UNL     1     -10.938  -1.094   0.050  0.00  0.00    +0.047 A 
ATOM      6  C   UNL     1     -12.147  -0.410   0.060  0.00  0.00    +0.135 A 
ATOM      7  C   UNL     1     -12.163   0.979   0.068  0.00  0.00    +0.060 A 
ATOM      8  C   UNL     1     -10.979   1.685   0.067  0.00  0.00    +0.028 A 
ATOM      9 BR   UNL     1     -13.813   1.904   0.081  0.00  0.00    -0.046 Br
BRANCH   6  10
ATOM     10  O   UNL     1     -13.316  -1.101   0.062  0.00  0.00    -0.482 OA
BRANCH  10  11
ATOM     11  C   UNL     1     -13.227  -2.527   0.053  0.00  0.00    +0.324 C 
BRANCH  11  12
ATOM     12  C   UNL     1     -14.614  -3.118   0.057  0.00  0.00    +0.248 C 
ATOM     13  O   UNL     1     -15.583  -2.389   0.066  0.00  0.00    -0.272 OA
ATOM     14  N   UNL     1     -14.777  -4.455   0.050  0.00  0.00    -0.327 N 
ATOM     15  H   UNL     1     -14.002  -5.038   0.043  0.00  0.00    +0.145 HD
ATOM     16  H   UNL     1     -15.669  -4.835   0.052  0.00  0.00    +0.145 HD
ENDBRANCH  11  12
ENDBRANCH  10  11
ENDBRANCH   6  10
ENDBRANCH   2   3
BRANCH   1  19
ATOM     17  C   UNL     1      -4.981   1.161   0.033  0.00  0.00    +0.263 C 
ATOM     18  O   UNL     1      -4.969  -0.055   0.026  0.00  0.00    -0.268 OA
ATOM     19  N   UNL     1      -6.154   1.823   0.043  0.00  0.00    -0.203 N 
ATOM     20  H   UNL     1      -6.164   2.793   0.048  0.00  0.00    +0.178 HD
BRANCH  17  23
ATOM     21  C   UNL     1      -2.526   4.003   0.037  0.00  0.00    +0.003 A 
ATOM     22  C   UNL     1      -3.718   3.308   0.039  0.00  0.00    +0.013 A 
ATOM     23  C   UNL     1      -3.708   1.912   0.030  0.00  0.00    +0.041 A 
ATOM     24  C   UNL     1      -2.490   1.229   0.021  0.00  0.00    +0.045 A 
ATOM     25  C   UNL     1      -1.306   1.936   0.019  0.00  0.00    +0.127 A 
ATOM     26  C   UNL     1      -1.323   3.320   0.032  0.00  0.00    +0.033 A 
BRANCH  25  27
ATOM     27  N   UNL     1      -0.014   1.214   0.009  0.00  0.00    +0.056 N 
ATOM     28  O   UNL     1       0.002  -0.004   0.002  0.00  0.00    -0.126 OA
ATOM     29  O   UNL     1       1.032   1.837   0.002  0.00  0.00    -0.126 OA
ENDBRANCH  25  27
ENDBRANCH  17  23
ENDBRANCH   1  19
TORSDOF 7
