REMARK  Name = ZINC51128676
REMARK  4 active torsions:
REMARK  status: ('A' for Active; 'I' for Inactive)
REMARK    1  A    between atoms: C_1  and  C_2
REMARK    2  A    between atoms: C_9  and  C_11
REMARK    3  A    between atoms: C_13  and  N_18
REMARK    4  A    between atoms: N_18  and  N_19
REMARK                            x       y       z     vdW  Elec       q    Type
REMARK                         _______ _______ _______ _____ _____    ______ ____
ROOT
ATOM      1  C   UNL     1       2.432  -0.181   2.939  0.00  0.00    +0.043 A 
ATOM      2  C   UNL     1       3.127   0.681   3.789  0.00  0.00    +0.057 A 
ATOM      3  C   UNL     1       3.946   0.140   4.774  0.00  0.00    +0.134 A 
ATOM      4  N   UNL     1       4.068  -1.171   4.907  0.00  0.00    -0.220 NA
ATOM      5  C   UNL     1       3.427  -2.015   4.121  0.00  0.00    +0.132 A 
ATOM      6  C   UNL     1       2.589  -1.559   3.121  0.00  0.00    +0.053 A 
ATOM      7 CL   UNL     1       3.634  -3.723   4.351  0.00  0.00    -0.062 Cl
ENDROOT
BRANCH   1  15
ATOM      8  C   UNL     1       0.071   1.495  -0.080  0.00  0.00    +0.030 C 
ATOM      9  C   UNL     1      -0.299   0.057   0.286  0.00  0.00    +0.099 C 
ATOM     10  C   UNL     1      -1.778  -0.010   0.684  0.00  0.00    +0.182 C 
ATOM     11  O   UNL     1      -2.068  -1.312   1.200  0.00  0.00    -0.376 OA
ATOM     12  C   UNL     1      -1.345  -1.645   2.387  0.00  0.00    +0.179 C 
ATOM     13  C   UNL     1       0.156  -1.662   2.076  0.00  0.00    +0.136 C 
ATOM     14  N   UNL     1       0.511  -0.388   1.431  0.00  0.00    -0.290 N 
ATOM     15  C   UNL     1       1.548   0.350   1.875  0.00  0.00    +0.247 C 
ATOM     16  O   UNL     1       1.757   1.450   1.404  0.00  0.00    -0.270 OA
ENDBRANCH   1  15
BRANCH   3  17
ATOM     17  N   UNL     1       4.644   0.986   5.628  0.00  0.00    -0.267 N 
ATOM     18  H   UNL     1       4.558   1.948   5.536  0.00  0.00    +0.167 HD
BRANCH  17  19
ATOM     19  N   UNL     1       5.451   0.463   6.599  0.00  0.00    -0.255 NA
ATOM     20  H   UNL     1       6.141  -0.156   6.200  0.00  0.00    +0.140 HD
ATOM     21  H   UNL     1       5.889   1.195   7.138  0.00  0.00    +0.140 HD
ENDBRANCH  17  19
ENDBRANCH   3  17
TORSDOF 3
