REMARK  Name = ZINC08780726
REMARK  10 active torsions:
REMARK  status: ('A' for Active; 'I' for Inactive)
REMARK    1  A    between atoms: C_1  and  O_2
REMARK    2  A    between atoms: O_2  and  C_3
REMARK    3  A    between atoms: C_5  and  C_14
REMARK    4  A    between atoms: C_8  and  O_9
REMARK    5  A    between atoms: O_9  and  C_10
REMARK    6  A    between atoms: C_10  and  C_11
REMARK    7  A    between atoms: N_15  and  N_16
REMARK    8  A    between atoms: C_17  and  C_19
REMARK    9  A    between atoms: C_24  and  C_25
REMARK   10  A    between atoms: C_24  and  N_59
REMARK                            x       y       z     vdW  Elec       q    Type
REMARK                         _______ _______ _______ _____ _____    ______ ____
ROOT
ATOM      1  N   UNL     1       2.875   5.216   6.168  0.00  0.00    -0.207 N 
ATOM      2  C   UNL     1       2.077   5.724   5.208  0.00  0.00    +0.235 C 
ATOM      3  O   UNL     1       1.217   6.530   5.497  0.00  0.00    -0.274 OA
ATOM      4  H   UNL     1       3.562   4.572   5.937  0.00  0.00    +0.177 HD
ENDROOT
BRANCH   2   5
ATOM      5  C   UNL     1       2.254   5.293   3.775  0.00  0.00    +0.073 C 
ATOM      6  C   UNL     1       1.230   6.013   2.893  0.00  0.00    -0.006 C 
ATOM      7  C   UNL     1       1.375   5.526   1.450  0.00  0.00    -0.078 C 
ATOM      8  C   UNL     1       2.157   3.358   2.199  0.00  0.00    -0.078 C 
ATOM      9  C   UNL     1       2.036   3.781   3.665  0.00  0.00    -0.006 C 
ATOM     10  N   UNL     1       1.129   4.069   1.409  0.00  0.00    +0.382 N 
ATOM     11  H   UNL     1       0.205   3.875   1.813  0.00  0.00    -0.081 HD
BRANCH  10  12
ATOM     12  C   UNL     1       1.150   3.592   0.010  0.00  0.00    -0.043 C 
BRANCH  12  13
ATOM     13  C   UNL     1       1.171   2.086   0.002  0.00  0.00    -0.064 A 
ATOM     14  C   UNL     1      -0.017   1.378   0.010  0.00  0.00    +0.003 A 
ATOM     15  C   UNL     1       0.002  -0.004   0.002  0.00  0.00    +0.015 A 
ATOM     16  C   UNL     1       1.209  -0.679  -0.013  0.00  0.00    +0.018 A 
ATOM     17  C   UNL     1       2.397   0.029  -0.021  0.00  0.00    +0.015 A 
ATOM     18  C   UNL     1       2.378   1.411  -0.013  0.00  0.00    +0.003 A 
ATOM     19 BR   UNL     1       1.236  -2.570  -0.023  0.00  0.00    -0.050 Br
ENDBRANCH  12  13
ENDBRANCH  10  12
ENDBRANCH   2   5
BRANCH   1  21
ATOM     20  C   UNL     1       3.478   5.128   8.425  0.00  0.00    +0.138 C 
ATOM     21  N   UNL     1       2.710   5.617   7.500  0.00  0.00    -0.188 NA
BRANCH  20  24
ATOM     22  C   UNL     1       3.964   5.424  12.136  0.00  0.00    +0.162 A 
ATOM     23  C   UNL     1       4.131   5.024  10.824  0.00  0.00    +0.059 A 
ATOM     24  C   UNL     1       3.305   5.550   9.827  0.00  0.00    -0.002 A 
ATOM     25  C   UNL     1       2.319   6.482  10.161  0.00  0.00    +0.013 A 
ATOM     26  C   UNL     1       2.155   6.872  11.473  0.00  0.00    +0.050 A 
ATOM     27  C   UNL     1       2.975   6.349  12.463  0.00  0.00    +0.163 A 
BRANCH  22  29
ATOM     28  C   UNL     1       5.759   3.970  12.703  0.00  0.00    +0.277 C 
ATOM     29  O   UNL     1       4.766   4.914  13.109  0.00  0.00    -0.491 OA
ENDBRANCH  22  29
BRANCH  27  30
ATOM     30  O   UNL     1       2.813   6.741  13.755  0.00  0.00    -0.479 OA
BRANCH  30  31
ATOM     31  C   UNL     1       1.780   7.692  14.019  0.00  0.00    +0.324 C 
BRANCH  31  32
ATOM     32  C   UNL     1       1.750   8.005  15.493  0.00  0.00    +0.248 C 
ATOM     33  O   UNL     1       2.537   7.466  16.243  0.00  0.00    -0.272 OA
ATOM     34  N   UNL     1       0.850   8.883  15.978  0.00  0.00    -0.327 N 
ATOM     35  H   UNL     1       0.222   9.314  15.378  0.00  0.00    +0.145 HD
ATOM     36  H   UNL     1       0.831   9.084  16.927  0.00  0.00    +0.145 HD
ENDBRANCH  31  32
ENDBRANCH  30  31
ENDBRANCH  27  30
ENDBRANCH  20  24
ENDBRANCH   1  21
TORSDOF 9
