REMARK  Name = ZINC20168103
REMARK  10 active torsions:
REMARK  status: ('A' for Active; 'I' for Inactive)
REMARK    1  A    between atoms: C_1  and  C_2
REMARK    2  A    between atoms: C_2  and  O_3
REMARK    3  A    between atoms: O_3  and  C_4
REMARK    4  A    between atoms: C_4  and  C_6
REMARK    5  A    between atoms: C_7  and  C_34
REMARK    6  A    between atoms: C_8  and  C_29
REMARK    7  A    between atoms: C_10  and  N_11
REMARK    8  A    between atoms: C_12  and  C_14
REMARK    9  A    between atoms: N_31  and  C_32
REMARK   10  A    between atoms: N_31  and  C_33
REMARK                            x       y       z     vdW  Elec       q    Type
REMARK                         _______ _______ _______ _____ _____    ______ ____
ROOT
ATOM      1  N   UNL     1      -3.759   1.738   1.421  0.00  0.00    -0.275 N 
ATOM      2  C   UNL     1      -2.604   1.044   1.432  0.00  0.00    +0.254 C 
ATOM      3  O   UNL     1      -2.609  -0.150   1.203  0.00  0.00    -0.270 OA
ATOM      4  H   UNL     1      -3.754   2.819   1.629  0.00  0.00    +0.156 HD
ENDROOT
BRANCH   2   5
ATOM      5  C   UNL     1      -1.337   1.731   1.722  0.00  0.00    +0.097 A 
ATOM      6  C   UNL     1      -1.313   3.091   1.989  0.00  0.00    +0.030 A 
ATOM      7  C   UNL     1      -0.074   3.710   2.257  0.00  0.00    +0.026 A 
ATOM      8  C   UNL     1      -0.007   5.145   2.539  0.00  0.00    -0.007 A 
ATOM      9  C   UNL     1      -1.155   5.942   2.553  0.00  0.00    +0.009 A 
ATOM     10  C   UNL     1      -1.047   7.277   2.821  0.00  0.00    +0.001 A 
ATOM     11  C   UNL     1       0.192   7.854   3.080  0.00  0.00    +0.001 A 
ATOM     12  C   UNL     1       1.330   7.105   3.074  0.00  0.00    +0.008 A 
ATOM     13  C   UNL     1       1.255   5.729   2.802  0.00  0.00    -0.017 A 
ATOM     14  C   UNL     1       2.408   4.922   2.788  0.00  0.00    +0.012 A 
ATOM     15  C   UNL     1       2.330   3.593   2.524  0.00  0.00    +0.047 A 
ATOM     16  C   UNL     1       1.110   2.963   2.257  0.00  0.00    +0.138 A 
ATOM     17  O   UNL     1       1.088   1.636   2.000  0.00  0.00    -0.439 OA
ATOM     18  C   UNL     1      -0.066   0.989   1.738  0.00  0.00    +0.205 A 
ATOM     19  N   UNL     1      -0.054  -0.295   1.494  0.00  0.00    -0.369 N 
ATOM     20  H   UNL     1       0.896  -0.849   1.506  0.00  0.00    +0.159 HD
ATOM     21  H   UNL     1      -0.995  -0.821   1.275  0.00  0.00    +0.159 HD
ENDBRANCH   2   5
BRANCH   1  26
ATOM     22  C   UNL     1      -6.239   1.632   1.092  0.00  0.00    +0.091 A 
ATOM     23  C   UNL     1      -7.284   0.771   0.796  0.00  0.00    -0.015 A 
ATOM     24  C   UNL     1      -6.981  -0.546   0.581  0.00  0.00    +0.079 A 
ATOM     25  S   UNL     1      -5.211  -0.581   0.788  0.00  0.00    -0.068 S 
ATOM     26  C   UNL     1      -4.948   1.094   1.149  0.00  0.00    +0.087 A 
ATOM     27  C   UNL     1      -8.705   1.268   0.714  0.00  0.00    +0.046 C 
BRANCH  24  28
ATOM     28  C   UNL     1      -7.886  -1.651   0.255  0.00  0.00    +0.253 C 
ATOM     29  O   UNL     1      -9.090  -1.481   0.289  0.00  0.00    -0.269 OA
ATOM     30  N   UNL     1      -7.384  -2.855  -0.082  0.00  0.00    -0.303 N 
ATOM     31  C   UNL     1      -8.287  -3.951  -0.441  0.00  0.00    +0.132 C 
ATOM     32  C   UNL     1      -5.934  -3.069  -0.089  0.00  0.00    +0.132 C 
ENDBRANCH  24  28
BRANCH  22  33
ATOM     33  C   UNL     1      -6.477   3.059   1.337  0.00  0.00    +0.342 C 
ATOM     34  O   UNL     1      -6.448   3.848   0.411  0.00  0.00    -0.245 OA
BRANCH  33  35
ATOM     35  O   UNL     1      -6.729   3.496   2.587  0.00  0.00    -0.461 OA
BRANCH  35  37
ATOM     36  C   UNL     1      -7.222   5.224   4.231  0.00  0.00    +0.048 C 
ATOM     37  C   UNL     1      -6.955   4.920   2.755  0.00  0.00    +0.229 C 
ENDBRANCH  35  37
ENDBRANCH  33  35
ENDBRANCH  22  33
ENDBRANCH   1  26
TORSDOF 6
