REMARK  Name = ZINC41027243
REMARK  7 active torsions:
REMARK  status: ('A' for Active; 'I' for Inactive)
REMARK    1  A    between atoms: C_1  and  C_2
REMARK    2  A    between atoms: C_2  and  C_4
REMARK    3  A    between atoms: C_2  and  N_21
REMARK    4  A    between atoms: C_7  and  S_11
REMARK    5  A    between atoms: S_11  and  C_12
REMARK    6  A    between atoms: C_18  and  N_20
REMARK    7  A    between atoms: N_21  and  C_22
REMARK                            x       y       z     vdW  Elec       q    Type
REMARK                         _______ _______ _______ _____ _____    ______ ____
ROOT
ATOM      1  C   UNL     1      -1.384  -0.812  -0.711  0.00  0.00    -0.059 A 
ATOM      2  C   UNL     1      -1.896  -0.784   0.574  0.00  0.00    +0.003 A 
ATOM      3  C   UNL     1      -3.200  -1.173   0.809  0.00  0.00    +0.018 A 
ATOM      4  C   UNL     1      -3.998  -1.594  -0.246  0.00  0.00    +0.051 A 
ATOM      5  C   UNL     1      -3.482  -1.621  -1.537  0.00  0.00    +0.137 A 
ATOM      6  C   UNL     1      -2.177  -1.224  -1.766  0.00  0.00    +0.041 A 
ATOM      7  F   UNL     1      -4.255  -2.029  -2.567  0.00  0.00    -0.204 F 
ENDROOT
BRANCH   1   9
ATOM      8  C   UNL     1       0.115   1.143  -0.998  0.00  0.00    -0.009 C 
ATOM      9  C   UNL     1       0.040  -0.385  -0.962  0.00  0.00    -0.044 C 
BRANCH   9  10
ATOM     10  N   UNL     1       0.900  -0.892   0.115  0.00  0.00    +0.382 N 
ATOM     11  C   UNL     1       2.303  -0.580  -0.190  0.00  0.00    -0.100 C 
ATOM     12  H   UNL     1       0.640  -0.456   0.987  0.00  0.00    -0.085 HD
ATOM     13  H   UNL     1       0.787  -1.892   0.193  0.00  0.00    -0.085 HD
ENDBRANCH   9  10
ENDBRANCH   1   9
BRANCH   4  14
ATOM     14  S   UNL     1      -5.662  -2.092   0.049  0.00  0.00    -0.049 S 
BRANCH  14  15
ATOM     15  C   UNL     1      -6.623  -0.732  -0.526  0.00  0.00    +0.176 A 
ATOM     16  N   UNL     1      -7.982  -0.831  -0.534  0.00  0.00    -0.302 N 
ATOM     17  H   UNL     1      -8.410  -1.645  -0.226  0.00  0.00    +0.171 HD
ATOM     18  C   UNL     1      -8.734   0.201  -0.971  0.00  0.00    +0.254 A 
ATOM     19  O   UNL     1      -9.952   0.121  -0.982  0.00  0.00    -0.268 OA
ATOM     20  C   UNL     1      -8.094   1.364  -1.411  0.00  0.00    +0.113 A 
ATOM     21  C   UNL     1      -6.707   1.415  -1.382  0.00  0.00    +0.124 A 
ATOM     22  N   UNL     1      -6.014   0.362  -0.933  0.00  0.00    -0.208 NA
BRANCH  21  23
ATOM     23  N   UNL     1      -6.046   2.548  -1.810  0.00  0.00    -0.343 N 
ATOM     24  H   UNL     1      -6.551   3.312  -2.131  0.00  0.00    +0.144 HD
ATOM     25  H   UNL     1      -5.077   2.582  -1.789  0.00  0.00    +0.144 HD
ENDBRANCH  21  23
ENDBRANCH  14  15
ENDBRANCH   4  14
TORSDOF 5
