REMARK  Name = ZINC32768162
REMARK  8 active torsions:
REMARK  status: ('A' for Active; 'I' for Inactive)
REMARK    1  A    between atoms: C_1  and  C_2
REMARK    2  A    between atoms: C_3  and  S_8
REMARK    3  A    between atoms: C_4  and  C_7
REMARK    4  A    between atoms: S_8  and  N_11
REMARK    5  A    between atoms: C_15  and  C_17
REMARK    6  A    between atoms: N_19  and  C_20
REMARK    7  A    between atoms: C_23  and  O_27
REMARK    8  A    between atoms: O_27  and  C_28
REMARK                            x       y       z     vdW  Elec       q    Type
REMARK                         _______ _______ _______ _____ _____    ______ ____
ROOT
ATOM      1  N   UNL     1      -2.432  -6.888   0.319  0.00  0.00    -0.165 NA
ATOM      2  C   UNL     1      -2.556  -7.586   1.612  0.00  0.00    +0.110 C 
ATOM      3  C   UNL     1      -1.110  -8.007   1.975  0.00  0.00    +0.019 C 
ATOM      4  C   UNL     1      -0.294  -6.790   1.463  0.00  0.00    +0.031 C 
ATOM      5  C   UNL     1      -1.063  -6.368   0.193  0.00  0.00    +0.166 C 
ENDROOT
BRANCH   5   6
ATOM      6  C   UNL     1      -1.092  -4.865   0.088  0.00  0.00    +0.236 C 
ATOM      7  O   UNL     1      -2.153  -4.277   0.102  0.00  0.00    -0.274 OA
ATOM      8  N   UNL     1       0.060  -4.174  -0.021  0.00  0.00    -0.284 N 
ATOM      9  H   UNL     1       1.015  -4.710  -0.120  0.00  0.00    +0.155 HD
BRANCH   8  10
ATOM     10  C   UNL     1       0.040  -2.773  -0.007  0.00  0.00    +0.035 A 
ATOM     11  C   UNL     1      -0.904  -2.099   0.756  0.00  0.00    +0.027 A 
ATOM     12  C   UNL     1      -0.923  -0.718   0.769  0.00  0.00    +0.049 A 
ATOM     13  C   UNL     1       0.001  -0.004   0.020  0.00  0.00    +0.145 A 
ATOM     14  C   UNL     1       0.942  -0.677  -0.747  0.00  0.00    +0.084 A 
ATOM     15  C   UNL     1       0.965  -2.059  -0.757  0.00  0.00    +0.047 A 
ATOM     16 CL   UNL     1       2.094   0.217  -1.689  0.00  0.00    -0.080 Cl
BRANCH  13  17
ATOM     17  O   UNL     1      -0.018   1.355   0.034  0.00  0.00    -0.433 OA
BRANCH  17  18
ATOM     18  C   UNL     1      -1.017   1.982   0.841  0.00  0.00    +0.541 C 
ATOM     19  F   UNL     1      -2.286   1.593   0.399  0.00  0.00    -0.166 F 
ATOM     20  F   UNL     1      -0.849   1.595   2.175  0.00  0.00    -0.166 F 
ENDBRANCH  17  18
ENDBRANCH  13  17
ENDBRANCH   8  10
ENDBRANCH   5   6
BRANCH   1  21
ATOM     21  S   UNL     1      -3.637  -6.716  -0.804  0.00  0.00    +0.067 S 
ATOM     22  O   UNL     1      -4.867  -6.837  -0.102  0.00  0.00    -0.153 OA
ATOM     23  O   UNL     1      -3.311  -5.569  -1.577  0.00  0.00    -0.153 OA
BRANCH  21  26
ATOM     24  C   UNL     1      -1.918  -7.160  -3.711  0.00  0.00    +0.071 C 
ATOM     25  C   UNL     1      -2.798  -8.213  -3.090  0.00  0.00    +0.107 A 
ATOM     26  C   UNL     1      -3.538  -8.099  -1.890  0.00  0.00    +0.170 A 
ATOM     27  C   UNL     1      -4.157  -9.298  -1.773  0.00  0.00    +0.161 A 
ATOM     28  O   UNL     1      -3.780 -10.026  -2.833  0.00  0.00    -0.358 OA
ATOM     29  N   UNL     1      -3.026  -9.410  -3.549  0.00  0.00    -0.081 NA
ATOM     30  C   UNL     1      -5.087  -9.729  -0.668  0.00  0.00    +0.091 C 
ENDBRANCH  21  26
ENDBRANCH   1  21
TORSDOF 6
