REMARK  Name = ZINC00526939
REMARK  4 active torsions:
REMARK  status: ('A' for Active; 'I' for Inactive)
REMARK    1  A    between atoms: C_4  and  C_7
REMARK    2  A    between atoms: C_13  and  C_16
REMARK    3  A    between atoms: C_19  and  O_23
REMARK    4  A    between atoms: C_20  and  O_22
REMARK                            x       y       z     vdW  Elec       q    Type
REMARK                         _______ _______ _______ _____ _____    ______ ____
ROOT
ATOM      1  C   UNL     1       3.695  -0.684  -0.038  0.00  0.00    +0.186 A 
ATOM      2  N   UNL     1       4.876  -0.168  -0.317  0.00  0.00    -0.126 NA
ATOM      3  N   UNL     1       5.790  -1.077  -0.235  0.00  0.00    -0.120 NA
ATOM      4  C   UNL     1       5.251  -2.206   0.097  0.00  0.00    +0.213 A 
ATOM      5  N   UNL     1       3.893  -2.007   0.236  0.00  0.00    -0.186 N 
ATOM      6  N   UNL     1       3.009  -3.024   0.578  0.00  0.00    -0.166 NA
ATOM      7  C   UNL     1       3.359  -4.134   1.121  0.00  0.00    +0.080 C 
ATOM      8  C   UNL     1       4.749  -4.529   1.528  0.00  0.00    +0.135 C 
ATOM      9  S   UNL     1       5.961  -3.799   0.373  0.00  0.00    -0.078 S 
ENDROOT
BRANCH   1  13
ATOM     10  C   UNL     1      -0.017   1.379   0.010  0.00  0.00    +0.000 A 
ATOM     11  C   UNL     1       1.168   2.094   0.002  0.00  0.00    +0.001 A 
ATOM     12  C   UNL     1       2.377   1.430  -0.013  0.00  0.00    +0.011 A 
ATOM     13  C   UNL     1       2.404   0.034  -0.021  0.00  0.00    +0.021 A 
ATOM     14  C   UNL     1       1.204  -0.681  -0.013  0.00  0.00    +0.011 A 
ATOM     15  C   UNL     1       0.002  -0.004   0.002  0.00  0.00    +0.001 A 
ENDBRANCH   1  13
BRANCH   7  16
ATOM     16  C   UNL     1       2.289  -5.117   1.371  0.00  0.00    +0.002 A 
ATOM     17  C   UNL     1       2.592  -6.345   1.965  0.00  0.00    +0.013 A 
ATOM     18  C   UNL     1       1.591  -7.264   2.197  0.00  0.00    +0.050 A 
ATOM     19  C   UNL     1       0.281  -6.972   1.844  0.00  0.00    +0.158 A 
ATOM     20  C   UNL     1      -0.028  -5.749   1.251  0.00  0.00    +0.159 A 
ATOM     21  C   UNL     1       0.970  -4.821   1.020  0.00  0.00    +0.059 A 
BRANCH  20  22
ATOM     22  O   UNL     1      -1.313  -5.467   0.906  0.00  0.00    -0.503 OA
ATOM     23  H   UNL     1      -1.822  -5.033   1.604  0.00  0.00    +0.292 HD
ENDBRANCH  20  22
BRANCH  19  24
ATOM     24  O   UNL     1      -0.702  -7.881   2.076  0.00  0.00    -0.503 OA
ATOM     25  H   UNL     1      -1.124  -7.792   2.941  0.00  0.00    +0.292 HD
ENDBRANCH  19  24
ENDBRANCH   7  16
TORSDOF 4
