REMARK  Name = ZINC40067509
REMARK  4 active torsions:
REMARK  status: ('A' for Active; 'I' for Inactive)
REMARK    1  A    between atoms: C_1  and  C_2
REMARK    2  A    between atoms: C_6  and  C_7
REMARK    3  A    between atoms: C_7  and  N_8
REMARK    4  A    between atoms: N_8  and  C_9
REMARK                            x       y       z     vdW  Elec       q    Type
REMARK                         _______ _______ _______ _____ _____    ______ ____
ROOT
ATOM      1  N   UNL     1      -1.598  -0.230   2.997  0.00  0.00    -0.313 N 
ATOM      2  C   UNL     1      -2.102  -1.382   3.748  0.00  0.00    +0.131 C 
ATOM      3  C   UNL     1      -2.446   0.820   2.686  0.00  0.00    +0.128 A 
ATOM      4  C   UNL     1      -1.977   1.920   1.967  0.00  0.00    +0.084 A 
ATOM      5  C   UNL     1      -2.860   2.945   1.679  0.00  0.00    +0.136 A 
ATOM      6  N   UNL     1      -4.117   2.852   2.091  0.00  0.00    -0.203 NA
ATOM      7  C   UNL     1      -4.534   1.796   2.772  0.00  0.00    +0.216 A 
ATOM      8  N   UNL     1      -3.720   0.791   3.064  0.00  0.00    -0.200 NA
ATOM      9  N   UNL     1      -5.853   1.737   3.186  0.00  0.00    -0.327 N 
ATOM     10 CL   UNL     1      -2.329   4.336   0.787  0.00  0.00    -0.062 Cl
ATOM     11  H   UNL     1      -6.460   2.464   2.976  0.00  0.00    +0.145 HD
ATOM     12  H   UNL     1      -6.171   0.969   3.685  0.00  0.00    +0.145 HD
ENDROOT
BRANCH   1  13
ATOM     13  C   UNL     1      -0.195  -0.189   2.575  0.00  0.00    +0.148 C 
BRANCH  13  19
ATOM     14  C   UNL     1       0.085  -3.113   1.677  0.00  0.00    +0.044 C 
ATOM     15  C   UNL     1       0.042  -1.960   0.708  0.00  0.00    -0.039 A 
ATOM     16  C   UNL     1       0.123  -2.185  -0.654  0.00  0.00    +0.011 A 
ATOM     17  C   UNL     1       0.082  -1.126  -1.499  0.00  0.00    +0.046 A 
ATOM     18  S   UNL     1      -0.077   0.244  -0.366  0.00  0.00    -0.100 S 
ATOM     19  C   UNL     1      -0.083  -0.688   1.157  0.00  0.00    +0.010 A 
ENDBRANCH  13  19
ENDBRANCH   1  13
TORSDOF 2
