REMARK  Name = ZINC06561661
REMARK  9 active torsions:
REMARK  status: ('A' for Active; 'I' for Inactive)
REMARK    1  A    between atoms: C_1  and  C_2
REMARK    2  A    between atoms: C_7  and  C_9
REMARK    3  A    between atoms: C_7  and  C_10
REMARK    4  A    between atoms: C_13  and  C_15
REMARK    5  A    between atoms: C_15  and  O_16
REMARK    6  A    between atoms: O_16  and  C_17
REMARK    7  A    between atoms: C_17  and  C_19
REMARK    8  A    between atoms: C_22  and  O_26
REMARK    9  A    between atoms: C_24  and  O_25
REMARK                            x       y       z     vdW  Elec       q    Type
REMARK                         _______ _______ _______ _____ _____    ______ ____
ROOT
ATOM      1  C   UNL     1      -3.679  -2.453  -0.611  0.00  0.00    +0.328 C 
ENDROOT
BRANCH   1  13
ATOM      2  C   UNL     1      -0.019   1.532   0.011  0.00  0.00    +0.013 C 
ATOM      3  C   UNL     1       0.002  -0.004   0.002  0.00  0.00    -0.014 C 
ATOM      4  C   UNL     1       0.685  -0.578  -1.269  0.00  0.00    +0.030 C 
ATOM      5  C   UNL     1       0.129  -2.024  -1.231  0.00  0.00    +0.077 C 
ATOM      6  C   UNL     1       0.888  -2.772  -0.139  0.00  0.00    +0.029 C 
ATOM      7  C   UNL     1       0.823  -2.105   1.223  0.00  0.00    -0.033 C 
ATOM      8  C   UNL     1       0.726  -0.591   1.212  0.00  0.00    +0.014 C 
ATOM      9  C   UNL     1       2.126  -2.474   1.975  0.00  0.00    +0.011 C 
ATOM     10  C   UNL     1      -0.332  -2.701   2.040  0.00  0.00    +0.011 C 
ATOM     11  N   UNL     1      -1.283  -1.875  -0.825  0.00  0.00    -0.295 N 
ATOM     12  C   UNL     1      -1.417  -0.610  -0.086  0.00  0.00    +0.115 C 
ATOM     13  C   UNL     1      -2.281  -2.741  -1.094  0.00  0.00    +0.254 C 
ATOM     14  O   UNL     1      -2.053  -3.752  -1.724  0.00  0.00    -0.272 OA
ENDBRANCH   1  13
BRANCH   1  15
ATOM     15  O   UNL     1      -4.551  -3.510  -1.018  0.00  0.00    -0.452 OA
BRANCH  15  16
ATOM     16  C   UNL     1      -5.847  -3.405  -0.663  0.00  0.00    +0.343 C 
ATOM     17  O   UNL     1      -6.226  -2.442  -0.026  0.00  0.00    -0.245 OA
BRANCH  16  18
ATOM     18  C   UNL     1      -6.802  -4.456  -1.048  0.00  0.00    +0.100 A 
ATOM     19  C   UNL     1      -6.368  -5.568  -1.776  0.00  0.00    +0.022 A 
ATOM     20  C   UNL     1      -7.255  -6.543  -2.132  0.00  0.00    +0.046 A 
ATOM     21  C   UNL     1      -8.596  -6.438  -1.775  0.00  0.00    +0.120 A 
ATOM     22  C   UNL     1      -9.044  -5.342  -1.052  0.00  0.00    +0.091 A 
ATOM     23  C   UNL     1      -8.153  -4.350  -0.680  0.00  0.00    +0.134 A 
BRANCH  23  24
ATOM     24  O   UNL     1      -8.584  -3.278   0.032  0.00  0.00    -0.506 OA
ATOM     25  H   UNL     1      -8.880  -2.537  -0.514  0.00  0.00    +0.292 HD
ENDBRANCH  23  24
BRANCH  21  26
ATOM     26  O   UNL     1      -9.470  -7.412  -2.135  0.00  0.00    -0.507 OA
ATOM     27  H   UNL     1      -9.555  -8.123  -1.485  0.00  0.00    +0.292 HD
ENDBRANCH  21  26
ENDBRANCH  16  18
ENDBRANCH  15  16
ENDBRANCH   1  15
TORSDOF 6
