REMARK  Name = ZINC32200321
REMARK  5 active torsions:
REMARK  status: ('A' for Active; 'I' for Inactive)
REMARK    1  A    between atoms: C_1  and  C_2
REMARK    2  A    between atoms: C_2  and  C_3
REMARK    3  A    between atoms: C_3  and  C_4
REMARK    4  A    between atoms: C_4  and  C_5
REMARK    5  A    between atoms: C_8  and  C_10
REMARK                            x       y       z     vdW  Elec       q    Type
REMARK                         _______ _______ _______ _____ _____    ______ ____
ROOT
ATOM      1  C   UNL     1       1.668  -5.992  -0.793  0.00  0.00    +0.010 A 
ATOM      2  C   UNL     1       2.029  -6.835  -1.842  0.00  0.00    +0.080 A 
ATOM      3  C   UNL     1       2.482  -8.126  -1.560  0.00  0.00    +0.251 A 
ATOM      4  O   UNL     1       2.796  -8.859  -2.483  0.00  0.00    -0.268 OA
ATOM      5  N   UNL     1       2.581  -8.583  -0.300  0.00  0.00    -0.308 N 
ATOM      6  H   UNL     1       2.942  -9.606  -0.113  0.00  0.00    +0.170 HD
ATOM      7  C   UNL     1       2.247  -7.814   0.767  0.00  0.00    +0.128 A 
ATOM      8  C   UNL     1       1.790  -6.511   0.571  0.00  0.00    +0.088 A 
ATOM      9  C   UNL     1       1.431  -5.706   1.738  0.00  0.00    +0.264 A 
ATOM     10  O   UNL     1       1.023  -4.566   1.611  0.00  0.00    -0.267 OA
ATOM     11  N   UNL     1       1.569  -6.262   2.963  0.00  0.00    -0.274 N 
ATOM     12  H   UNL     1       1.312  -5.683   3.862  0.00  0.00    +0.173 HD
ATOM     13  C   UNL     1       2.018  -7.521   3.099  0.00  0.00    +0.328 A 
ATOM     14  O   UNL     1       2.127  -7.983   4.217  0.00  0.00    -0.247 OA
ATOM     15  N   UNL     1       2.351  -8.289   2.048  0.00  0.00    -0.293 N 
ATOM     16  H   UNL     1       2.713  -9.312   2.228  0.00  0.00    +0.172 HD
ENDROOT
BRANCH   1  20
ATOM     17  C   UNL     1       0.739  -2.004  -1.265  0.00  0.00    -0.010 A 
ATOM     18  C   UNL     1      -0.179  -2.857  -1.788  0.00  0.00    +0.012 A 
ATOM     19  C   UNL     1       0.034  -4.212  -1.692  0.00  0.00    +0.016 A 
ATOM     20  C   UNL     1       1.186  -4.625  -1.047  0.00  0.00    +0.021 A 
ATOM     21  S   UNL     1       1.936  -3.069  -0.602  0.00  0.00    -0.093 S 
BRANCH  17  22
ATOM     22  C   UNL     1       0.718  -0.497  -1.257  0.00  0.00    +0.042 C 
BRANCH  22  23
ATOM     23  C   UNL     1       0.002  -0.004   0.002  0.00  0.00    +0.005 C 
BRANCH  23  25
ATOM     24  C   UNL     1      -0.735   2.019   1.269  0.00  0.00    +0.004 C 
ATOM     25  C   UNL     1      -0.019   1.526   0.010  0.00  0.00    -0.003 C 
ENDBRANCH  23  25
ENDBRANCH  22  23
ENDBRANCH  17  22
ENDBRANCH   1  20
TORSDOF 4
