REMARK  Name = ZINC09065446
REMARK  9 active torsions:
REMARK  status: ('A' for Active; 'I' for Inactive)
REMARK    1  A    between atoms: C_1  and  C_2
REMARK    2  A    between atoms: C_2  and  O_3
REMARK    3  A    between atoms: O_3  and  C_4
REMARK    4  A    between atoms: C_16  and  C_30
REMARK    5  A    between atoms: C_16  and  C_31
REMARK    6  A    between atoms: C_18  and  C_20
REMARK    7  A    between atoms: C_20  and  S_21
REMARK    8  A    between atoms: S_21  and  C_22
REMARK    9  A    between atoms: C_24  and  C_29
REMARK                            x       y       z     vdW  Elec       q    Type
REMARK                         _______ _______ _______ _____ _____    ______ ____
ROOT
ATOM      1  C   UNL     1       2.255  -1.681  -2.042  0.00  0.00    +0.121 A 
ATOM      2  C   UNL     1       1.716  -2.324  -0.936  0.00  0.00    +0.047 A 
ATOM      3  C   UNL     1       1.547  -3.697  -0.930  0.00  0.00    +0.028 A 
ATOM      4  C   UNL     1       1.915  -4.441  -2.041  0.00  0.00    +0.045 A 
ATOM      5  C   UNL     1       2.442  -3.789  -3.157  0.00  0.00    +0.009 A 
ATOM      6  C   UNL     1       2.618  -2.415  -3.164  0.00  0.00    +0.056 A 
ATOM      7  C   UNL     1       2.796  -4.608  -4.379  0.00  0.00    +0.018 A 
ATOM      8  C   UNL     1       2.343  -5.915  -4.394  0.00  0.00    +0.029 A 
ATOM      9  S   UNL     1       2.841  -6.706  -5.789  0.00  0.00    -0.053 S 
ATOM     10  S   UNL     1       3.827  -5.093  -6.655  0.00  0.00    -0.044 S 
ATOM     11  C   UNL     1       3.525  -3.989  -5.422  0.00  0.00    +0.071 A 
ATOM     12  S   UNL     1       4.026  -2.352  -5.428  0.00  0.00    -0.043 S 
ATOM     13  C   UNL     1       1.500  -6.535  -3.305  0.00  0.00    +0.069 C 
ATOM     14  N   UNL     1       1.772  -5.835  -2.042  0.00  0.00    -0.260 N 
ATOM     15  C   UNL     1       1.885  -6.530  -0.892  0.00  0.00    +0.231 C 
ATOM     16  O   UNL     1       1.819  -7.741  -0.906  0.00  0.00    -0.274 OA
ATOM     17  C   UNL     1       1.857  -8.015  -3.159  0.00  0.00    +0.037 C 
ATOM     18  C   UNL     1       0.018  -6.393  -3.660  0.00  0.00    +0.037 C 
ENDROOT
BRANCH   1  19
ATOM     19  O   UNL     1       2.423  -0.332  -2.029  0.00  0.00    -0.492 OA
BRANCH  19  21
ATOM     20  C   UNL     1       2.289   1.857  -1.014  0.00  0.00    +0.048 C 
ATOM     21  C   UNL     1       2.028   0.359  -0.843  0.00  0.00    +0.225 C 
ENDBRANCH  19  21
ENDBRANCH   1  19
BRANCH  15  22
ATOM     22  C   UNL     1       2.094  -5.801   0.410  0.00  0.00    +0.173 C 
BRANCH  22  23
ATOM     23  S   UNL     1       2.762  -6.950   1.645  0.00  0.00    -0.078 S 
BRANCH  23  24
ATOM     24  C   UNL     1       2.947  -5.961   3.091  0.00  0.00    +0.170 A 
ATOM     25  N   UNL     1       2.605  -4.687   3.054  0.00  0.00    -0.228 NA
ATOM     26  C   UNL     1       2.728  -3.906   4.124  0.00  0.00    +0.046 A 
ATOM     27  C   UNL     1       3.219  -4.415   5.292  0.00  0.00    +0.093 A 
ATOM     28  C   UNL     1       3.587  -5.771   5.341  0.00  0.00    +0.252 A 
ATOM     29  N   UNL     1       3.437  -6.525   4.230  0.00  0.00    -0.302 N 
ATOM     30  O   UNL     1       4.028  -6.259   6.368  0.00  0.00    -0.268 OA
ATOM     31  C   UNL     1       2.327  -2.455   4.046  0.00  0.00    +0.066 C 
ATOM     32  H   UNL     1       3.681  -7.464   4.242  0.00  0.00    +0.171 HD
ENDBRANCH  23  24
ENDBRANCH  22  23
ENDBRANCH  15  22
TORSDOF 5
