REMARK  Name = ZINC31164645
REMARK  16 active torsions:
REMARK  status: ('A' for Active; 'I' for Inactive)
REMARK    1  A    between atoms: C_1  and  C_2
REMARK    2  A    between atoms: C_2  and  C_3
REMARK    3  A    between atoms: C_2  and  C_4
REMARK    4  A    between atoms: C_2  and  O_41
REMARK    5  A    between atoms: C_8  and  C_11
REMARK    6  A    between atoms: C_11  and  O_13
REMARK    7  A    between atoms: O_13  and  C_14
REMARK    8  A    between atoms: C_14  and  C_15
REMARK    9  A    between atoms: C_17  and  O_40
REMARK   10  A    between atoms: C_19  and  O_39
REMARK   11  A    between atoms: C_21  and  O_38
REMARK   12  A    between atoms: C_23  and  O_26
REMARK   13  A    between atoms: O_26  and  C_27
REMARK   14  A    between atoms: C_28  and  O_37
REMARK   15  A    between atoms: C_30  and  C_34
REMARK   16  A    between atoms: C_32  and  O_33
REMARK                            x       y       z     vdW  Elec       q    Type
REMARK                         _______ _______ _______ _____ _____    ______ ____
ROOT
ATOM      1  C   UNL     1       1.501   1.999   2.396  0.00  0.00    +0.191 C 
ATOM      2  C   UNL     1       0.069   1.470   2.503  0.00  0.00    +0.178 C 
ATOM      3  C   UNL     1      -0.727   1.920   1.274  0.00  0.00    +0.180 C 
ATOM      4  C   UNL     1      -0.017   1.425   0.010  0.00  0.00    +0.214 C 
ATOM      5  C   UNL     1       1.419   1.956  -0.001  0.00  0.00    +0.340 C 
ATOM      6  O   UNL     1       2.093   1.527   1.184  0.00  0.00    -0.330 OA
ENDROOT
BRANCH   4   7
ATOM      7  O   UNL     1       0.002  -0.004   0.002  0.00  0.00    -0.383 OA
ATOM      8  H   UNL     1       0.473  -0.543  -0.833  0.00  0.00    +0.210 HD
ENDBRANCH   4   7
BRANCH   3   9
ATOM      9  O   UNL     1      -2.045   1.369   1.329  0.00  0.00    -0.386 OA
ATOM     10  H   UNL     1      -2.765   1.585   0.526  0.00  0.00    +0.210 HD
ENDBRANCH   3   9
BRANCH   2  11
ATOM     11  O   UNL     1      -0.545   1.988   3.685  0.00  0.00    -0.386 OA
ATOM     12  H   UNL     1      -1.582   1.715   3.931  0.00  0.00    +0.210 HD
ENDBRANCH   2  11
BRANCH   1  13
ATOM     13  C   UNL     1       2.319   1.504   3.590  0.00  0.00    +0.266 C 
BRANCH  13  14
ATOM     14  O   UNL     1       3.642   2.099   3.551  0.00  0.00    -0.459 OA
BRANCH  14  15
ATOM     15  C   UNL     1       4.494   1.764   4.540  0.00  0.00    +0.335 C 
ATOM     16  O   UNL     1       4.140   0.994   5.412  0.00  0.00    -0.245 OA
BRANCH  15  20
ATOM     17  C   UNL     1       8.547   3.084   4.385  0.00  0.00    +0.024 C 
ATOM     18  C   UNL     1       7.486   4.068   3.877  0.00  0.00    +0.011 C 
ATOM     19  C   UNL     1       6.245   3.270   3.465  0.00  0.00    +0.042 C 
ATOM     20  C   UNL     1       5.851   2.328   4.565  0.00  0.00    +0.033 C 
ATOM     21  C   UNL     1       6.652   1.975   5.548  0.00  0.00    -0.016 C 
ATOM     22  C   UNL     1       8.057   2.480   5.702  0.00  0.00    +0.034 C 
BRANCH  17  24
ATOM     23  C   UNL     1      10.914   2.845   5.148  0.00  0.00    +0.041 C 
ATOM     24  C   UNL     1       9.865   3.825   4.618  0.00  0.00    +0.064 C 
ATOM     25  C   UNL     1      10.351   4.428   3.299  0.00  0.00    +0.041 C 
BRANCH  24  26
ATOM     26  O   UNL     1       9.663   4.869   5.573  0.00  0.00    -0.389 OA
ATOM     27  H   UNL     1       8.940   5.671   5.365  0.00  0.00    +0.210 HD
ENDBRANCH  24  26
ENDBRANCH  17  24
ENDBRANCH  15  20
ENDBRANCH  14  15
ENDBRANCH  13  14
ENDBRANCH   1  13
BRANCH   5  28
ATOM     28  O   UNL     1       2.104   1.452  -1.149  0.00  0.00    -0.453 OA
BRANCH  28  29
ATOM     29  C   UNL     1       3.364   1.913  -1.367  0.00  0.00    +0.206 A 
ATOM     30  C   UNL     1       3.563   3.050  -2.146  0.00  0.00    +0.163 A 
ATOM     31  C   UNL     1       4.843   3.524  -2.364  0.00  0.00    +0.064 A 
ATOM     32  C   UNL     1       5.938   2.855  -1.811  0.00  0.00    +0.070 A 
ATOM     33  C   UNL     1       5.736   1.711  -1.034  0.00  0.00    +0.064 A 
ATOM     34  C   UNL     1       4.454   1.244  -0.815  0.00  0.00    +0.163 A 
BRANCH  32  35
ATOM     35  C   UNL     1       7.306   3.355  -2.047  0.00  0.00    +0.387 C 
ATOM     36  O   UNL     1       8.257   2.773  -1.566  0.00  0.00    -0.241 OA
ATOM     37  O   UNL     1       7.499   4.458  -2.796  0.00  0.00    -0.241 OA
ENDBRANCH  32  35
BRANCH  34  38
ATOM     38  O   UNL     1       4.256   0.131  -0.059  0.00  0.00    -0.503 OA
ATOM     39  H   UNL     1       5.116  -0.398   0.377  0.00  0.00    +0.292 HD
ENDBRANCH  34  38
BRANCH  30  40
ATOM     40  O   UNL     1       2.497   3.697  -2.688  0.00  0.00    -0.503 OA
ATOM     41  H   UNL     1       2.654   4.596  -3.303  0.00  0.00    +0.292 HD
ENDBRANCH  30  40
ENDBRANCH  28  29
ENDBRANCH   5  28
TORSDOF 14
