REMARK  Name = ZINC35351389
REMARK  7 active torsions:
REMARK  status: ('A' for Active; 'I' for Inactive)
REMARK    1  A    between atoms: C_1  and  C_2
REMARK    2  A    between atoms: C_7  and  C_8
REMARK    3  A    between atoms: N_10  and  C_11
REMARK    4  A    between atoms: C_15  and  S_17
REMARK    5  A    between atoms: S_17  and  N_20
REMARK    6  A    between atoms: C_27  and  C_31
REMARK    7  A    between atoms: C_27  and  C_32
REMARK                            x       y       z     vdW  Elec       q    Type
REMARK                         _______ _______ _______ _____ _____    ______ ____
ROOT
ATOM      1  C   UNL     1       0.034  -0.392   2.496  0.00  0.00    +0.265 C 
ATOM      2  O   UNL     1       0.029   0.795   2.764  0.00  0.00    -0.268 OA
ATOM      3  N   UNL     1       0.054  -1.306   3.486  0.00  0.00    -0.280 N 
ATOM      4  H   UNL     1      -0.009  -2.251   3.274  0.00  0.00    +0.155 HD
ENDROOT
BRANCH   1  11
ATOM      5  C   UNL     1      -0.016   1.502   0.010  0.00  0.00    +0.047 C 
ATOM      6  C   UNL     1      -0.004  -0.004   0.002  0.00  0.00    -0.010 A 
ATOM      7  C   UNL     1      -0.007  -0.835  -1.125  0.00  0.00    +0.042 A 
ATOM      8  C   UNL     1       0.004  -2.156  -0.678  0.00  0.00    +0.028 A 
ATOM      9  N   UNL     1       0.018  -2.138   0.655  0.00  0.00    -0.354 N 
ATOM     10  H   UNL     1       0.029  -2.921   1.227  0.00  0.00    +0.166 HD
ATOM     11  C   UNL     1       0.017  -0.827   1.094  0.00  0.00    +0.106 A 
ATOM     12  C   UNL     1      -0.001  -3.337  -1.615  0.00  0.00    +0.060 C 
ATOM     13  C   UNL     1      -0.523  -2.893  -2.984  0.00  0.00    -0.023 C 
ATOM     14  C   UNL     1       0.257  -1.676  -3.492  0.00  0.00    +0.086 C 
ATOM     15  C   UNL     1      -0.017  -0.506  -2.559  0.00  0.00    +0.166 C 
ATOM     16  O   UNL     1      -0.229   0.616  -2.968  0.00  0.00    -0.292 OA
ATOM     17  C   UNL     1      -2.004  -2.528  -2.865  0.00  0.00    +0.011 C 
ATOM     18  C   UNL     1      -0.366  -4.043  -3.981  0.00  0.00    +0.011 C 
ENDBRANCH   1  11
BRANCH   3  19
ATOM     19  C   UNL     1       0.168  -0.894   4.817  0.00  0.00    +0.036 A 
ATOM     20  C   UNL     1      -0.440   0.283   5.235  0.00  0.00    +0.023 A 
ATOM     21  C   UNL     1      -0.327   0.688   6.550  0.00  0.00    +0.004 A 
ATOM     22  C   UNL     1       0.391  -0.078   7.451  0.00  0.00    +0.029 A 
ATOM     23  C   UNL     1       0.998  -1.250   7.038  0.00  0.00    +0.114 A 
ATOM     24  C   UNL     1       0.884  -1.663   5.725  0.00  0.00    +0.052 A 
BRANCH  23  25
ATOM     25  S   UNL     1       1.913  -2.220   8.190  0.00  0.00    +0.100 S 
ATOM     26  O   UNL     1       2.838  -2.986   7.430  0.00  0.00    -0.146 OA
ATOM     27  O   UNL     1       2.322  -1.340   9.228  0.00  0.00    -0.146 OA
BRANCH  25  28
ATOM     28  N   UNL     1       0.855  -3.297   8.871  0.00  0.00    -0.118 NA
ATOM     29  C   UNL     1       1.272  -4.138   9.761  0.00  0.00    +0.117 C 
ATOM     30  N   UNL     1       2.559  -4.228  10.221  0.00  0.00    -0.331 N 
ATOM     31  C   UNL     1       2.561  -4.918  11.522  0.00  0.00    +0.103 C 
ATOM     32  C   UNL     1       1.357  -5.883  11.449  0.00  0.00    +0.026 C 
ATOM     33  C   UNL     1       0.412  -5.169  10.458  0.00  0.00    +0.074 C 
ATOM     34  H   UNL     1       3.344  -3.891   9.763  0.00  0.00    +0.147 HD
ENDBRANCH  25  28
ENDBRANCH  23  25
ENDBRANCH   3  19
TORSDOF 4
