REMARK  Name = ZINC40924614
REMARK  5 active torsions:
REMARK  status: ('A' for Active; 'I' for Inactive)
REMARK    1  A    between atoms: C_1  and  C_2
REMARK    2  A    between atoms: C_2  and  C_3
REMARK    3  A    between atoms: C_2  and  C_4
REMARK    4  A    between atoms: C_2  and  N_20
REMARK    5  A    between atoms: C_8  and  C_17
REMARK                            x       y       z     vdW  Elec       q    Type
REMARK                         _______ _______ _______ _____ _____    ______ ____
ROOT
ATOM      1  C   UNL     1      -1.262  -0.488   0.104  0.00  0.00    +0.208 C 
ATOM      2  O   UNL     1      -0.096  -0.178   0.233  0.00  0.00    -0.277 OA
ATOM      3  N   UNL     1      -1.826  -0.494  -1.120  0.00  0.00    -0.265 N 
ATOM      4  C   UNL     1      -3.198  -0.989  -1.325  0.00  0.00    +0.170 C 
ATOM      5  C   UNL     1      -3.201  -1.829  -2.610  0.00  0.00    +0.303 C 
ATOM      6  O   UNL     1      -2.754  -1.013  -3.695  0.00  0.00    -0.474 OA
ATOM      7  C   UNL     1      -1.609  -0.302  -3.522  0.00  0.00    +0.143 A 
ATOM      8  C   UNL     1      -1.128  -0.021  -2.245  0.00  0.00    +0.078 A 
ATOM      9  C   UNL     1       0.035   0.714  -2.082  0.00  0.00    +0.027 A 
ATOM     10  C   UNL     1       0.720   1.175  -3.192  0.00  0.00    +0.002 A 
ATOM     11  C   UNL     1       0.245   0.901  -4.461  0.00  0.00    +0.004 A 
ATOM     12  C   UNL     1      -0.913   0.157  -4.630  0.00  0.00    +0.047 A 
ENDROOT
BRANCH   1  14
ATOM     13  C   UNL     1      -2.276  -2.385   1.337  0.00  0.00    -0.001 C 
ATOM     14  C   UNL     1      -2.078  -0.869   1.312  0.00  0.00    +0.002 C 
ATOM     15  C   UNL     1      -1.347  -0.428   2.581  0.00  0.00    -0.001 C 
BRANCH  14  16
ATOM     16  N   UNL     1      -3.388  -0.205   1.246  0.00  0.00    +0.387 N 
ATOM     17  H   UNL     1      -3.891  -0.369   2.105  0.00  0.00    -0.089 HD
ATOM     18  H   UNL     1      -3.256   0.787   1.117  0.00  0.00    -0.089 HD
ATOM     19  H   UNL     1      -3.915  -0.579   0.471  0.00  0.00    -0.089 HD
ENDBRANCH  14  16
ENDBRANCH   1  14
BRANCH   5  20
ATOM     20  C   UNL     1      -4.597  -2.323  -2.887  0.00  0.00    +0.397 C 
ATOM     21  O   UNL     1      -5.192  -1.943  -3.881  0.00  0.00    -0.242 OA
ATOM     22  O   UNL     1      -5.132  -3.103  -2.118  0.00  0.00    -0.242 OA
ENDBRANCH   5  20
TORSDOF 3
