REMARK  Name = ZINC36612879
REMARK  11 active torsions:
REMARK  status: ('A' for Active; 'I' for Inactive)
REMARK    1  A    between atoms: C_1  and  C_2
REMARK    2  A    between atoms: C_2  and  O_3
REMARK    3  A    between atoms: O_3  and  C_4
REMARK    4  A    between atoms: C_6  and  C_16
REMARK    5  A    between atoms: C_9  and  O_10
REMARK    6  A    between atoms: O_10  and  C_11
REMARK    7  A    between atoms: C_11  and  C_12
REMARK    8  A    between atoms: C_16  and  N_17
REMARK    9  A    between atoms: N_17  and  C_18
REMARK   10  A    between atoms: C_18  and  C_20
REMARK   11  A    between atoms: C_18  and  C_21
REMARK                            x       y       z     vdW  Elec       q    Type
REMARK                         _______ _______ _______ _____ _____    ______ ____
ROOT
ATOM      1  C   UNL     1       0.802  -1.825   1.306  0.00  0.00    +0.163 A 
ATOM      2  C   UNL     1       0.261  -2.673   0.353  0.00  0.00    +0.051 A 
ATOM      3  C   UNL     1       0.372  -4.043   0.502  0.00  0.00    -0.060 A 
ATOM      4  C   UNL     1       1.022  -4.570   1.602  0.00  0.00    +0.020 A 
ATOM      5  C   UNL     1       1.565  -3.730   2.557  0.00  0.00    +0.059 A 
ATOM      6  C   UNL     1       1.462  -2.356   2.409  0.00  0.00    +0.176 A 
ATOM      7  I   UNL     1       2.549  -4.534   4.223  0.00  0.00    -0.040 I 
ENDROOT
BRANCH   1   8
ATOM      8  O   UNL     1       0.693  -0.477   1.160  0.00  0.00    -0.489 OA
BRANCH   8  10
ATOM      9  C   UNL     1      -0.019   1.526   0.010  0.00  0.00    +0.048 C 
ATOM     10  C   UNL     1       0.002  -0.004   0.002  0.00  0.00    +0.226 C 
ENDBRANCH   8  10
ENDBRANCH   1   8
BRANCH   6  11
ATOM     11  O   UNL     1       2.000  -1.528   3.345  0.00  0.00    -0.478 OA
BRANCH  11  12
ATOM     12  C   UNL     1       1.161  -1.151   4.438  0.00  0.00    +0.324 C 
BRANCH  12  13
ATOM     13  C   UNL     1       1.922  -0.239   5.365  0.00  0.00    +0.248 C 
ATOM     14  O   UNL     1       3.070   0.060   5.114  0.00  0.00    -0.272 OA
ATOM     15  N   UNL     1       1.326   0.246   6.473  0.00  0.00    -0.327 N 
ATOM     16  H   UNL     1       0.408   0.007   6.673  0.00  0.00    +0.145 HD
ATOM     17  H   UNL     1       1.816   0.833   7.069  0.00  0.00    +0.145 HD
ENDBRANCH  12  13
ENDBRANCH  11  12
ENDBRANCH   6  11
BRANCH   3  18
ATOM     18  C   UNL     1      -0.218  -4.963  -0.535  0.00  0.00    -0.046 C 
BRANCH  18  19
ATOM     19  N   UNL     1       0.786  -5.241  -1.571  0.00  0.00    +0.386 N 
ATOM     20  H   UNL     1       1.067  -4.376  -2.008  0.00  0.00    -0.085 HD
ATOM     21  H   UNL     1       1.591  -5.681  -1.149  0.00  0.00    -0.085 HD
BRANCH  19  22
ATOM     22  C   UNL     1       0.212  -6.138  -2.582  0.00  0.00    -0.044 C 
ATOM     23  C   UNL     1      -0.930  -5.423  -3.308  0.00  0.00    -0.009 C 
BRANCH  22  24
ATOM     24  C   UNL     1       1.277  -6.521  -3.577  0.00  0.00    -0.062 A 
ATOM     25  C   UNL     1       2.193  -5.579  -4.007  0.00  0.00    +0.002 A 
ATOM     26  C   UNL     1       3.170  -5.931  -4.919  0.00  0.00    +0.000 A 
ATOM     27  C   UNL     1       3.231  -7.224  -5.402  0.00  0.00    +0.000 A 
ATOM     28  C   UNL     1       2.316  -8.167  -4.971  0.00  0.00    +0.000 A 
ATOM     29  C   UNL     1       1.341  -7.816  -4.056  0.00  0.00    +0.002 A 
ENDBRANCH  22  24
ENDBRANCH  19  22
ENDBRANCH  18  19
ENDBRANCH   3  18
TORSDOF 9
