REMARK  Name = ZINC09242539
REMARK  6 active torsions:
REMARK  status: ('A' for Active; 'I' for Inactive)
REMARK    1  A    between atoms: C_1  and  C_2
REMARK    2  A    between atoms: C_2  and  C_3
REMARK    3  A    between atoms: C_3  and  C_4
REMARK    4  A    between atoms: C_11  and  N_28
REMARK    5  A    between atoms: C_12  and  C_26
REMARK    6  A    between atoms: C_16  and  N_23
REMARK                            x       y       z     vdW  Elec       q    Type
REMARK                         _______ _______ _______ _____ _____    ______ ____
ROOT
ATOM      1  C   UNL     1       0.739  -2.004  -1.265  0.00  0.00    +0.071 A 
ATOM      2  C   UNL     1       1.725  -2.809  -0.712  0.00  0.00    +0.061 A 
ATOM      3  C   UNL     1       1.377  -4.115  -0.929  0.00  0.00    +0.223 A 
ATOM      4  N   UNL     1       0.212  -4.119  -1.594  0.00  0.00    -0.246 N 
ATOM      5  H   UNL     1      -0.278  -4.904  -1.883  0.00  0.00    +0.192 HD
ATOM      6  N   UNL     1      -0.176  -2.784  -1.791  0.00  0.00    -0.176 NA
ATOM      7  O   UNL     1       2.141  -5.153  -0.507  0.00  0.00    -0.423 OA
ATOM      8  C   UNL     1       3.398  -4.888  -0.096  0.00  0.00    +0.201 C 
ATOM      9  C   UNL     1       3.855  -3.640   0.163  0.00  0.00    +0.110 C 
ATOM     10  C   UNL     1       2.984  -2.423   0.013  0.00  0.00    +0.145 C 
ATOM     11  C   UNL     1       2.679  -1.806   1.340  0.00  0.00    +0.001 A 
ATOM     12  C   UNL     1       2.033  -2.299   2.453  0.00  0.00    +0.040 A 
ATOM     13  C   UNL     1       1.915  -1.446   3.544  0.00  0.00    +0.127 A 
ATOM     14  C   UNL     1       2.422  -0.163   3.512  0.00  0.00    +0.034 A 
ATOM     15  C   UNL     1       3.074   0.340   2.397  0.00  0.00    +0.026 A 
ATOM     16  C   UNL     1       3.201  -0.506   1.295  0.00  0.00    +0.038 A 
ATOM     17  N   UNL     1       3.797  -0.270   0.069  0.00  0.00    -0.284 N 
ATOM     18  C   UNL     1       3.719  -1.342  -0.748  0.00  0.00    +0.238 C 
ATOM     19  O   UNL     1       4.155  -1.423  -1.876  0.00  0.00    -0.274 OA
ATOM     20  H   UNL     1       4.222   0.567  -0.175  0.00  0.00    +0.155 HD
ENDROOT
BRANCH  13  21
ATOM     21  N   UNL     1       1.230  -1.923   4.767  0.00  0.00    +0.056 N 
ATOM     22  O   UNL     1       0.780  -3.045   4.808  0.00  0.00    -0.126 OA
ATOM     23  O   UNL     1       1.120  -1.192   5.723  0.00  0.00    -0.126 OA
ENDBRANCH  13  21
BRANCH   8  24
ATOM     24  N   UNL     1       4.261  -5.941   0.070  0.00  0.00    -0.328 N 
ATOM     25  H   UNL     1       3.962  -6.847  -0.108  0.00  0.00    +0.145 HD
ATOM     26  H   UNL     1       5.171  -5.781   0.365  0.00  0.00    +0.145 HD
ENDBRANCH   8  24
BRANCH   9  27
ATOM     27  C   UNL     1       5.211  -3.474   0.593  0.00  0.00    +0.102 C 
ATOM     28  N   UNL     1       6.286  -3.342   0.935  0.00  0.00    -0.191 NA
ENDBRANCH   9  27
BRANCH   1  29
ATOM     29  C   UNL     1       0.718  -0.497  -1.257  0.00  0.00    +0.057 C 
BRANCH  29  31
ATOM     30  C   UNL     1      -0.019   1.526   0.010  0.00  0.00    +0.004 C 
ATOM     31  C   UNL     1       0.002  -0.004   0.002  0.00  0.00    +0.003 C 
ENDBRANCH  29  31
ENDBRANCH   1  29
TORSDOF 5
