REMARK  Name = ZINC14323279
REMARK  7 active torsions:
REMARK  status: ('A' for Active; 'I' for Inactive)
REMARK    1  A    between atoms: C_1  and  N_2
REMARK    2  A    between atoms: C_3  and  N_13
REMARK    3  A    between atoms: C_4  and  C_11
REMARK    4  A    between atoms: N_7  and  C_10
REMARK    5  A    between atoms: C_18  and  C_19
REMARK    6  A    between atoms: C_18  and  N_52
REMARK    7  A    between atoms: C_27  and  N_29
REMARK                            x       y       z     vdW  Elec       q    Type
REMARK                         _______ _______ _______ _____ _____    ______ ____
ROOT
ATOM      1  N   UNL     1      -4.644  -3.032  -3.543  0.00  0.00    -0.319 N 
ATOM      2  C   UNL     1      -4.147  -4.267  -2.923  0.00  0.00    +0.088 C 
ATOM      3  C   UNL     1      -3.781  -3.990  -1.463  0.00  0.00    -0.059 C 
ATOM      4  C   UNL     1      -3.262  -1.695  -2.028  0.00  0.00    -0.059 C 
ATOM      5  C   UNL     1      -3.628  -1.972  -3.488  0.00  0.00    +0.088 C 
ATOM      6  N   UNL     1      -2.743  -2.939  -1.423  0.00  0.00    +0.386 N 
ATOM      7  H   UNL     1      -1.926  -3.256  -1.959  0.00  0.00    -0.081 HD
ENDROOT
BRANCH   1  10
ATOM      8  C   UNL     1      -7.329  -2.640  -4.183  0.00  0.00    +0.155 C 
ATOM      9  N   UNL     1      -6.355  -3.077  -5.186  0.00  0.00    -0.284 N 
ATOM     10  C   UNL     1      -5.046  -3.257  -4.827  0.00  0.00    +0.128 A 
ATOM     11  C   UNL     1      -4.127  -3.669  -5.797  0.00  0.00    +0.154 A 
ATOM     12  C   UNL     1      -4.593  -3.896  -7.120  0.00  0.00    +0.276 A 
ATOM     13  O   UNL     1      -3.822  -4.260  -7.990  0.00  0.00    -0.266 OA
ATOM     14  N   UNL     1      -5.896  -3.699  -7.402  0.00  0.00    -0.263 N 
ATOM     15  C   UNL     1      -6.755  -3.298  -6.450  0.00  0.00    +0.333 A 
ATOM     16  O   UNL     1      -7.924  -3.131  -6.739  0.00  0.00    -0.246 OA
ATOM     17  C   UNL     1      -6.382  -3.926  -8.765  0.00  0.00    +0.157 C 
BRANCH  11  18
ATOM     18  C   UNL     1      -2.748  -3.862  -5.463  0.00  0.00    +0.108 C 
ATOM     19  N   UNL     1      -1.654  -4.016  -5.197  0.00  0.00    -0.191 NA
ENDBRANCH  11  18
ENDBRANCH   1  10
BRANCH   6  20
ATOM     20  C   UNL     1      -2.331  -2.688  -0.025  0.00  0.00    -0.001 C 
BRANCH  20  21
ATOM     21  C   UNL     1      -1.127  -1.782  -0.028  0.00  0.00    +0.115 A 
ATOM     22  N   UNL     1      -1.319  -0.485   0.027  0.00  0.00    -0.234 NA
ATOM     23  C   UNL     1      -0.275   0.357   0.027  0.00  0.00    +0.076 A 
ATOM     24  C   UNL     1      -0.443   1.747   0.084  0.00  0.00    +0.028 A 
ATOM     25  C   UNL     1       0.652   2.558   0.081  0.00  0.00    +0.002 A 
ATOM     26  C   UNL     1       1.938   2.027   0.023  0.00  0.00    +0.001 A 
ATOM     27  C   UNL     1       2.137   0.679  -0.034  0.00  0.00    +0.013 A 
ATOM     28  C   UNL     1       1.033  -0.181  -0.033  0.00  0.00    +0.040 A 
ATOM     29  C   UNL     1       1.176  -1.589  -0.090  0.00  0.00    +0.127 A 
ATOM     30  N   UNL     1       0.076  -2.330  -0.084  0.00  0.00    -0.219 NA
BRANCH  29  31
ATOM     31  N   UNL     1       2.423  -2.173  -0.149  0.00  0.00    -0.343 N 
ATOM     32  H   UNL     1       2.505  -3.138  -0.187  0.00  0.00    +0.144 HD
ATOM     33  H   UNL     1       3.219  -1.618  -0.152  0.00  0.00    +0.144 HD
ENDBRANCH  29  31
ENDBRANCH  20  21
ENDBRANCH   6  20
TORSDOF 5
