REMARK  Name = ZINC45253869
REMARK  13 active torsions:
REMARK  status: ('A' for Active; 'I' for Inactive)
REMARK    1  A    between atoms: C_1  and  C_2
REMARK    2  A    between atoms: C_2  and  C_3
REMARK    3  A    between atoms: C_3  and  O_4
REMARK    4  A    between atoms: O_4  and  C_5
REMARK    5  A    between atoms: C_5  and  C_6
REMARK    6  A    between atoms: C_6  and  N_7
REMARK    7  A    between atoms: C_10  and  C_24
REMARK    8  A    between atoms: N_18  and  CA_19
REMARK    9  A    between atoms: CA_19  and  CB_21
REMARK   10  A    between atoms: CA_19  and  C_22
REMARK   11  A    between atoms: C_22  and  O_23
REMARK   12  A    between atoms: C_27  and  O_30
REMARK   13  A    between atoms: O_30  and  C_31
REMARK                            x       y       z     vdW  Elec       q    Type
REMARK                         _______ _______ _______ _____ _____    ______ ____
ROOT
ATOM      1  N   UNK A   0      -1.931  -4.524   1.248  0.00  0.00    -0.300 N 
ATOM      2  C   UNK A   0      -0.555  -4.626   1.332  0.00  0.00    +0.090 A 
ATOM      3  C   UNK A   0       0.238  -4.312   0.233  0.00  0.00    +0.039 A 
ATOM      4  C   UNK A   0       1.622  -4.429   0.363  0.00  0.00    +0.004 A 
ATOM      5  C   UNK A   0       2.159  -4.854   1.583  0.00  0.00    +0.121 A 
ATOM      6  N   UNK A   0       1.386  -5.143   2.602  0.00  0.00    -0.234 NA
ATOM      7  C   UNK A   0       0.056  -5.047   2.527  0.00  0.00    +0.179 A 
ATOM      8  N   UNK A   0      -0.695  -5.355   3.605  0.00  0.00    -0.206 NA
ATOM      9  C   UNK A   0      -2.001  -5.272   3.566  0.00  0.00    +0.187 A 
ATOM     10  C   UNK A   0      -2.679  -4.830   2.332  0.00  0.00    +0.292 A 
ATOM     11  O   UNK A   0      -3.892  -4.745   2.289  0.00  0.00    -0.264 OA
ATOM     12  N   ALA A   1      -2.746  -5.594   4.684  0.00  0.00    -0.320 N 
ATOM     13  H   ALA A   1      -3.713  -5.533   4.656  0.00  0.00    +0.148 HD
ENDROOT
BRANCH   4  14
ATOM     14  C   UNK A   0       2.512  -4.107  -0.778  0.00  0.00    +0.002 A 
ATOM     15  C   UNK A   0       3.901  -4.230  -0.651  0.00  0.00    +0.015 A 
ATOM     16  C   UNK A   0       4.689  -3.918  -1.742  0.00  0.00    +0.068 A 
ATOM     17  C   UNK A   0       4.083  -3.498  -2.920  0.00  0.00    +0.214 A 
ATOM     18  N   UNK A   0       2.767  -3.392  -3.008  0.00  0.00    -0.221 NA
ATOM     19  C   UNK A   0       1.979  -3.685  -1.993  0.00  0.00    +0.123 A 
BRANCH  17  20
ATOM     20  O   UNK A   0       4.852  -3.190  -3.995  0.00  0.00    -0.480 OA
ATOM     21  C   UNK A   0       4.172  -2.763  -5.178  0.00  0.00    +0.279 C 
ENDBRANCH  17  20
ENDBRANCH   4  14
BRANCH  12  22
ATOM     22  CA  ALA A   1      -2.074  -6.028   5.911  0.00  0.00    +0.094 C 
ATOM     23  CB  ALA A   1      -1.655  -4.802   6.724  0.00  0.00    +0.030 C 
BRANCH  22  24
ATOM     24  C   ALA A   1      -3.032  -6.886   6.740  0.00  0.00    +0.177 C 
BRANCH  24  25
ATOM     25  O   ALA A   1      -4.134  -6.087   7.175  0.00  0.00    -0.393 OA
ATOM     26  H   ALA A   1      -4.783  -6.567   7.707  0.00  0.00    +0.209 HD
ENDBRANCH  24  25
ENDBRANCH  22  24
ENDBRANCH  12  22
BRANCH   1  27
ATOM     27  C   UNK A   0      -2.570  -4.085   0.005  0.00  0.00    +0.153 C 
BRANCH  27  28
ATOM     28  C   UNK A   0      -2.711  -2.561   0.014  0.00  0.00    +0.181 C 
BRANCH  28  29
ATOM     29  O   UNK A   0      -1.414  -1.962   0.005  0.00  0.00    -0.378 OA
BRANCH  29  30
ATOM     30  C   UNK A   0      -1.433  -0.534   0.013  0.00  0.00    +0.159 C 
BRANCH  30  32
ATOM     31  C   UNK A   0      -0.019   1.526   0.010  0.00  0.00    +0.006 C 
ATOM     32  C   UNK A   0       0.002  -0.004   0.002  0.00  0.00    +0.025 C 
ENDBRANCH  30  32
ENDBRANCH  29  30
ENDBRANCH  28  29
ENDBRANCH  27  28
ENDBRANCH   1  27
TORSDOF 10
