REMARK  Name = ZINC12346780
REMARK  4 active torsions:
REMARK  status: ('A' for Active; 'I' for Inactive)
REMARK    1  A    between atoms: C_3  and  C_6
REMARK    2  A    between atoms: N_11  and  C_14
REMARK    3  A    between atoms: C_14  and  C_15
REMARK    4  A    between atoms: C_15  and  C_16
REMARK                            x       y       z     vdW  Elec       q    Type
REMARK                         _______ _______ _______ _____ _____    ______ ____
ROOT
ATOM      1  C   UNL     1       0.918   5.160   0.021  0.00  0.00    +0.148 C 
ATOM      2  C   UNL     1       1.151   5.571   1.460  0.00  0.00    +0.058 C 
ATOM      3  C   UNL     1       2.390   5.978   1.804  0.00  0.00    +0.039 C 
ATOM      4  C   UNL     1       2.333   6.321   3.276  0.00  0.00    +0.159 C 
ATOM      5  N   UNL     1       0.942   6.054   3.672  0.00  0.00    -0.292 N 
ATOM      6  C   UNL     1       0.292   5.619   2.578  0.00  0.00    +0.247 C 
ATOM      7  O   UNL     1      -0.884   5.306   2.555  0.00  0.00    -0.270 OA
ATOM      8  N   UNL     1       3.401   6.018   0.887  0.00  0.00    -0.271 N 
ATOM      9  C   UNL     1       3.252   5.667  -0.397  0.00  0.00    +0.304 C 
ATOM     10  O   UNL     1       4.210   5.736  -1.141  0.00  0.00    -0.252 OA
ATOM     11  N   UNL     1       2.072   5.240  -0.890  0.00  0.00    -0.288 N 
ATOM     12  H   UNL     1       4.275   6.318   1.181  0.00  0.00    +0.156 HD
ATOM     13  H   UNL     1       1.986   4.990  -1.824  0.00  0.00    +0.151 HD
ENDROOT
BRANCH   1  16
ATOM     14  C   UNL     1      -1.077   1.915   0.017  0.00  0.00    +0.008 A 
ATOM     15  C   UNL     1      -0.855   3.279   0.027  0.00  0.00    +0.013 A 
ATOM     16  C   UNL     1       0.421   3.738   0.017  0.00  0.00    +0.015 A 
ATOM     17  S   UNL     1       1.359   2.219   0.001  0.00  0.00    -0.099 S 
ATOM     18  C   UNL     1      -0.013   1.076   0.008  0.00  0.00    +0.045 A 
ENDBRANCH   1  16
BRANCH   5  19
ATOM     19  C   UNL     1       0.371   6.230   5.009  0.00  0.00    +0.113 C 
BRANCH  19  20
ATOM     20  C   UNL     1      -0.182   7.650   5.145  0.00  0.00    +0.049 C 
BRANCH  20  21
ATOM     21  C   UNL     1      -0.770   7.831   6.521  0.00  0.00    -0.072 C 
ATOM     22  C   UNL     1      -0.020   8.354   7.438  0.00  0.00    -0.028 C 
ATOM     23  C   UNL     1      -0.461   8.587   8.853  0.00  0.00    +0.027 C 
ATOM     24  C   UNL     1      -1.987   8.528   8.946  0.00  0.00    +0.004 C 
ATOM     25  C   UNL     1      -2.468   7.253   8.242  0.00  0.00    +0.005 C 
ATOM     26  C   UNL     1      -2.190   7.398   6.742  0.00  0.00    +0.030 C 
ENDBRANCH  20  21
ENDBRANCH  19  20
ENDBRANCH   5  19
TORSDOF 4
