REMARK  Name = ZINC21241416
REMARK  7 active torsions:
REMARK  status: ('A' for Active; 'I' for Inactive)
REMARK    1  A    between atoms: C_1  and  C_2
REMARK    2  A    between atoms: C_2  and  O_3
REMARK    3  A    between atoms: O_3  and  C_4
REMARK    4  A    between atoms: C_7  and  C_12
REMARK    5  A    between atoms: C_9  and  O_10
REMARK    6  A    between atoms: O_10  and  C_11
REMARK    7  A    between atoms: C_17  and  C_27
REMARK                            x       y       z     vdW  Elec       q    Type
REMARK                         _______ _______ _______ _____ _____    ______ ____
ROOT
ATOM      1  C   UNL     1      -6.149   5.861  -3.483  0.00  0.00    +0.032 C 
ATOM      2  C   UNL     1      -6.408   4.357  -3.555  0.00  0.00    +0.059 C 
ATOM      3  C   UNL     1      -6.253   3.739  -2.174  0.00  0.00    +0.017 C 
ATOM      4  C   UNL     1      -5.352   4.233  -1.310  0.00  0.00    +0.037 C 
ATOM      5  C   UNL     1      -5.059   3.693   0.070  0.00  0.00    +0.143 C 
ATOM      6  N   UNL     1      -6.020   2.719   0.544  0.00  0.00    -0.331 N 
ATOM      7  C   UNL     1      -6.173   1.492  -0.095  0.00  0.00    +0.049 A 
ATOM      8  C   UNL     1      -5.838   0.304   0.537  0.00  0.00    +0.025 A 
ATOM      9  C   UNL     1      -5.961  -0.891  -0.149  0.00  0.00    +0.002 A 
ATOM     10  C   UNL     1      -6.412  -0.905  -1.457  0.00  0.00    +0.002 A 
ATOM     11  C   UNL     1      -6.765   0.277  -2.085  0.00  0.00    +0.025 A 
ATOM     12  C   UNL     1      -6.663   1.470  -1.392  0.00  0.00    +0.052 A 
ATOM     13  N   UNL     1      -7.073   2.684  -1.934  0.00  0.00    -0.316 N 
ATOM     14  C   UNL     1      -4.574   5.363  -1.657  0.00  0.00    +0.163 C 
ATOM     15  O   UNL     1      -3.759   5.780  -0.857  0.00  0.00    -0.292 OA
ATOM     16  C   UNL     1      -4.718   6.065  -2.973  0.00  0.00    +0.088 C 
ATOM     17  H   UNL     1      -6.643   2.944   1.422  0.00  0.00    +0.147 HD
ATOM     18  H   UNL     1      -8.145   2.755  -2.172  0.00  0.00    +0.152 HD
ENDROOT
BRANCH   5  19
ATOM     19  C   UNL     1      -3.695   3.051   0.054  0.00  0.00    +0.059 A 
ATOM     20  C   UNL     1      -3.154   2.640  -1.107  0.00  0.00    +0.205 A 
ATOM     21  O   UNL     1      -1.949   2.065  -1.182  0.00  0.00    -0.462 OA
ATOM     22  C   UNL     1      -1.178   1.858  -0.096  0.00  0.00    +0.138 A 
ATOM     23  C   UNL     1       0.068   1.252  -0.208  0.00  0.00    +0.047 A 
ATOM     24  C   UNL     1       0.835   1.045   0.919  0.00  0.00    +0.004 A 
ATOM     25  C   UNL     1       0.375   1.431   2.170  0.00  0.00    +0.001 A 
ATOM     26  C   UNL     1      -0.859   2.027   2.303  0.00  0.00    +0.015 A 
ATOM     27  C   UNL     1      -1.645   2.241   1.172  0.00  0.00    +0.064 A 
ATOM     28  C   UNL     1      -2.974   2.877   1.265  0.00  0.00    +0.198 A 
ATOM     29  O   UNL     1      -3.432   3.237   2.336  0.00  0.00    -0.287 OA
ENDBRANCH   5  19
BRANCH   1  33
ATOM     30  C   UNL     1      -6.559   7.588  -7.374  0.00  0.00    +0.162 A 
ATOM     31  C   UNL     1      -5.637   6.577  -7.155  0.00  0.00    +0.050 A 
ATOM     32  C   UNL     1      -5.507   6.021  -5.896  0.00  0.00    +0.008 A 
ATOM     33  C   UNL     1      -6.295   6.471  -4.853  0.00  0.00    -0.040 A 
ATOM     34  C   UNL     1      -7.221   7.475  -5.066  0.00  0.00    +0.053 A 
ATOM     35  C   UNL     1      -7.354   8.040  -6.325  0.00  0.00    +0.162 A 
BRANCH  35  36
ATOM     36  O   UNL     1      -8.261   9.031  -6.535  0.00  0.00    -0.491 OA
ATOM     37  C   UNL     1      -9.041   9.445  -5.412  0.00  0.00    +0.277 C 
ENDBRANCH  35  36
BRANCH  30  38
ATOM     38  O   UNL     1      -6.689   8.136  -8.612  0.00  0.00    -0.489 OA
BRANCH  38  40
ATOM     39  C   UNL     1      -6.129   8.355 -10.953  0.00  0.00    +0.048 C 
ATOM     40  C   UNL     1      -5.841   7.621  -9.641  0.00  0.00    +0.226 C 
ENDBRANCH  38  40
ENDBRANCH  30  38
ENDBRANCH   1  33
TORSDOF 5
