REMARK  Name = ZINC52796600
REMARK  6 active torsions:
REMARK  status: ('A' for Active; 'I' for Inactive)
REMARK    1  A    between atoms: C_1  and  C_2
REMARK    2  A    between atoms: C_4  and  N_8
REMARK    3  A    between atoms: N_5  and  C_7
REMARK    4  A    between atoms: N_11  and  N_12
REMARK    5  A    between atoms: C_13  and  C_15
REMARK    6  A    between atoms: C_15  and  C_16
REMARK                            x       y       z     vdW  Elec       q    Type
REMARK                         _______ _______ _______ _____ _____    ______ ____
ROOT
ATOM      1  N   UNL     1       0.062  -5.467  -3.110  0.00  0.00    -0.233 N 
ATOM      2  C   UNL     1       0.073  -6.556  -3.903  0.00  0.00    +0.230 C 
ATOM      3  O   UNL     1       0.065  -6.427  -5.109  0.00  0.00    -0.274 OA
ATOM      4  H   UNL     1       0.068  -5.570  -2.145  0.00  0.00    +0.173 HD
ENDROOT
BRANCH   1   8
ATOM      5  N   UNL     1       0.040  -3.240  -1.543  0.00  0.00    -0.253 N 
ATOM      6  C   UNL     1       0.031  -3.097  -2.884  0.00  0.00    +0.321 C 
ATOM      7  O   UNL     1       0.013  -1.986  -3.376  0.00  0.00    -0.251 OA
ATOM      8  N   UNL     1       0.042  -4.186  -3.677  0.00  0.00    -0.218 N 
ATOM      9  H   UNL     1       0.054  -4.127  -1.150  0.00  0.00    +0.158 HD
ATOM     10  H   UNL     1       0.035  -4.083  -4.642  0.00  0.00    +0.174 HD
BRANCH   5  14
ATOM     11  C   UNL     1      -0.018   1.503   0.010  0.00  0.00    +0.067 C 
ATOM     12  C   UNL     1       0.002  -0.004   0.002  0.00  0.00    +0.062 A 
ATOM     13  C   UNL     1       0.008  -0.816  -1.135  0.00  0.00    +0.068 A 
ATOM     14  C   UNL     1       0.028  -2.113  -0.722  0.00  0.00    +0.124 A 
ATOM     15  N   UNL     1       0.035  -2.110   0.631  0.00  0.00    -0.253 N 
ATOM     16  N   UNL     1       0.023  -0.776   1.058  0.00  0.00    -0.175 NA
ATOM     17  C   UNL     1       0.055  -3.292   1.495  0.00  0.00    +0.174 C 
ENDBRANCH   5  14
ENDBRANCH   1   8
BRANCH   2  18
ATOM     18  C   UNL     1       0.095  -7.933  -3.292  0.00  0.00    +0.104 C 
BRANCH  18  19
ATOM     19  C   UNL     1       0.103  -8.984  -4.404  0.00  0.00    -0.020 C 
ATOM     20  C   UNL     1      -1.153  -8.828  -5.264  0.00  0.00    +0.011 C 
ATOM     21  C   UNL     1      -1.144  -9.879  -6.376  0.00  0.00    -0.010 C 
ATOM     22  C   UNL     1      -1.122 -11.277  -5.756  0.00  0.00    +0.007 C 
ATOM     23  C   UNL     1       0.134 -11.434  -4.896  0.00  0.00    -0.010 C 
ATOM     24  C   UNL     1       0.126 -10.383  -3.784  0.00  0.00    +0.011 C 
ATOM     25  C   UNL     1       1.377 -11.243  -5.769  0.00  0.00    +0.007 C 
ATOM     26  C   UNL     1       1.354  -9.844  -6.389  0.00  0.00    -0.010 C 
ATOM     27  C   UNL     1       0.098  -9.688  -7.248  0.00  0.00    +0.007 C 
ATOM     28  C   UNL     1       1.346  -8.793  -5.277  0.00  0.00    +0.011 C 
ENDBRANCH  18  19
ENDBRANCH   2  18
TORSDOF 4
