REMARK  Name = ZINC16976278
REMARK  8 active torsions:
REMARK  status: ('A' for Active; 'I' for Inactive)
REMARK    1  A    between atoms: C_1  and  C_2
REMARK    2  A    between atoms: C_5  and  C_8
REMARK    3  A    between atoms: C_8  and  C_14
REMARK    4  A    between atoms: C_14  and  N_15
REMARK    5  A    between atoms: C_16  and  C_18
REMARK    6  A    between atoms: N_20  and  C_21
REMARK    7  A    between atoms: C_24  and  C_30
REMARK    8  A    between atoms: C_26  and  N_27
REMARK                            x       y       z     vdW  Elec       q    Type
REMARK                         _______ _______ _______ _____ _____    ______ ____
ROOT
ATOM      1  N   UNL     1       2.348   1.179  -0.008  0.00  0.00    -0.307 N 
ATOM      2  C   UNL     1       1.188   1.866   0.008  0.00  0.00    +0.299 C 
ATOM      3  O   UNL     1       1.202   3.080   0.008  0.00  0.00    -0.265 OA
ATOM      4  H   UNL     1       2.337   0.209  -0.007  0.00  0.00    +0.149 HD
ENDROOT
BRANCH   2   5
ATOM      5  C   UNL     1      -0.113   1.134   0.027  0.00  0.00    +0.303 C 
ATOM      6  O   UNL     1      -0.127  -0.080   0.028  0.00  0.00    -0.265 OA
ATOM      7  N   UNL     1      -1.273   1.821   0.037  0.00  0.00    -0.276 N 
ATOM      8  H   UNL     1      -1.263   2.787   0.119  0.00  0.00    +0.155 HD
BRANCH   7   9
ATOM      9  C   UNL     1      -2.489   1.141  -0.069  0.00  0.00    +0.064 A 
ATOM     10  C   UNL     1      -2.540  -0.101  -0.691  0.00  0.00    +0.026 A 
ATOM     11  C   UNL     1      -3.743  -0.770  -0.794  0.00  0.00    +0.005 A 
ATOM     12  C   UNL     1      -4.896  -0.206  -0.280  0.00  0.00    -0.048 A 
ATOM     13  C   UNL     1      -4.849   1.029   0.340  0.00  0.00    +0.038 A 
ATOM     14  C   UNL     1      -3.648   1.702   0.452  0.00  0.00    +0.148 A 
ATOM     15  C   UNL     1      -6.208  -0.940  -0.394  0.00  0.00    +0.044 C 
BRANCH  14  16
ATOM     16  N   UNL     1      -3.597   3.021   1.121  0.00  0.00    +0.058 N 
ATOM     17  O   UNL     1      -4.594   3.471   1.656  0.00  0.00    -0.126 OA
ATOM     18  O   UNL     1      -2.558   3.656   1.136  0.00  0.00    -0.126 OA
ENDBRANCH  14  16
ENDBRANCH   7   9
ENDBRANCH   2   5
BRANCH   1  19
ATOM     19  C   UNL     1       3.625   1.898  -0.026  0.00  0.00    +0.116 C 
BRANCH  19  20
ATOM     20  C   UNL     1       4.772   0.895  -0.167  0.00  0.00    +0.015 C 
ATOM     21  C   UNL     1       4.686  -0.142   0.957  0.00  0.00    +0.041 C 
ATOM     22  C   UNL     1       4.862   0.562   2.305  0.00  0.00    +0.160 C 
ATOM     23  O   UNL     1       6.113   1.252   2.321  0.00  0.00    -0.380 OA
ATOM     24  C   UNL     1       6.232   2.267   1.322  0.00  0.00    +0.160 C 
ATOM     25  C   UNL     1       6.111   1.632  -0.066  0.00  0.00    +0.041 C 
BRANCH  20  30
ATOM     26  C   UNL     1       4.406  -1.757  -5.287  0.00  0.00    +0.044 C 
ATOM     27  C   UNL     1       4.500  -1.065  -3.952  0.00  0.00    -0.050 A 
ATOM     28  C   UNL     1       4.545  -1.811  -2.789  0.00  0.00    +0.003 A 
ATOM     29  C   UNL     1       4.633  -1.177  -1.564  0.00  0.00    +0.004 A 
ATOM     30  C   UNL     1       4.676   0.204  -1.502  0.00  0.00    -0.040 A 
ATOM     31  C   UNL     1       4.626   0.950  -2.665  0.00  0.00    +0.004 A 
ATOM     32  C   UNL     1       4.543   0.315  -3.890  0.00  0.00    +0.003 A 
ENDBRANCH  20  30
ENDBRANCH  19  20
ENDBRANCH   1  19
TORSDOF 6
