REMARK  Name = ZINC39482131
REMARK  8 active torsions:
REMARK  status: ('A' for Active; 'I' for Inactive)
REMARK    1  A    between atoms: C_1  and  C_2
REMARK    2  A    between atoms: C_2  and  C_3
REMARK    3  A    between atoms: C_2  and  S_4
REMARK    4  A    between atoms: S_4  and  S_7
REMARK    5  A    between atoms: S_7  and  N_10
REMARK    6  A    between atoms: N_10  and  C_11
REMARK    7  A    between atoms: C_14  and  C_25
REMARK    8  A    between atoms: C_16  and  N_17
REMARK                            x       y       z     vdW  Elec       q    Type
REMARK                         _______ _______ _______ _____ _____    ______ ____
ROOT
ATOM      1  C   UNL     1       4.903   0.079  -2.889  0.00  0.00    +0.097 A 
ATOM      2  C   UNL     1       5.530   0.878  -1.943  0.00  0.00    +0.029 A 
ATOM      3  C   UNL     1       6.844   1.260  -2.121  0.00  0.00    +0.010 A 
ATOM      4  C   UNL     1       7.545   0.845  -3.252  0.00  0.00    -0.016 A 
ATOM      5  C   UNL     1       6.918   0.043  -4.204  0.00  0.00    +0.033 A 
ATOM      6  C   UNL     1       5.602  -0.344  -4.021  0.00  0.00    +0.055 A 
ENDROOT
BRANCH   6   7
ATOM      7  N   UNL     1       4.971  -1.155  -4.972  0.00  0.00    -0.324 N 
ATOM      8  C   UNL     1       4.251  -0.563  -6.110  0.00  0.00    +0.120 C 
ATOM      9  C   UNL     1       4.752  -1.223  -7.399  0.00  0.00    +0.101 C 
ATOM     10  N   UNL     1       4.631  -2.682  -7.278  0.00  0.00    -0.298 NA
ATOM     11  C   UNL     1       5.481  -3.199  -6.198  0.00  0.00    +0.164 C 
ATOM     12  C   UNL     1       5.014  -2.621  -4.863  0.00  0.00    +0.140 C 
ATOM     13 CL   UNL     1       5.365  -4.998  -6.151  0.00  0.00    -0.103 Cl
ATOM     14  H   UNL     1       3.669  -2.954  -7.144  0.00  0.00    +0.123 HD
ENDBRANCH   6   7
BRANCH   4  15
ATOM     15  C   UNL     1       8.957   1.258  -3.443  0.00  0.00    -0.018 A 
ATOM     16  C   UNL     1       9.659   0.848  -4.575  0.00  0.00    +0.008 A 
ATOM     17  C   UNL     1      10.972   1.235  -4.748  0.00  0.00    +0.001 A 
ATOM     18  C   UNL     1      11.593   2.027  -3.799  0.00  0.00    +0.000 A 
ATOM     19  C   UNL     1      10.902   2.436  -2.672  0.00  0.00    +0.001 A 
ATOM     20  C   UNL     1       9.586   2.060  -2.493  0.00  0.00    +0.008 A 
ENDBRANCH   4  15
BRANCH   1  21
ATOM     21  N   UNL     1       3.571  -0.307  -2.705  0.00  0.00    -0.080 NA
BRANCH  21  22
ATOM     22  S   UNL     1       2.741   0.194  -1.363  0.00  0.00    +0.187 S 
ATOM     23  O   UNL     1       2.605   1.604  -1.473  0.00  0.00    -0.130 OA
ATOM     24  O   UNL     1       3.363  -0.426  -0.245  0.00  0.00    -0.130 OA
BRANCH  22  25
ATOM     25  S   UNL     1       0.851  -0.589  -1.490  0.00  0.00    +0.106 S 
ATOM     26  O   UNL     1       1.037  -1.996  -1.428  0.00  0.00    -0.151 OA
ATOM     27  O   UNL     1       0.285   0.016  -2.645  0.00  0.00    -0.151 OA
BRANCH  25  29
ATOM     28  C   UNL     1      -0.019   1.526   0.010  0.00  0.00    +0.033 C 
ATOM     29  C   UNL     1       0.002  -0.004   0.002  0.00  0.00    +0.150 C 
ATOM     30  C   UNL     1      -1.433  -0.534   0.013  0.00  0.00    +0.033 C 
ENDBRANCH  25  29
ENDBRANCH  22  25
ENDBRANCH  21  22
ENDBRANCH   1  21
TORSDOF 6
