REMARK  Name = ZINC06073578
REMARK  4 active torsions:
REMARK  status: ('A' for Active; 'I' for Inactive)
REMARK    1  A    between atoms: C_2  and  C_3
REMARK    2  A    between atoms: C_3  and  N_4
REMARK    3  A    between atoms: C_12  and  C_15
REMARK    4  A    between atoms: N_17  and  C_18
REMARK                            x       y       z     vdW  Elec       q    Type
REMARK                         _______ _______ _______ _____ _____    ______ ____
ROOT
ATOM      1  N   UNL     1      -3.558   9.177  -0.312  0.00  0.00    -0.304 N 
ATOM      2  C   UNL     1      -2.546  10.013  -0.739  0.00  0.00    +0.056 A 
ATOM      3  C   UNL     1      -2.701  11.395  -0.665  0.00  0.00    +0.026 A 
ATOM      4  C   UNL     1      -1.686  12.223  -1.093  0.00  0.00    +0.002 A 
ATOM      5  C   UNL     1      -0.507  11.695  -1.599  0.00  0.00    +0.001 A 
ATOM      6  C   UNL     1      -0.333  10.343  -1.682  0.00  0.00    +0.014 A 
ATOM      7  C   UNL     1      -1.350   9.482  -1.253  0.00  0.00    +0.046 A 
ATOM      8  C   UNL     1      -1.181   8.028  -1.335  0.00  0.00    +0.205 A 
ATOM      9  C   UNL     1      -2.227   7.214  -0.893  0.00  0.00    +0.148 A 
ATOM     10  C   UNL     1      -3.443   7.840  -0.376  0.00  0.00    +0.268 A 
ATOM     11  O   UNL     1      -4.364   7.139   0.007  0.00  0.00    -0.267 OA
ATOM     12  O   UNL     1      -0.044   7.489  -1.824  0.00  0.00    -0.286 OA
ENDROOT
BRANCH   9  13
ATOM     13  C   UNL     1      -2.109   5.752  -0.952  0.00  0.00    +0.254 C 
ATOM     14  O   UNL     1      -2.647   5.134  -1.852  0.00  0.00    -0.270 OA
ATOM     15  N   UNL     1      -1.406   5.094  -0.010  0.00  0.00    -0.306 N 
ATOM     16  H   UNL     1      -0.852   5.657   0.756  0.00  0.00    +0.150 HD
BRANCH  15  17
ATOM     17  C   UNL     1      -1.378   3.629  -0.005  0.00  0.00    +0.036 C 
ATOM     18  C   UNL     1      -0.789   3.126  -1.325  0.00  0.00    +0.029 C 
ATOM     19  C   UNL     1      -0.760   1.597  -1.321  0.00  0.00    -0.008 C 
ATOM     20  C   UNL     1       0.103   1.106  -0.157  0.00  0.00    +0.007 C 
ATOM     21  C   UNL     1      -0.486   1.609   1.163  0.00  0.00    -0.008 C 
ATOM     22  C   UNL     1      -0.514   3.139   1.158  0.00  0.00    +0.029 C 
ATOM     23  C   UNL     1      -1.910   1.072   1.323  0.00  0.00    +0.007 C 
ATOM     24  C   UNL     1      -2.773   1.563   0.159  0.00  0.00    -0.008 C 
ATOM     25  C   UNL     1      -2.184   1.060  -1.161  0.00  0.00    +0.007 C 
ATOM     26  C   UNL     1      -2.802   3.093   0.155  0.00  0.00    +0.029 C 
ENDBRANCH  15  17
ENDBRANCH   9  13
BRANCH   1  27
ATOM     27  C   UNL     1      -4.791   9.763   0.220  0.00  0.00    +0.152 C 
BRANCH  27  29
ATOM     28  C   UNL     1      -6.974   9.456  -0.830  0.00  0.00    +0.005 C 
ATOM     29  C   UNL     1      -5.772   9.973  -0.905  0.00  0.00    -0.013 C 
ENDBRANCH  27  29
ENDBRANCH   1  27
TORSDOF 4
