REMARK  Name = ZINC41648523
REMARK  9 active torsions:
REMARK  status: ('A' for Active; 'I' for Inactive)
REMARK    1  A    between atoms: C_1  and  N_2
REMARK    2  A    between atoms: N_2  and  C_3
REMARK    3  A    between atoms: N_2  and  C_4
REMARK    4  A    between atoms: C_4  and  C_6
REMARK    5  A    between atoms: C_4  and  C_23
REMARK    6  A    between atoms: C_6  and  N_7
REMARK    7  A    between atoms: C_8  and  C_10
REMARK    8  A    between atoms: N_12  and  C_13
REMARK    9  A    between atoms: C_17  and  N_19
REMARK                            x       y       z     vdW  Elec       q    Type
REMARK                         _______ _______ _______ _____ _____    ______ ____
ROOT
ATOM      1  N   UNL     1       1.880   1.572  -0.886  0.00  0.00    -0.309 N 
ATOM      2  C   UNL     1       2.996   2.323  -0.801  0.00  0.00    +0.299 C 
ATOM      3  O   UNL     1       4.084   1.814  -0.975  0.00  0.00    -0.265 OA
ATOM      4  H   UNL     1       1.011   1.978  -0.747  0.00  0.00    +0.149 HD
ENDROOT
BRANCH   2   5
ATOM      5  C   UNL     1       2.894   3.781  -0.494  0.00  0.00    +0.303 C 
ATOM      6  O   UNL     1       1.806   4.289  -0.320  0.00  0.00    -0.265 OA
ATOM      7  N   UNL     1       4.010   4.532  -0.409  0.00  0.00    -0.278 N 
ATOM      8  H   UNL     1       4.873   4.143  -0.621  0.00  0.00    +0.155 HD
BRANCH   7   9
ATOM      9  C   UNL     1       3.924   5.870  -0.015  0.00  0.00    +0.036 A 
ATOM     10  C   UNL     1       4.785   6.813  -0.562  0.00  0.00    +0.025 A 
ATOM     11  C   UNL     1       4.697   8.134  -0.172  0.00  0.00    +0.024 A 
ATOM     12  C   UNL     1       3.752   8.520   0.763  0.00  0.00    +0.071 A 
ATOM     13  C   UNL     1       2.893   7.583   1.310  0.00  0.00    +0.146 A 
ATOM     14  C   UNL     1       2.973   6.260   0.919  0.00  0.00    +0.057 A 
ATOM     15 CL   UNL     1       3.645  10.182   1.253  0.00  0.00    -0.081 Cl
BRANCH  13  16
ATOM     16  N   UNL     1       1.885   7.999   2.310  0.00  0.00    +0.058 N 
ATOM     17  O   UNL     1       1.134   7.180   2.788  0.00  0.00    -0.126 OA
ATOM     18  O   UNL     1       1.812   9.157   2.650  0.00  0.00    -0.126 OA
ENDBRANCH  13  16
ENDBRANCH   7   9
ENDBRANCH   2   5
BRANCH   1  19
ATOM     19  C   UNL     1       1.981   0.142  -1.188  0.00  0.00    +0.094 C 
BRANCH  19  20
ATOM     20  C   UNL     1       0.592  -0.496  -1.105  0.00  0.00    -0.020 C 
BRANCH  20  21
ATOM     21  C   UNL     1      -0.286   0.071  -2.190  0.00  0.00    -0.052 A 
ATOM     22  C   UNL     1      -1.196   1.072  -1.905  0.00  0.00    +0.009 A 
ATOM     23  C   UNL     1      -1.972   1.560  -2.904  0.00  0.00    +0.045 A 
ATOM     24  S   UNL     1      -1.423   0.595  -4.302  0.00  0.00    -0.105 S 
ATOM     25  C   UNL     1      -0.193  -0.389  -3.461  0.00  0.00    +0.047 A 
ENDBRANCH  20  21
BRANCH  20  27
ATOM     26  C   UNL     1       1.481  -2.516  -0.165  0.00  0.00    -0.096 C 
ATOM     27  N   UNL     1       0.710  -1.950  -1.279  0.00  0.00    +0.382 N 
ATOM     28  C   UNL     1      -0.631  -2.550  -1.302  0.00  0.00    -0.096 C 
ATOM     29  H   UNL     1       1.181  -2.147  -2.149  0.00  0.00    -0.082 HD
ENDBRANCH  20  27
ENDBRANCH  19  20
ENDBRANCH   1  19
TORSDOF 7
