REMARK  Name = ZINC14142970
REMARK  4 active torsions:
REMARK  status: ('A' for Active; 'I' for Inactive)
REMARK    1  A    between atoms: C_3  and  C_20
REMARK    2  A    between atoms: N_5  and  C_6
REMARK    3  A    between atoms: C_6  and  C_7
REMARK    4  A    between atoms: N_9  and  C_10
REMARK                            x       y       z     vdW  Elec       q    Type
REMARK                         _______ _______ _______ _____ _____    ______ ____
ROOT
ATOM      1  C   UNL     1      -0.014   1.209   0.009  0.00  0.00    +0.235 C 
ATOM      2  O   UNL     1       0.002  -0.004   0.002  0.00  0.00    -0.274 OA
ATOM      3  N   UNL     1       1.143   1.898   0.001  0.00  0.00    -0.308 N 
ATOM      4  H   UNL     1       1.130   2.868   0.007  0.00  0.00    +0.149 HD
ENDROOT
BRANCH   3   5
ATOM      5  C   UNL     1       2.422   1.183  -0.015  0.00  0.00    +0.035 C 
ATOM      6  C   UNL     1       2.527   0.298   1.229  0.00  0.00    +0.029 C 
ATOM      7  C   UNL     1       3.862  -0.449   1.212  0.00  0.00    -0.008 C 
ATOM      8  C   UNL     1       5.011   0.561   1.206  0.00  0.00    +0.007 C 
ATOM      9  C   UNL     1       4.907   1.446  -0.037  0.00  0.00    -0.008 C 
ATOM     10  C   UNL     1       3.571   2.193  -0.020  0.00  0.00    +0.029 C 
ATOM     11  C   UNL     1       4.987   0.575  -1.292  0.00  0.00    +0.007 C 
ATOM     12  C   UNL     1       3.838  -0.435  -1.286  0.00  0.00    -0.008 C 
ATOM     13  C   UNL     1       3.943  -1.321  -0.043  0.00  0.00    +0.007 C 
ATOM     14  C   UNL     1       2.503   0.311  -1.270  0.00  0.00    +0.029 C 
ENDBRANCH   3   5
BRANCH   1  15
ATOM     15  C   UNL     1      -1.330   1.944   0.019  0.00  0.00    +0.240 C 
BRANCH  15  20
ATOM     16  C   UNL     1      -3.440   0.906   0.908  0.00  0.00    +0.221 A 
ATOM     17  N   UNL     1      -4.216  -0.087   0.569  0.00  0.00    -0.206 NA
ATOM     18  C   UNL     1      -3.738  -0.681  -0.536  0.00  0.00    +0.252 A 
ATOM     19  N   UNL     1      -2.643  -0.053  -0.911  0.00  0.00    -0.138 NA
ATOM     20  N   UNL     1      -2.430   0.977   0.019  0.00  0.00    -0.242 N 
BRANCH  18  21
ATOM     21  C   UNL     1      -4.324  -1.807  -1.199  0.00  0.00    +0.142 C 
ATOM     22  N   UNL     1      -4.790  -2.699  -1.725  0.00  0.00    -0.188 NA
ENDBRANCH  18  21
ENDBRANCH  15  20
ENDBRANCH   1  15
TORSDOF 4
