REMARK  Name = ZINC19080818
REMARK  4 active torsions:
REMARK  status: ('A' for Active; 'I' for Inactive)
REMARK    1  A    between atoms: C_1  and  C_2
REMARK    2  A    between atoms: C_2  and  C_4
REMARK    3  A    between atoms: C_2  and  S_6
REMARK    4  A    between atoms: S_6  and  C_7
REMARK                            x       y       z     vdW  Elec       q    Type
REMARK                         _______ _______ _______ _____ _____    ______ ____
ROOT
ATOM      1  C   UNL     1       3.533   4.294  -0.010  0.00  0.00    +0.198 A 
ATOM      2  N   UNL     1       3.781   5.581  -0.006  0.00  0.00    -0.120 NA
ATOM      3  N   UNL     1       2.556   6.259   0.010  0.00  0.00    -0.110 NA
ATOM      4  C   UNL     1       1.595   5.363   0.015  0.00  0.00    +0.235 A 
ATOM      5  N   UNL     1       2.174   4.125   0.003  0.00  0.00    -0.255 N 
ATOM      6  C   UNL     1       1.158   3.167   0.008  0.00  0.00    +0.075 A 
ATOM      7  C   UNL     1       1.175   1.780   0.000  0.00  0.00    +0.028 A 
ATOM      8  C   UNL     1      -0.013   1.076   0.008  0.00  0.00    +0.002 A 
ATOM      9  C   UNL     1      -1.222   1.749   0.017  0.00  0.00    +0.002 A 
ATOM     10  C   UNL     1      -1.250   3.129   0.031  0.00  0.00    +0.028 A 
ATOM     11  C   UNL     1      -0.061   3.845   0.023  0.00  0.00    +0.066 A 
ATOM     12  N   UNL     1       0.220   5.208   0.028  0.00  0.00    -0.322 N 
ATOM     13  H   UNL     1      -0.434   5.924   0.037  0.00  0.00    +0.169 HD
ENDROOT
BRANCH   1  14
ATOM     14  S   UNL     1       4.736   3.007  -0.028  0.00  0.00    -0.071 S 
BRANCH  14  16
ATOM     15  C   UNL     1       6.484   4.662   1.270  0.00  0.00    +0.031 C 
ATOM     16  C   UNL     1       6.321   3.888  -0.040  0.00  0.00    +0.164 C 
BRANCH  16  17
ATOM     17  C   UNL     1       7.447   2.896  -0.179  0.00  0.00    +0.369 C 
ATOM     18  O   UNL     1       7.264   1.733   0.095  0.00  0.00    -0.245 OA
ATOM     19  O   UNL     1       8.651   3.303  -0.609  0.00  0.00    -0.245 OA
ENDBRANCH  16  17
ENDBRANCH  14  16
ENDBRANCH   1  14
TORSDOF 3
