REMARK  Name = ZINC26693551
REMARK  4 active torsions:
REMARK  status: ('A' for Active; 'I' for Inactive)
REMARK    1  A    between atoms: C_1  and  C_2
REMARK    2  A    between atoms: N_10  and  C_11
REMARK    3  A    between atoms: C_11  and  C_13
REMARK    4  A    between atoms: C_11  and  C_14
REMARK                            x       y       z     vdW  Elec       q    Type
REMARK                         _______ _______ _______ _____ _____    ______ ____
ROOT
ATOM      1  C   UNL     1       0.267   3.377  -5.984  0.00  0.00    +0.067 C 
ATOM      2  C   UNL     1       0.059   2.371  -4.881  0.00  0.00    +0.059 A 
ATOM      3  C   UNL     1      -0.402   2.640  -3.647  0.00  0.00    +0.138 A 
ATOM      4  N   UNL     1      -0.444   1.444  -2.941  0.00  0.00    -0.212 N 
ATOM      5  C   UNL     1       0.008   0.501  -3.822  0.00  0.00    +0.197 A 
ATOM      6  N   UNL     1       0.302   1.055  -4.963  0.00  0.00    -0.225 NA
ATOM      7  S   UNL     1      -0.072  -0.992  -2.860  0.00  0.00    -0.013 S 
ATOM      8  C   UNL     1      -0.699  -0.269  -1.352  0.00  0.00    +0.182 A 
ATOM      9  N   UNL     1      -0.797   0.993  -1.674  0.00  0.00    -0.142 NA
ATOM     10  N   UNL     1      -1.004  -0.888  -0.151  0.00  0.00    -0.315 N 
ATOM     11  H   UNL     1      -1.386  -0.294   0.693  0.00  0.00    +0.149 HD
ENDROOT
BRANCH  10  12
ATOM     12  C   UNL     1      -0.816  -2.334  -0.003  0.00  0.00    +0.102 C 
ATOM     13  C   UNL     1      -0.570  -2.668   1.469  0.00  0.00    +0.033 C 
BRANCH  12  14
ATOM     14  C   UNL     1      -2.051  -3.052  -0.482  0.00  0.00    +0.008 A 
ATOM     15  C   UNL     1      -3.262  -2.386  -0.531  0.00  0.00    +0.011 A 
ATOM     16  C   UNL     1      -4.395  -3.042  -0.974  0.00  0.00    +0.039 A 
ATOM     17  C   UNL     1      -4.320  -4.370  -1.360  0.00  0.00    +0.126 A 
ATOM     18  C   UNL     1      -3.110  -5.039  -1.306  0.00  0.00    +0.077 A 
ATOM     19  C   UNL     1      -1.975  -4.379  -0.867  0.00  0.00    +0.131 A 
ATOM     20  F   UNL     1      -0.792  -5.031  -0.815  0.00  0.00    -0.205 F 
ATOM     21  F   UNL     1      -5.429  -5.013  -1.789  0.00  0.00    -0.205 F 
ENDBRANCH  12  14
ENDBRANCH  10  12
TORSDOF 2
