REMARK  Name = ZINC63182741
REMARK  7 active torsions:
REMARK  status: ('A' for Active; 'I' for Inactive)
REMARK    1  A    between atoms: C_1  and  C_2
REMARK    2  A    between atoms: C_6  and  N_8
REMARK    3  A    between atoms: C_9  and  C_11
REMARK    4  A    between atoms: C_11  and  C_13
REMARK    5  A    between atoms: C_11  and  N_23
REMARK    6  A    between atoms: C_13  and  C_14
REMARK    7  A    between atoms: C_24  and  C_26
REMARK                            x       y       z     vdW  Elec       q    Type
REMARK                         _______ _______ _______ _____ _____    ______ ____
ROOT
ATOM      1  C   UNL     1      -0.129  -4.898   3.686  0.00  0.00    +0.163 C 
ENDROOT
BRANCH   1   3
ATOM      2  N   UNL     1       0.052  -2.797   2.393  0.00  0.00    -0.284 N 
ATOM      3  C   UNL     1      -0.031  -4.143   2.385  0.00  0.00    +0.238 C 
ATOM      4  O   UNL     1      -0.028  -4.745   1.333  0.00  0.00    -0.273 OA
ATOM      5  H   UNL     1       0.127  -2.321   3.234  0.00  0.00    +0.155 HD
BRANCH   2  11
ATOM      6  C   UNL     1       1.524   1.061  -0.275  0.00  0.00    +0.044 C 
ATOM      7  C   UNL     1       0.735  -0.215  -0.134  0.00  0.00    -0.049 A 
ATOM      8  C   UNL     1      -0.011  -0.687  -1.199  0.00  0.00    +0.003 A 
ATOM      9  C   UNL     1      -0.736  -1.857  -1.074  0.00  0.00    +0.002 A 
ATOM     10  C   UNL     1      -0.717  -2.559   0.116  0.00  0.00    +0.023 A 
ATOM     11  C   UNL     1       0.031  -2.089   1.186  0.00  0.00    +0.034 A 
ATOM     12  C   UNL     1       0.763  -0.915   1.056  0.00  0.00    +0.026 A 
ENDBRANCH   2  11
ENDBRANCH   1   3
BRANCH   1  13
ATOM     13  N   UNL     1      -0.676  -6.234   3.434  0.00  0.00    -0.299 N 
ATOM     14  C   UNL     1      -0.029  -7.083   2.611  0.00  0.00    +0.251 C 
ATOM     15  O   UNL     1       1.009  -6.741   2.077  0.00  0.00    -0.270 OA
ATOM     16  H   UNL     1      -1.503  -6.507   3.860  0.00  0.00    +0.150 HD
BRANCH  14  17
ATOM     17  C   UNL     1      -0.577  -8.419   2.360  0.00  0.00    +0.074 A 
ATOM     18  C   UNL     1      -0.072  -9.435   1.562  0.00  0.00    +0.021 A 
ATOM     19  C   UNL     1      -0.816 -10.590   1.523  0.00  0.00    +0.008 A 
ATOM     20  C   UNL     1      -1.961 -10.660   2.245  0.00  0.00    +0.046 A 
ATOM     21  S   UNL     1      -2.061  -9.165   3.006  0.00  0.00    -0.092 S 
ENDBRANCH  14  17
ENDBRANCH   1  13
BRANCH   1  22
ATOM     22  C   UNL     1       1.264  -5.026   4.306  0.00  0.00    +0.065 C 
BRANCH  22  23
ATOM     23  C   UNL     1       1.151  -5.673   5.663  0.00  0.00    -0.039 C 
ATOM     24  C   UNL     1       1.303  -6.985   5.953  0.00  0.00    -0.001 A 
ATOM     25  C   UNL     1       1.604  -8.159   5.125  0.00  0.00    +0.010 A 
ATOM     26  C   UNL     1       1.694  -9.373   5.714  0.00  0.00    +0.001 A 
ATOM     27  C   UNL     1       1.506  -9.538   7.093  0.00  0.00    +0.002 A 
ATOM     28  C   UNL     1       1.226  -8.508   7.920  0.00  0.00    +0.026 A 
ATOM     29  C   UNL     1       1.109  -7.186   7.407  0.00  0.00    +0.043 A 
ATOM     30  N   UNL     1       0.849  -6.043   7.993  0.00  0.00    -0.380 N 
ATOM     31  C   UNL     1       0.854  -4.985   6.976  0.00  0.00    +0.144 C 
ATOM     32  H   UNL     1       0.685  -5.917   8.941  0.00  0.00    +0.160 HD
ENDBRANCH  22  23
ENDBRANCH   1  22
TORSDOF 6
