REMARK  Name = ZINC03897401
REMARK  8 active torsions:
REMARK  status: ('A' for Active; 'I' for Inactive)
REMARK    1  A    between atoms: C_1  and  C_2
REMARK    2  A    between atoms: C_5  and  N_22
REMARK    3  A    between atoms: C_7  and  N_8
REMARK    4  A    between atoms: N_8  and  C1*_9
REMARK    5  A    between atoms: C2*_11  and  O2*_21
REMARK    6  A    between atoms: C3*_13  and  O3*_20
REMARK    7  A    between atoms: C4*_15  and  C5*_18
REMARK    8  A    between atoms: C5*_18  and  O5*_19
REMARK                            x       y       z     vdW  Elec       q    Type
REMARK                         _______ _______ _______ _____ _____    ______ ____
ROOT
ATOM      1  N   UNL     1       0.025  -0.016   2.415  0.00  0.00    -0.317 N 
ATOM      2  H   UNL     1       0.012   0.954   2.422  0.00  0.00    +0.149 HD
ENDROOT
BRANCH   1   9
ATOM      3  C   UNL     1      -0.018   1.503   0.010  0.00  0.00    +0.045 C 
ATOM      4  C   UNL     1       0.002  -0.004   0.002  0.00  0.00    -0.029 A 
ATOM      5  C   UNL     1       0.006  -0.689  -1.198  0.00  0.00    +0.007 A 
ATOM      6  C   UNL     1       0.025  -2.071  -1.206  0.00  0.00    +0.033 A 
ATOM      7  C   UNL     1       0.040  -2.773  -0.014  0.00  0.00    +0.128 A 
ATOM      8  C   UNL     1       0.036  -2.095   1.188  0.00  0.00    +0.056 A 
ATOM      9  C   UNL     1       0.023  -0.706   1.200  0.00  0.00    +0.034 A 
BRANCH   7  10
ATOM     10  N   UNL     1       0.059  -4.253  -0.028  0.00  0.00    +0.056 N 
ATOM     11  O   UNL     1       0.062  -4.848  -1.081  0.00  0.00    -0.126 OA
ATOM     12  O   UNL     1       0.072  -4.867   1.013  0.00  0.00    -0.126 OA
ENDBRANCH   7  10
ENDBRANCH   1   9
BRANCH   1  13
ATOM     13  C1* UNL     1       0.047  -0.758   3.678  0.00  0.00    +0.235 C 
ATOM     14  C2* UNL     1       0.851   0.024   4.747  0.00  0.00    +0.192 C 
ATOM     15  C3* UNL     1       0.228  -0.538   6.054  0.00  0.00    +0.178 C 
ATOM     16  C4* UNL     1      -1.241  -0.771   5.643  0.00  0.00    +0.177 C 
ATOM     17  O4* UNL     1      -1.281  -0.871   4.213  0.00  0.00    -0.348 OA
BRANCH  15  18
ATOM     18  O3* UNL     1       0.856  -1.765   6.430  0.00  0.00    -0.386 OA
ATOM     19  H3* UNL     1       1.802  -1.683   6.614  0.00  0.00    +0.210 HD
ENDBRANCH  15  18
BRANCH  14  20
ATOM     20  O2* UNL     1       2.245  -0.280   4.668  0.00  0.00    -0.385 OA
ATOM     21  H2* UNL     1       2.652  -0.043   3.823  0.00  0.00    +0.210 HD
ENDBRANCH  14  20
BRANCH  16  22
ATOM     22  C5* UNL     1      -1.756  -2.069   6.269  0.00  0.00    +0.190 C 
BRANCH  22  23
ATOM     23  O5* UNL     1      -3.147  -2.218   5.980  0.00  0.00    -0.392 OA
ATOM     24  H5* UNL     1      -3.541  -3.022   6.347  0.00  0.00    +0.210 HD
ENDBRANCH  22  23
ENDBRANCH  16  22
ENDBRANCH   1  13
TORSDOF 7
