REMARK  Name = ZINC28465126
REMARK  5 active torsions:
REMARK  status: ('A' for Active; 'I' for Inactive)
REMARK    1  A    between atoms: N_10  and  C_13
REMARK    2  A    between atoms: C_13  and  C_14
REMARK    3  A    between atoms: C_14  and  C_15
REMARK    4  A    between atoms: C_15  and  O_16
REMARK    5  A    between atoms: O_16  and  N_17
REMARK                            x       y       z     vdW  Elec       q    Type
REMARK                         _______ _______ _______ _____ _____    ______ ____
ROOT
ATOM      1  C   UNL     1       1.530  -5.755   1.911  0.00  0.00    -0.076 C 
ENDROOT
BRANCH   1  11
ATOM      2  C   UNL     1       2.370   1.437   0.009  0.00  0.00    +0.005 A 
ATOM      3  C   UNL     1       1.127   2.057   0.003  0.00  0.00    +0.018 A 
ATOM      4  C   UNL     1      -0.015   1.282  -0.012  0.00  0.00    +0.084 A 
ATOM      5  N   UNL     1       0.061  -0.036  -0.019  0.00  0.00    -0.350 N 
ATOM      6  C   UNL     1       1.227  -0.664  -0.014  0.00  0.00    +0.099 A 
ATOM      7  C   UNL     1       2.418   0.054   0.000  0.00  0.00    +0.042 A 
ATOM      8  N   UNL     1       1.260  -2.054  -0.022  0.00  0.00    -0.320 N 
ATOM      9  C   UNL     1       2.535  -2.779  -0.142  0.00  0.00    +0.088 C 
ATOM     10  C   UNL     1       2.604  -3.828   0.973  0.00  0.00    -0.060 C 
ATOM     11  N   UNL     1       1.412  -4.683   0.913  0.00  0.00    +0.382 N 
ATOM     12  C   UNL     1       0.210  -3.887   1.194  0.00  0.00    -0.060 C 
ATOM     13  C   UNL     1       0.023  -2.841   0.095  0.00  0.00    +0.088 C 
ATOM     14  H   UNL     1      -0.757  -0.557  -0.029  0.00  0.00    +0.166 HD
ATOM     15  H   UNL     1       1.337  -5.090  -0.007  0.00  0.00    -0.082 HD
ENDBRANCH   1  11
BRANCH   1  16
ATOM     16  C   UNL     1       0.350  -6.719   1.766  0.00  0.00    +0.012 C 
BRANCH  16  17
ATOM     17  C   UNL     1       0.473  -7.835   2.804  0.00  0.00    +0.189 C 
BRANCH  17  18
ATOM     18  O   UNL     1      -0.628  -8.735   2.669  0.00  0.00    -0.270 OA
BRANCH  18  19
ATOM     19  N   UNL     1      -0.609  -9.811   3.590  0.00  0.00    -0.114 N 
ATOM     20  C   UNL     1       0.008 -11.015   3.345  0.00  0.00    +0.250 C 
ATOM     21  O   UNL     1       0.830 -11.267   2.491  0.00  0.00    -0.273 OA
ATOM     22  C   UNL     1      -0.563 -11.946   4.371  0.00  0.00    +0.097 C 
ATOM     23  C   UNL     1       0.287 -13.052   5.039  0.00  0.00    +0.025 C 
ATOM     24  C   UNL     1       0.920 -12.374   6.317  0.00  0.00    +0.016 C 
ATOM     25  C   UNL     1      -0.452 -11.671   6.741  0.00  0.00    +0.025 C 
ATOM     26  C   UNL     1      -0.579 -10.863   5.526  0.00  0.00    +0.097 C 
ATOM     27  C   UNL     1      -1.205  -9.767   4.839  0.00  0.00    +0.250 C 
ATOM     28  O   UNL     1      -2.046  -8.997   5.250  0.00  0.00    -0.273 OA
ATOM     29  C   UNL     1      -1.312 -12.928   6.723  0.00  0.00    -0.027 C 
ATOM     30  C   UNL     1      -0.888 -13.784   5.756  0.00  0.00    -0.027 C 
ENDBRANCH  18  19
ENDBRANCH  17  18
ENDBRANCH  16  17
ENDBRANCH   1  16
TORSDOF 5
