REMARK  Name = ZINC25540621
REMARK  4 active torsions:
REMARK  status: ('A' for Active; 'I' for Inactive)
REMARK    1  A    between atoms: C_6  and  C_7
REMARK    2  A    between atoms: N_8  and  N_9
REMARK    3  A    between atoms: C_10  and  C_12
REMARK    4  A    between atoms: C_14  and  N_20
REMARK                            x       y       z     vdW  Elec       q    Type
REMARK                         _______ _______ _______ _____ _____    ______ ____
ROOT
ATOM      1  N   UNL     1      -6.011  -0.853   0.033  0.00  0.00    -0.202 N 
ATOM      2  C   UNL     1      -7.185  -0.191   0.044  0.00  0.00    +0.283 C 
ATOM      3  O   UNL     1      -7.197   1.024   0.053  0.00  0.00    -0.267 OA
ATOM      4  H   UNL     1      -6.000  -1.953   0.025  0.00  0.00    +0.178 HD
ENDROOT
BRANCH   2   5
ATOM      5  C   UNL     1      -8.459  -0.944   0.047  0.00  0.00    +0.149 A 
ATOM      6  C   UNL     1      -9.668  -0.254   0.065  0.00  0.00    +0.094 A 
ATOM      7  C   UNL     1     -10.860  -0.979   0.061  0.00  0.00    +0.067 A 
ATOM      8  C   UNL     1     -10.788  -2.371   0.050  0.00  0.00    +0.100 A 
ATOM      9  C   UNL     1      -9.546  -2.985   0.039  0.00  0.00    +0.150 A 
ATOM     10  N   UNL     1      -8.438  -2.273   0.037  0.00  0.00    -0.228 NA
ATOM     11 CL   UNL     1      -9.449  -4.718   0.026  0.00  0.00    -0.060 Cl
ATOM     12 CL   UNL     1     -12.239  -3.325   0.052  0.00  0.00    -0.078 Cl
ATOM     13 CL   UNL     1      -9.691   1.482   0.084  0.00  0.00    -0.079 Cl
BRANCH   7  14
ATOM     14  N   UNL     1     -12.092  -0.328   0.073  0.00  0.00    -0.356 N 
ATOM     15  H   UNL     1     -13.023  -0.912   0.070  0.00  0.00    +0.142 HD
ATOM     16  H   UNL     1     -12.132   0.772   0.086  0.00  0.00    +0.142 HD
ENDBRANCH   7  14
ENDBRANCH   2   5
BRANCH   1  18
ATOM     17  C   UNL     1      -3.674  -0.778   0.019  0.00  0.00    +0.138 C 
ATOM     18  N   UNL     1      -4.805  -0.140   0.030  0.00  0.00    -0.187 NA
BRANCH  17  24
ATOM     19  C   UNL     1      -2.417   1.369   0.027  0.00  0.00    +0.013 A 
ATOM     20  C   UNL     1      -1.228   2.067   0.019  0.00  0.00    +0.050 A 
ATOM     21  C   UNL     1      -0.017   1.388   0.010  0.00  0.00    +0.162 A 
ATOM     22  C   UNL     1       0.002  -0.004   0.002  0.00  0.00    +0.163 A 
ATOM     23  C   UNL     1      -1.187  -0.711   0.004  0.00  0.00    +0.059 A 
ATOM     24  C   UNL     1      -2.405  -0.028   0.016  0.00  0.00    -0.002 A 
ATOM     25  O   UNL     1       1.181  -0.684  -0.007  0.00  0.00    -0.485 OA
ATOM     26  C   UNL     1       2.347   0.054  -0.387  0.00  0.00    +0.270 C 
ATOM     27  C   UNL     1       2.334   1.392   0.366  0.00  0.00    +0.270 C 
ATOM     28  O   UNL     1       1.144   2.099   0.002  0.00  0.00    -0.485 OA
ENDBRANCH  17  24
ENDBRANCH   1  18
TORSDOF 4
