REMARK  Name = ZINC39610588
REMARK  7 active torsions:
REMARK  status: ('A' for Active; 'I' for Inactive)
REMARK    1  A    between atoms: C_1  and  C_2
REMARK    2  A    between atoms: C_2  and  C_3
REMARK    3  A    between atoms: C_2  and  O_4
REMARK    4  A    between atoms: O_4  and  C_5
REMARK    5  A    between atoms: C_5  and  C_7
REMARK    6  A    between atoms: C_13  and  O_18
REMARK    7  A    between atoms: O_18  and  C_19
REMARK                            x       y       z     vdW  Elec       q    Type
REMARK                         _______ _______ _______ _____ _____    ______ ____
ROOT
ATOM      1  C   UNL     1      -2.928  -2.258  -0.621  0.00  0.00    +0.145 C 
ATOM      2  N   UNL     1      -3.978  -1.694  -0.096  0.00  0.00    -0.249 NA
ATOM      3  C   UNL     1      -5.138  -2.528  -0.376  0.00  0.00    +0.228 C 
ATOM      4  C   UNL     1      -4.569  -3.781  -1.036  0.00  0.00    +0.056 C 
ATOM      5  C   UNL     1      -3.280  -3.542  -1.252  0.00  0.00    +0.047 C 
ATOM      6  C   UNL     1      -5.408  -4.974  -1.199  0.00  0.00    +0.202 C 
ATOM      7  N   UNL     1      -6.376  -5.096  -0.294  0.00  0.00    -0.299 N 
ATOM      8  C   UNL     1      -6.568  -4.191   0.681  0.00  0.00    +0.190 C 
ATOM      9  N   UNL     1      -5.817  -3.025   0.831  0.00  0.00    -0.290 N 
ATOM     10  N   UNL     1      -7.530  -4.407   1.540  0.00  0.00    -0.270 NA
ATOM     11  H   UNL     1      -7.694  -3.773   2.255  0.00  0.00    +0.190 HD
ATOM     12  H   UNL     1      -5.736  -2.572   1.684  0.00  0.00    +0.151 HD
ATOM     13  H   UNL     1      -6.964  -5.866  -0.340  0.00  0.00    +0.171 HD
ENDROOT
BRANCH   1  14
ATOM     14  C   UNL     1      -1.558  -1.681  -0.592  0.00  0.00    +0.358 C 
ATOM     15  O   UNL     1      -0.638  -2.277  -1.113  0.00  0.00    -0.243 OA
BRANCH  14  16
ATOM     16  O   UNL     1      -1.339  -0.499   0.012  0.00  0.00    -0.457 OA
BRANCH  16  18
ATOM     17  C   UNL     1      -0.019   1.526   0.010  0.00  0.00    +0.052 C 
ATOM     18  C   UNL     1       0.002  -0.004   0.002  0.00  0.00    +0.171 C 
ATOM     19  C   UNL     1       0.742  -0.511   1.242  0.00  0.00    +0.052 C 
ENDBRANCH  16  18
ENDBRANCH  14  16
ENDBRANCH   1  14
BRANCH   6  20
ATOM     20  O   UNL     1      -5.214  -5.875  -2.187  0.00  0.00    -0.481 OA
ATOM     21  C   UNL     1      -6.104  -6.992  -2.231  0.00  0.00    +0.278 C 
ENDBRANCH   6  20
TORSDOF 4
