REMARK  Name = ZINC39681939
REMARK  6 active torsions:
REMARK  status: ('A' for Active; 'I' for Inactive)
REMARK    1  A    between atoms: C_1  and  C_2
REMARK    2  A    between atoms: C_2  and  C_3
REMARK    3  A    between atoms: C_3  and  C_5
REMARK    4  A    between atoms: C_3  and  C_6
REMARK    5  A    between atoms: C_10  and  C_19
REMARK    6  A    between atoms: N_21  and  C_22
REMARK                            x       y       z     vdW  Elec       q    Type
REMARK                         _______ _______ _______ _____ _____    ______ ____
ROOT
ATOM      1  C   UNL     1       0.366  -1.881  -1.435  0.00  0.00    +0.218 C 
ATOM      2  O   UNL     1      -0.334  -2.525  -0.683  0.00  0.00    -0.275 OA
ATOM      3  N   UNL     1       1.103  -2.508  -2.373  0.00  0.00    -0.300 N 
ATOM      4  C   UNL     1       2.097  -1.911  -3.296  0.00  0.00    +0.121 C 
ATOM      5  C   UNL     1       3.241  -2.948  -3.361  0.00  0.00    +0.100 C 
ATOM      6  C   UNL     1       2.582  -4.284  -2.979  0.00  0.00    -0.004 C 
ATOM      7  C   UNL     1       1.107  -3.952  -2.709  0.00  0.00    +0.115 C 
ATOM      8  C   UNL     1       2.698  -5.278  -4.131  0.00  0.00    -0.010 C 
ATOM      9  C   UNL     1       2.088  -6.617  -3.707  0.00  0.00    -0.082 C 
ATOM     10  N   UNL     1       2.791  -7.125  -2.523  0.00  0.00    +0.379 N 
ATOM     11  C   UNL     1       2.597  -6.208  -1.393  0.00  0.00    -0.082 C 
ATOM     12  C   UNL     1       3.229  -4.851  -1.719  0.00  0.00    -0.010 C 
ATOM     13  H   UNL     1       2.428  -8.035  -2.282  0.00  0.00    -0.086 HD
ATOM     14  H   UNL     1       3.777  -7.202  -2.726  0.00  0.00    -0.086 HD
ENDROOT
BRANCH   5  15
ATOM     15  C   UNL     1       4.325  -2.595  -2.375  0.00  0.00    +0.218 C 
ATOM     16  O   UNL     1       4.058  -1.948  -1.385  0.00  0.00    -0.275 OA
ATOM     17  N   UNL     1       5.592  -2.998  -2.594  0.00  0.00    -0.314 N 
ATOM     18  H   UNL     1       5.806  -3.516  -3.386  0.00  0.00    +0.149 HD
BRANCH  17  19
ATOM     19  C   UNL     1       6.646  -2.655  -1.636  0.00  0.00    +0.059 C 
ATOM     20  C   UNL     1       6.674  -3.692  -0.511  0.00  0.00    -0.056 C 
ATOM     21  N   UNL     1       7.981  -4.352  -0.469  0.00  0.00    +0.381 N 
ATOM     22  C   UNL     1       8.241  -5.061  -1.724  0.00  0.00    -0.078 C 
ATOM     23  C   UNL     1       8.265  -4.069  -2.890  0.00  0.00    -0.014 C 
ATOM     24  C   UNL     1       8.006  -2.655  -2.347  0.00  0.00    +0.004 C 
ATOM     25  C   UNL     1       9.092  -2.330  -1.312  0.00  0.00    -0.014 C 
ATOM     26  C   UNL     1       9.041  -3.379  -0.196  0.00  0.00    -0.078 C 
ATOM     27  H   UNL     1       7.971  -5.032   0.277  0.00  0.00    -0.082 HD
ENDBRANCH  17  19
ENDBRANCH   5  15
BRANCH   1  28
ATOM     28  C   UNL     1       0.413  -0.379  -1.320  0.00  0.00    +0.072 C 
ATOM     29  C   UNL     1       0.276   0.025   0.149  0.00  0.00    +0.017 C 
BRANCH  28  31
ATOM     30  C   UNL     1      -0.618   1.755  -2.113  0.00  0.00    +0.004 C 
ATOM     31  C   UNL     1      -0.737   0.230  -2.126  0.00  0.00    +0.009 C 
ENDBRANCH  28  31
ENDBRANCH   1  28
TORSDOF 4
