REMARK  Name = ZINC66587265
REMARK  6 active torsions:
REMARK  status: ('A' for Active; 'I' for Inactive)
REMARK    1  A    between atoms: C_1  and  C_2
REMARK    2  A    between atoms: C_5  and  N_11
REMARK    3  A    between atoms: C_7  and  C_8
REMARK    4  A    between atoms: N_11  and  S_12
REMARK    5  A    between atoms: S_12  and  C_15
REMARK    6  A    between atoms: C_25  and  C_27
REMARK                            x       y       z     vdW  Elec       q    Type
REMARK                         _______ _______ _______ _____ _____    ______ ____
ROOT
ATOM      1  S   UNL     1       0.996  -4.684  -1.016  0.00  0.00    +0.072 S 
ATOM      2  O   UNL     1       0.870  -6.090  -0.852  0.00  0.00    -0.150 OA
ATOM      3  O   UNL     1       0.786  -4.041  -2.266  0.00  0.00    -0.150 OA
ENDROOT
BRANCH   1   4
ATOM      4  C   UNL     1       2.627  -4.262  -0.500  0.00  0.00    +0.109 A 
ATOM      5  C   UNL     1       3.224  -3.107  -0.975  0.00  0.00    +0.030 A 
ATOM      6  C   UNL     1       4.502  -2.778  -0.572  0.00  0.00    +0.026 A 
ATOM      7  C   UNL     1       5.189  -3.604   0.310  0.00  0.00    +0.040 A 
ATOM      8  C   UNL     1       4.589  -4.759   0.788  0.00  0.00    -0.024 A 
ATOM      9  C   UNL     1       3.305  -5.081   0.381  0.00  0.00    +0.034 A 
ATOM     10  C   UNL     1       5.299  -5.673   1.752  0.00  0.00    +0.038 C 
ATOM     11  C   UNL     1       6.809  -5.448   1.691  0.00  0.00    +0.024 C 
ATOM     12  C   UNL     1       7.095  -3.948   1.847  0.00  0.00    +0.114 C 
ATOM     13  N   UNL     1       6.488  -3.254   0.704  0.00  0.00    -0.271 N 
ATOM     14  C   UNL     1       7.169  -2.297   0.043  0.00  0.00    +0.217 C 
ATOM     15  O   UNL     1       6.640  -1.696  -0.868  0.00  0.00    -0.276 OA
ATOM     16  C   UNL     1       8.587  -1.973   0.437  0.00  0.00    +0.109 C 
ENDBRANCH   1   4
BRANCH   1  17
ATOM     17  N   UNL     1      -0.053  -3.986   0.058  0.00  0.00    -0.216 N 
ATOM     18  H   UNL     1      -0.609  -4.543   0.625  0.00  0.00    +0.174 HD
BRANCH  17  23
ATOM     19  C   UNL     1      -0.397   1.675   0.392  0.00  0.00    +0.044 C 
ATOM     20  C   UNL     1      -0.306   0.173   0.307  0.00  0.00    -0.038 A 
ATOM     21  C   UNL     1      -0.278  -0.448  -0.926  0.00  0.00    +0.006 A 
ATOM     22  C   UNL     1      -0.194  -1.825  -1.009  0.00  0.00    +0.025 A 
ATOM     23  C   UNL     1      -0.137  -2.594   0.148  0.00  0.00    +0.049 A 
ATOM     24  C   UNL     1      -0.164  -1.980   1.390  0.00  0.00    +0.037 A 
ATOM     25  C   UNL     1      -0.243  -0.590   1.474  0.00  0.00    +0.041 A 
BRANCH  25  26
ATOM     26  C   UNL     1      -0.266   0.074   2.795  0.00  0.00    +0.242 C 
ATOM     27  O   UNL     1      -0.411   1.278   2.868  0.00  0.00    -0.270 OA
ATOM     28  N   UNL     1      -0.126  -0.657   3.919  0.00  0.00    -0.325 N 
ATOM     29  H   UNL     1      -0.010  -1.619   3.861  0.00  0.00    +0.145 HD
ATOM     30  H   UNL     1      -0.141  -0.222   4.786  0.00  0.00    +0.145 HD
ENDBRANCH  25  26
ENDBRANCH  17  23
ENDBRANCH   1  17
TORSDOF 4
