REMARK  Name = ZINC12586052
REMARK  8 active torsions:
REMARK  status: ('A' for Active; 'I' for Inactive)
REMARK    1  A    between atoms: C_1  and  C_2
REMARK    2  A    between atoms: C_5  and  S_7
REMARK    3  A    between atoms: S_7  and  C_8
REMARK    4  A    between atoms: C_8  and  C_9
REMARK    5  A    between atoms: C_9  and  N_10
REMARK    6  A    between atoms: C_11  and  C_13
REMARK    7  A    between atoms: C_13  and  C_14
REMARK    8  A    between atoms: C_21  and  N_50
REMARK                            x       y       z     vdW  Elec       q    Type
REMARK                         _______ _______ _______ _____ _____    ______ ____
ROOT
ATOM      1  C   UNL     1       3.074  -1.006   1.244  0.00  0.00    +0.089 C 
ENDROOT
BRANCH   1   2
ATOM      2  C   UNL     1       2.377   0.025   0.355  0.00  0.00    +0.028 C 
ATOM      3  C   UNL     1       1.081  -0.544  -0.148  0.00  0.00    +0.200 C 
ATOM      4  O   UNL     1       1.061  -1.696  -0.529  0.00  0.00    -0.278 OA
ATOM      5  N   UNL     1      -0.052   0.164  -0.192  0.00  0.00    -0.318 N 
ATOM      6  C   UNL     1      -0.144   1.544   0.276  0.00  0.00    +0.085 C 
ATOM      7  C   UNL     1       1.254   2.159   0.371  0.00  0.00    -0.058 C 
ATOM      8  H   UNL     1      -0.849  -0.257  -0.551  0.00  0.00    +0.149 HD
ATOM      9  N   UNL     1       2.106   1.238   1.150  0.00  0.00    +0.390 N 
ATOM     10  H   UNL     1       1.614   0.972   2.011  0.00  0.00    -0.080 HD
BRANCH   9  11
ATOM     11  C   UNL     1       3.379   1.904   1.508  0.00  0.00    -0.067 C 
ATOM     12  C   UNL     1       4.081   1.105   2.626  0.00  0.00    -0.015 C 
ATOM     13  C   UNL     1       4.706   2.192   3.535  0.00  0.00    -0.002 C 
ATOM     14  C   UNL     1       3.628   3.304   3.528  0.00  0.00    -0.002 C 
ATOM     15  C   UNL     1       3.091   3.302   2.082  0.00  0.00    -0.015 C 
ENDBRANCH   9  11
ENDBRANCH   1   2
BRANCH   1  17
ATOM     16  N   UNL     1       2.710  -2.049   3.457  0.00  0.00    -0.315 N 
ATOM     17  C   UNL     1       2.241  -1.255   2.474  0.00  0.00    +0.212 C 
ATOM     18  O   UNL     1       1.147  -0.741   2.580  0.00  0.00    -0.276 OA
ATOM     19  H   UNL     1       3.585  -2.460   3.373  0.00  0.00    +0.149 HD
BRANCH  16  20
ATOM     20  C   UNL     1       1.899  -2.291   4.653  0.00  0.00    +0.115 C 
BRANCH  20  21
ATOM     21  C   UNL     1       2.658  -3.219   5.604  0.00  0.00    +0.095 C 
BRANCH  21  22
ATOM     22  S   UNL     1       1.657  -3.518   7.082  0.00  0.00    -0.095 S 
BRANCH  22  27
ATOM     23  C   UNL     1       4.723  -7.101  10.627  0.00  0.00    +0.075 C 
ATOM     24  C   UNL     1       4.112  -6.200   9.585  0.00  0.00    +0.100 A 
ATOM     25  N   UNL     1       4.590  -5.803   8.423  0.00  0.00    -0.146 NA
ATOM     26  N   UNL     1       3.943  -5.041   7.654  0.00  0.00    -0.135 NA
ATOM     27  C   UNL     1       2.740  -4.583   7.975  0.00  0.00    +0.159 A 
ATOM     28  S   UNL     1       2.529  -5.363   9.573  0.00  0.00    -0.044 S 
ENDBRANCH  22  27
ENDBRANCH  21  22
ENDBRANCH  20  21
ENDBRANCH  16  20
ENDBRANCH   1  17
TORSDOF 7
