REMARK  Name = ZINC33942276
REMARK  6 active torsions:
REMARK  status: ('A' for Active; 'I' for Inactive)
REMARK    1  A    between atoms: C_1  and  C_2
REMARK    2  A    between atoms: C_5  and  C_14
REMARK    3  A    between atoms: C_6  and  C_7
REMARK    4  A    between atoms: C_6  and  C_8
REMARK    5  A    between atoms: N_12  and  O_13
REMARK    6  A    between atoms: N_16  and  C_17
REMARK                            x       y       z     vdW  Elec       q    Type
REMARK                         _______ _______ _______ _____ _____    ______ ____
ROOT
ATOM      1  C   UNL     1      -0.033   1.525   0.018  0.00  0.00    +0.018 C 
ATOM      2  C   UNL     1      -0.011  -0.005   0.009  0.00  0.00    +0.023 C 
ATOM      3  C   UNL     1      -1.401  -0.710   0.075  0.00  0.00    +0.015 C 
ATOM      4  C   UNL     1      -1.078  -2.149   0.540  0.00  0.00    +0.026 C 
ATOM      5  C   UNL     1       0.473  -2.163   0.706  0.00  0.00    +0.117 C 
ATOM      6  C   UNL     1       0.723  -0.698   1.212  0.00  0.00    -0.003 C 
ATOM      7  C   UNL     1       0.020  -0.438   2.546  0.00  0.00    +0.013 C 
ATOM      8  C   UNL     1       2.208  -0.334   1.270  0.00  0.00    +0.013 C 
ATOM      9  C   UNL     1       1.010  -2.056  -0.728  0.00  0.00    +0.196 C 
ATOM     10  O   UNL     1       1.571  -2.921  -1.366  0.00  0.00    -0.290 OA
ATOM     11  C   UNL     1       0.715  -0.661  -1.173  0.00  0.00    +0.129 C 
ATOM     12  N   UNL     1       0.990  -0.122  -2.318  0.00  0.00    -0.088 NA
ENDROOT
BRANCH   5  13
ATOM     13  C   UNL     1       1.036  -3.271   1.558  0.00  0.00    +0.232 C 
ATOM     14  O   UNL     1       1.659  -3.005   2.565  0.00  0.00    -0.274 OA
ATOM     15  N   UNL     1       0.849  -4.557   1.202  0.00  0.00    -0.285 N 
ATOM     16  H   UNL     1       0.296  -4.772   0.435  0.00  0.00    +0.155 HD
BRANCH  15  17
ATOM     17  C   UNL     1       1.454  -5.582   1.939  0.00  0.00    +0.033 A 
ATOM     18  C   UNL     1       1.912  -6.724   1.295  0.00  0.00    +0.024 A 
ATOM     19  C   UNL     1       2.508  -7.734   2.025  0.00  0.00    +0.016 A 
ATOM     20  C   UNL     1       2.649  -7.609   3.395  0.00  0.00    +0.013 A 
ATOM     21  C   UNL     1       2.194  -6.472   4.039  0.00  0.00    +0.016 A 
ATOM     22  C   UNL     1       1.602  -5.457   3.314  0.00  0.00    +0.024 A 
ATOM     23  I   UNL     1       3.554  -9.143   4.498  0.00  0.00    -0.044 I 
ENDBRANCH  15  17
ENDBRANCH   5  13
BRANCH  12  24
ATOM     24  O   UNL     1       1.671  -0.871  -3.308  0.00  0.00    -0.409 OA
ATOM     25  H   UNL     1       1.831  -0.384  -4.128  0.00  0.00    +0.328 HD
ENDBRANCH  12  24
TORSDOF 3
