REMARK  Name = ZINC23125517
REMARK  10 active torsions:
REMARK  status: ('A' for Active; 'I' for Inactive)
REMARK    1  A    between atoms: C_1  and  C_2
REMARK    2  A    between atoms: C_5  and  C_8
REMARK    3  A    between atoms: C_8  and  N_9
REMARK    4  A    between atoms: C_10  and  C_12
REMARK    5  A    between atoms: C_12  and  N_13
REMARK    6  A    between atoms: C_14  and  N_34
REMARK    7  A    between atoms: C_15  and  C_22
REMARK    8  A    between atoms: N_18  and  C_19
REMARK    9  A    between atoms: C_19  and  C_20
REMARK   10  A    between atoms: C_24  and  C_27
REMARK                            x       y       z     vdW  Elec       q    Type
REMARK                         _______ _______ _______ _____ _____    ______ ____
ROOT
ATOM      1  N   UNL     1       8.165   0.165  -0.076  0.00  0.00    -0.240 N 
ATOM      2  C   UNL     1       6.921  -0.356  -0.066  0.00  0.00    +0.129 A 
ATOM      3  C   UNL     1       6.027   0.709  -0.052  0.00  0.00    +0.120 A 
ATOM      4  C   UNL     1       6.800   1.899  -0.060  0.00  0.00    +0.155 A 
ATOM      5  N   UNL     1       8.064   1.561  -0.068  0.00  0.00    -0.153 NA
ATOM      6  N   UNL     1       6.299   3.202  -0.056  0.00  0.00    -0.323 N 
ATOM      7  H   UNL     1       5.212   3.374  -0.046  0.00  0.00    +0.148 HD
ENDROOT
BRANCH   3   8
ATOM      8  C   UNL     1       4.560   0.619  -0.038  0.00  0.00    +0.265 A 
ATOM      9  N   UNL     1       3.707   1.632  -0.029  0.00  0.00    -0.187 NA
ATOM     10  C   UNL     1       2.481   1.069  -0.015  0.00  0.00    +0.202 A 
ATOM     11  N   UNL     1       2.646  -0.229  -0.024  0.00  0.00    -0.056 NA
ATOM     12  O   UNL     1       3.826  -0.506  -0.037  0.00  0.00    -0.332 OA
BRANCH  10  13
ATOM     13  C   UNL     1       1.184   1.790   0.000  0.00  0.00    +0.023 A 
ATOM     14  C   UNL     1      -0.013   1.076   0.008  0.00  0.00    +0.013 A 
ATOM     15  C   UNL     1      -1.216   1.751   0.017  0.00  0.00    +0.021 A 
ATOM     16  C   UNL     1      -1.236   3.135   0.031  0.00  0.00    +0.041 A 
ATOM     17  C   UNL     1      -0.050   3.849   0.023  0.00  0.00    +0.021 A 
ATOM     18  C   UNL     1       1.159   3.183   0.008  0.00  0.00    +0.013 A 
ATOM     19 CL   UNL     1      -2.753   3.978   0.050  0.00  0.00    -0.084 Cl
ENDBRANCH  10  13
ENDBRANCH   3   8
BRANCH   2  20
ATOM     20  N   UNL     1       6.596  -1.700  -0.069  0.00  0.00    -0.343 N 
ATOM     21  H   UNL     1       5.540  -2.011  -0.060  0.00  0.00    +0.144 HD
ATOM     22  H   UNL     1       7.392  -2.459  -0.080  0.00  0.00    +0.144 HD
ENDBRANCH   2  20
BRANCH   1  23
ATOM     23  C   UNL     1       9.414  -0.601  -0.092  0.00  0.00    +0.241 C 
BRANCH  23  25
ATOM     24  N   UNL     1      10.954  -1.548  -1.780  0.00  0.00    -0.310 N 
ATOM     25  C   UNL     1       9.828  -0.856  -1.518  0.00  0.00    +0.235 C 
ATOM     26  O   UNL     1       9.147  -0.439  -2.431  0.00  0.00    -0.274 OA
ATOM     27  H   UNL     1      11.572  -1.927  -0.952  0.00  0.00    +0.149 HD
BRANCH  24  28
ATOM     28  C   UNL     1      11.357  -1.796  -3.166  0.00  0.00    +0.139 C 
BRANCH  28  33
ATOM     29  C   UNL     1      16.281  -4.820  -3.232  0.00  0.00    +0.044 C 
ATOM     30  C   UNL     1      14.997  -4.031  -3.215  0.00  0.00    -0.050 A 
ATOM     31  C   UNL     1      13.782  -4.690  -3.205  0.00  0.00    +0.003 A 
ATOM     32  C   UNL     1      12.604  -3.967  -3.190  0.00  0.00    +0.005 A 
ATOM     33  C   UNL     1      12.641  -2.585  -3.183  0.00  0.00    -0.030 A 
ATOM     34  C   UNL     1      13.856  -1.926  -3.197  0.00  0.00    +0.005 A 
ATOM     35  C   UNL     1      15.034  -2.649  -3.208  0.00  0.00    +0.003 A 
ENDBRANCH  28  33
ENDBRANCH  24  28
ENDBRANCH  23  25
ENDBRANCH   1  23
BRANCH   6  36
ATOM     36  C   UNL     1       7.221   4.340  -0.065  0.00  0.00    +0.130 C 
BRANCH  36  37
ATOM     37  C   UNL     1       6.432   5.625  -0.058  0.00  0.00    -0.016 C 
ATOM     38  C   UNL     1       6.653   6.524   0.869  0.00  0.00    +0.005 C 
ENDBRANCH  36  37
ENDBRANCH   6  36
TORSDOF 9
