REMARK  Name = ZINC00293613
REMARK  1 active torsions:
REMARK  status: ('A' for Active; 'I' for Inactive)
REMARK    1  A    between atoms: C_10  and  N_15
REMARK                            x       y       z     vdW  Elec       q    Type
REMARK                         _______ _______ _______ _____ _____    ______ ____
ROOT
ATOM      1  C   UNL     1      -2.555   1.870   0.021  0.00  0.00    +0.018 A 
ATOM      2  C   UNL     1      -3.511   2.864   0.033  0.00  0.00    -0.025 A 
ATOM      3  C   UNL     1      -3.143   4.188   0.043  0.00  0.00    +0.046 A 
ATOM      4  N   UNL     1      -1.867   4.531   0.049  0.00  0.00    -0.244 NA
ATOM      5  C   UNL     1      -0.917   3.619   0.032  0.00  0.00    +0.111 A 
ATOM      6  C   UNL     1      -1.192   2.240   0.020  0.00  0.00    +0.034 A 
ATOM      7  C   UNL     1      -0.016   1.348   0.009  0.00  0.00    +0.094 A 
ATOM      8  C   UNL     1       1.231   1.982   0.001  0.00  0.00    +0.080 A 
ATOM      9  S   UNL     1       0.856   3.713   0.015  0.00  0.00    -0.064 S 
ATOM     10  C   UNL     1       2.408   1.245  -0.016  0.00  0.00    +0.136 A 
ATOM     11  N   UNL     1       2.324  -0.084  -0.022  0.00  0.00    -0.199 NA
ATOM     12  C   UNL     1       1.135  -0.673  -0.013  0.00  0.00    +0.215 A 
ATOM     13  N   UNL     1       0.002  -0.004   0.002  0.00  0.00    -0.213 NA
ATOM     14  N   UNL     1       1.084  -2.058  -0.020  0.00  0.00    -0.327 N 
ATOM     15  C   UNL     1      -4.202   5.271   0.057  0.00  0.00    +0.056 C 
ATOM     16  C   UNL     1      -4.889   5.295  -1.311  0.00  0.00    +0.006 C 
ATOM     17  C   UNL     1      -6.019   4.287  -1.368  0.00  0.00    +0.001 C 
ATOM     18  C   UNL     1      -5.571   2.839  -1.331  0.00  0.00    +0.005 C 
ATOM     19  C   UNL     1      -4.978   2.484   0.034  0.00  0.00    +0.037 C 
ATOM     20  H   UNL     1       0.227  -2.512  -0.013  0.00  0.00    +0.145 HD
ATOM     21  H   UNL     1       1.906  -2.574  -0.031  0.00  0.00    +0.145 HD
ENDROOT
BRANCH  10  22
ATOM     22  N   UNL     1       3.641   1.878  -0.026  0.00  0.00    -0.342 N 
ATOM     23  H   UNL     1       4.456   1.352  -0.038  0.00  0.00    +0.144 HD
ATOM     24  H   UNL     1       3.689   2.847  -0.021  0.00  0.00    +0.144 HD
ENDBRANCH  10  22
TORSDOF 1
