REMARK  Name = ZINC05248374
REMARK  9 active torsions:
REMARK  status: ('A' for Active; 'I' for Inactive)
REMARK    1  A    between atoms: C_1  and  O_2
REMARK    2  A    between atoms: O_2  and  C_3
REMARK    3  A    between atoms: C_3  and  C_5
REMARK    4  A    between atoms: C_9  and  C_25
REMARK    5  A    between atoms: C_12  and  C_14
REMARK    6  A    between atoms: C_14  and  N_51
REMARK    7  A    between atoms: N_17  and  C_20
REMARK    8  A    between atoms: C_25  and  O_27
REMARK    9  A    between atoms: O_27  and  C_28
REMARK                            x       y       z     vdW  Elec       q    Type
REMARK                         _______ _______ _______ _____ _____    ______ ____
ROOT
ATOM      1  C   UNL     1      -3.001   5.043  -4.336  0.00  0.00    +0.196 C 
ATOM      2  C   UNL     1      -3.430   6.361  -5.026  0.00  0.00    +0.105 C 
ATOM      3  S   UNL     1      -3.862   7.375  -3.542  0.00  0.00    -0.125 S 
ATOM      4  C   UNL     1      -2.679   6.558  -2.381  0.00  0.00    +0.244 C 
ATOM      5  N   UNL     1      -2.630   5.189  -2.939  0.00  0.00    -0.267 N 
ATOM      6  C   UNL     1      -2.255   4.132  -2.191  0.00  0.00    +0.201 C 
ATOM      7  O   UNL     1      -2.025   4.277  -1.009  0.00  0.00    -0.278 OA
ENDROOT
BRANCH   1   8
ATOM      8  C   UNL     1      -1.827   4.466  -5.085  0.00  0.00    +0.328 C 
ATOM      9  O   UNL     1      -0.702   4.679  -4.701  0.00  0.00    -0.249 OA
BRANCH   8  11
ATOM     10  C   UNL     1      -0.855   3.193  -6.849  0.00  0.00    +0.280 C 
ATOM     11  O   UNL     1      -2.032   3.715  -6.178  0.00  0.00    -0.467 OA
ENDBRANCH   8  11
ENDBRANCH   1   8
BRANCH   4  12
ATOM     12  C   UNL     1      -3.218   6.551  -0.974  0.00  0.00    +0.338 C 
ATOM     13  O   UNL     1      -2.485   6.795  -0.045  0.00  0.00    -0.248 OA
BRANCH  12  14
ATOM     14  O   UNL     1      -4.513   6.274  -0.752  0.00  0.00    -0.466 OA
ATOM     15  C   UNL     1      -4.962   6.286   0.628  0.00  0.00    +0.280 C 
ENDBRANCH  12  14
ENDBRANCH   4  12
BRANCH   6  16
ATOM     16  C   UNL     1      -2.121   2.771  -2.823  0.00  0.00    +0.019 C 
BRANCH  16  22
ATOM     17  C   UNL     1      -0.247   2.146  -1.423  0.00  0.00    -0.059 C 
ATOM     18  C   UNL     1       0.208   1.178  -0.328  0.00  0.00    +0.088 C 
ATOM     19  N   UNL     1       0.129  -0.200  -0.833  0.00  0.00    -0.320 N 
ATOM     20  C   UNL     1      -1.245  -0.532  -1.237  0.00  0.00    +0.088 C 
ATOM     21  C   UNL     1      -1.700   0.437  -2.331  0.00  0.00    -0.059 C 
ATOM     22  N   UNL     1      -1.636   1.816  -1.803  0.00  0.00    +0.387 N 
ATOM     23  H   UNL     1      -2.235   1.883  -0.972  0.00  0.00    -0.081 HD
BRANCH  19  24
ATOM     24  C   UNL     1       0.603  -1.105   0.111  0.00  0.00    +0.099 A 
ATOM     25  C   UNL     1       0.609  -2.465  -0.181  0.00  0.00    +0.042 A 
ATOM     26  C   UNL     1       1.083  -3.353   0.767  0.00  0.00    +0.005 A 
ATOM     27  C   UNL     1       1.537  -2.850   1.980  0.00  0.00    +0.018 A 
ATOM     28  C   UNL     1       1.501  -1.488   2.201  0.00  0.00    +0.084 A 
ATOM     29  N   UNL     1       1.048  -0.585   1.291  0.00  0.00    -0.350 N 
ATOM     30  H   UNL     1       1.041   0.424   1.480  0.00  0.00    +0.166 HD
ENDBRANCH  19  24
ENDBRANCH  16  22
ENDBRANCH   6  16
TORSDOF 7
