REMARK  Name = ZINC32620056
REMARK  7 active torsions:
REMARK  status: ('A' for Active; 'I' for Inactive)
REMARK    1  A    between atoms: C_1  and  N_2
REMARK    2  A    between atoms: N_2  and  C_3
REMARK    3  A    between atoms: N_2  and  C_4
REMARK    4  A    between atoms: C_7  and  C_10
REMARK    5  A    between atoms: N_12  and  N_13
REMARK    6  A    between atoms: N_16  and  C_17
REMARK    7  A    between atoms: C_17  and  C_27
REMARK                            x       y       z     vdW  Elec       q    Type
REMARK                         _______ _______ _______ _____ _____    ______ ____
ROOT
ATOM      1  N   UNL     1      -1.270   7.691   0.053  0.00  0.00    -0.218 N 
ATOM      2  C   UNL     1      -2.446   8.349   0.067  0.00  0.00    +0.322 C 
ATOM      3  O   UNL     1      -2.462   9.565   0.073  0.00  0.00    -0.251 OA
ATOM      4  N   UNL     1      -3.604   7.659   0.074  0.00  0.00    -0.219 N 
ATOM      5  H   UNL     1      -0.325   8.254   0.047  0.00  0.00    +0.174 HD
ATOM      6  H   UNL     1      -3.589   6.559   0.069  0.00  0.00    +0.158 HD
ENDROOT
BRANCH   4   7
ATOM      7  C   UNL     1      -4.882   8.374   0.090  0.00  0.00    +0.436 C 
ATOM      8  O   UNL     1      -4.957   9.301  -1.009  0.00  0.00    -0.426 OA
ATOM      9  C   UNL     1      -4.473  10.482  -0.524  0.00  0.00    +0.169 A 
ATOM     10  C   UNL     1      -4.013  11.620  -1.167  0.00  0.00    +0.051 A 
ATOM     11  C   UNL     1      -3.569  12.701  -0.428  0.00  0.00    +0.024 A 
ATOM     12  C   UNL     1      -3.582  12.649   0.954  0.00  0.00    +0.045 A 
ATOM     13  C   UNL     1      -4.038  11.516   1.603  0.00  0.00    +0.069 A 
ATOM     14  C   UNL     1      -4.485  10.430   0.868  0.00  0.00    +0.170 A 
ATOM     15  O   UNL     1      -4.977   9.216   1.254  0.00  0.00    -0.426 OA
ATOM     16 CL   UNL     1      -3.022  14.009   1.877  0.00  0.00    -0.083 Cl
BRANCH   7  17
ATOM     17  C   UNL     1      -6.050   7.386   0.044  0.00  0.00    +0.490 C 
ATOM     18  F   UNL     1      -5.989   6.541   1.157  0.00  0.00    -0.162 F 
ATOM     19  F   UNL     1      -7.258   8.091   0.060  0.00  0.00    -0.162 F 
ATOM     20  F   UNL     1      -5.970   6.624  -1.126  0.00  0.00    -0.162 F 
ENDBRANCH   7  17
ENDBRANCH   4   7
BRANCH   1  23
ATOM     21  C   UNL     1      -0.074   5.632   0.031  0.00  0.00    +0.260 C 
ATOM     22  O   UNL     1       0.970   6.254   0.025  0.00  0.00    -0.269 OA
ATOM     23  N   UNL     1      -1.251   6.290   0.045  0.00  0.00    -0.229 N 
ATOM     24  H   UNL     1      -2.196   5.727   0.052  0.00  0.00    +0.173 HD
BRANCH  21  28
ATOM     25  C   UNL     1      -0.017   1.386   0.010  0.00  0.00    +0.029 A 
ATOM     26  C   UNL     1      -1.233   2.064   0.019  0.00  0.00    +0.024 A 
ATOM     27  C   UNL     1      -1.254   3.440   0.032  0.00  0.00    +0.015 A 
ATOM     28  C   UNL     1      -0.054   4.157   0.024  0.00  0.00    +0.038 A 
ATOM     29  C   UNL     1       1.165   3.473   0.009  0.00  0.00    +0.015 A 
ATOM     30  C   UNL     1       1.180   2.097   0.002  0.00  0.00    +0.024 A 
BRANCH  25  32
ATOM     31  C   UNL     1       1.281  -0.719  -0.014  0.00  0.00    +0.129 C 
ATOM     32  N   UNL     1       0.002  -0.004   0.002  0.00  0.00    -0.336 N 
ATOM     33  C   UNL     1      -1.256  -0.754   0.010  0.00  0.00    +0.129 C 
ENDBRANCH  25  32
ENDBRANCH  21  28
ENDBRANCH   1  23
TORSDOF 5
