REMARK  Name = ZINC08886908
REMARK  8 active torsions:
REMARK  status: ('A' for Active; 'I' for Inactive)
REMARK    1  A    between atoms: C_1  and  C_2
REMARK    2  A    between atoms: C_2  and  C_3
REMARK    3  A    between atoms: C_2  and  C_4
REMARK    4  A    between atoms: C_4  and  N_5
REMARK    5  A    between atoms: C_9  and  C_11
REMARK    6  A    between atoms: C_11  and  N_12
REMARK    7  A    between atoms: C_15  and  C_19
REMARK    8  A    between atoms: C_15  and  C_20
REMARK                            x       y       z     vdW  Elec       q    Type
REMARK                         _______ _______ _______ _____ _____    ______ ____
ROOT
ATOM      1  N   UNL     1      -1.083   3.523   0.026  0.00  0.00    -0.215 N 
ATOM      2  C   UNL     1      -0.955   4.264   1.145  0.00  0.00    +0.251 C 
ATOM      3  O   UNL     1      -1.021   3.876   2.292  0.00  0.00    -0.272 OA
ATOM      4  C   UNL     1      -0.710   5.683   0.670  0.00  0.00    +0.135 C 
ATOM      5  N   UNL     1      -0.738   5.567  -0.798  0.00  0.00    -0.281 N 
ATOM      6  C   UNL     1      -0.962   4.270  -1.077  0.00  0.00    +0.310 C 
ATOM      7  O   UNL     1      -1.044   3.826  -2.206  0.00  0.00    -0.252 OA
ATOM      8  C   UNL     1      -1.825   6.609   1.159  0.00  0.00    +0.047 C 
ATOM      9  H   UNL     1      -0.619   6.285  -1.438  0.00  0.00    +0.152 HD
ENDROOT
BRANCH   4  10
ATOM     10  C   UNL     1       0.635   6.177   1.137  0.00  0.00    -0.015 A 
ATOM     11  C   UNL     1       1.127   5.764   2.375  0.00  0.00    +0.007 A 
ATOM     12  C   UNL     1       2.337   6.192   2.826  0.00  0.00    +0.009 A 
ATOM     13  C   UNL     1       3.106   7.063   2.035  0.00  0.00    -0.018 A 
ATOM     14  C   UNL     1       4.361   7.525   2.467  0.00  0.00    +0.008 A 
ATOM     15  C   UNL     1       5.078   8.367   1.674  0.00  0.00    +0.001 A 
ATOM     16  C   UNL     1       4.586   8.781   0.437  0.00  0.00    +0.001 A 
ATOM     17  C   UNL     1       3.375   8.353  -0.014  0.00  0.00    +0.008 A 
ATOM     18  C   UNL     1       2.606   7.483   0.777  0.00  0.00    -0.018 A 
ATOM     19  C   UNL     1       1.354   7.016   0.342  0.00  0.00    +0.014 A 
ENDBRANCH   4  10
BRANCH   1  20
ATOM     20  C   UNL     1      -1.331   2.079   0.020  0.00  0.00    +0.214 C 
BRANCH  20  25
ATOM     21  N   UNL     1       1.196  -2.010  -0.020  0.00  0.00    -0.299 N 
ATOM     22  C   UNL     1       1.178  -0.662  -0.013  0.00  0.00    +0.306 C 
ATOM     23  O   UNL     1       2.222  -0.040  -0.019  0.00  0.00    -0.252 OA
ATOM     24  N   UNL     1       0.002  -0.004   0.002  0.00  0.00    -0.239 N 
ATOM     25  C   UNL     1      -0.016   1.344   0.009  0.00  0.00    +0.238 C 
ATOM     26  O   UNL     1       1.025   1.964   0.003  0.00  0.00    -0.274 OA
ATOM     27  H   UNL     1       0.363  -2.506  -0.015  0.00  0.00    +0.150 HD
ATOM     28  H   UNL     1      -0.831  -0.500   0.007  0.00  0.00    +0.159 HD
BRANCH  21  29
ATOM     29  C   UNL     1       2.475  -2.725  -0.036  0.00  0.00    +0.108 C 
BRANCH  29  31
ATOM     30  C   UNL     1       1.516  -4.625  -1.345  0.00  0.00    +0.009 C 
ATOM     31  C   UNL     1       2.216  -4.233  -0.042  0.00  0.00    -0.000 C 
ATOM     32  C   UNL     1       3.547  -4.979   0.067  0.00  0.00    +0.009 C 
ENDBRANCH  29  31
ENDBRANCH  21  29
ENDBRANCH  20  25
ENDBRANCH   1  20
TORSDOF 5
