REMARK  Name = ZINC49671930
REMARK  4 active torsions:
REMARK  status: ('A' for Active; 'I' for Inactive)
REMARK    1  A    between atoms: C_1  and  C_2
REMARK    2  A    between atoms: C_7  and  C_8
REMARK    3  A    between atoms: C_9  and  C_14
REMARK    4  A    between atoms: C_10  and  N_13
REMARK                            x       y       z     vdW  Elec       q    Type
REMARK                         _______ _______ _______ _____ _____    ______ ____
ROOT
ATOM      1  C   UNL     1       0.025   0.022   2.495  0.00  0.00    +0.123 A 
ATOM      2  C   UNL     1       0.052  -0.574   3.832  0.00  0.00    +0.074 A 
ATOM      3  C   UNL     1       0.045   0.472   4.733  0.00  0.00    +0.224 A 
ATOM      4  O   UNL     1       0.017   1.618   4.035  0.00  0.00    -0.339 OA
ATOM      5  N   UNL     1       0.010   1.325   2.653  0.00  0.00    -0.075 NA
ENDROOT
BRANCH   1  12
ATOM      6  C   UNL     1      -0.018   1.503   0.010  0.00  0.00    +0.044 C 
ATOM      7  C   UNL     1       0.002  -0.004   0.002  0.00  0.00    -0.040 A 
ATOM      8  C   UNL     1       0.006  -0.689  -1.196  0.00  0.00    +0.019 A 
ATOM      9  C   UNL     1       0.025  -2.073  -1.205  0.00  0.00    +0.018 A 
ATOM     10  C   UNL     1       0.040  -2.777  -0.014  0.00  0.00    +0.016 A 
ATOM     11  C   UNL     1       0.036  -2.102   1.190  0.00  0.00    +0.011 A 
ATOM     12  C   UNL     1       0.023  -0.708   1.204  0.00  0.00    +0.007 A 
ATOM     13 BR   UNL     1       0.029  -3.004  -2.851  0.00  0.00    -0.050 Br
ENDBRANCH   1  12
BRANCH   2  14
ATOM     14  C   UNL     1       0.080  -2.020   4.155  0.00  0.00    +0.024 A 
ATOM     15  C   UNL     1       1.299  -2.682   4.299  0.00  0.00    +0.011 A 
ATOM     16  C   UNL     1       1.320  -4.028   4.600  0.00  0.00    +0.001 A 
ATOM     17  C   UNL     1       0.134  -4.723   4.760  0.00  0.00    +0.003 A 
ATOM     18  C   UNL     1      -1.079  -4.074   4.619  0.00  0.00    +0.039 A 
ATOM     19  C   UNL     1      -1.113  -2.724   4.324  0.00  0.00    +0.131 A 
ATOM     20  F   UNL     1      -2.299  -2.089   4.192  0.00  0.00    -0.205 F 
ENDBRANCH   2  14
BRANCH   3  21
ATOM     21  N   UNL     1       0.063   0.359   6.108  0.00  0.00    -0.327 N 
ATOM     22  H   UNL     1       0.083  -0.518   6.522  0.00  0.00    +0.145 HD
ATOM     23  H   UNL     1       0.056   1.157   6.660  0.00  0.00    +0.145 HD
ENDBRANCH   3  21
TORSDOF 3
