REMARK  Name = ZINC11025455
REMARK  8 active torsions:
REMARK  status: ('A' for Active; 'I' for Inactive)
REMARK    1  A    between atoms: C_1  and  C_2
REMARK    2  A    between atoms: C_2  and  C_4
REMARK    3  A    between atoms: C_2  and  O_15
REMARK    4  A    between atoms: N_6  and  C_7
REMARK    5  A    between atoms: C_7  and  C_13
REMARK    6  A    between atoms: O_15  and  C_16
REMARK    7  A    between atoms: C_16  and  C_18
REMARK    8  A    between atoms: C_22  and  N_24
REMARK                            x       y       z     vdW  Elec       q    Type
REMARK                         _______ _______ _______ _____ _____    ______ ____
ROOT
ATOM      1  C   UNL     1      -0.019   1.526   0.010  0.00  0.00    +0.062 C 
ATOM      2  C   UNL     1       0.002  -0.004   0.002  0.00  0.00    +0.259 C 
ENDROOT
BRANCH   2   3
ATOM      3  C   UNL     1       0.707  -0.490  -1.238  0.00  0.00    +0.255 C 
ATOM      4  O   UNL     1       0.095  -1.114  -2.078  0.00  0.00    -0.272 OA
ATOM      5  N   UNL     1       2.018  -0.231  -1.413  0.00  0.00    -0.294 N 
ATOM      6  H   UNL     1       2.508   0.269  -0.741  0.00  0.00    +0.150 HD
BRANCH   5   7
ATOM      7  C   UNL     1       2.704  -0.703  -2.618  0.00  0.00    +0.121 C 
ATOM      8  C   UNL     1       2.616  -2.229  -2.690  0.00  0.00    +0.041 C 
ATOM      9  C   UNL     1       3.332  -2.723  -3.949  0.00  0.00    +0.003 C 
ATOM     10  C   UNL     1       4.801  -2.298  -3.899  0.00  0.00    +0.000 C 
ATOM     11  C   UNL     1       4.889  -0.772  -3.827  0.00  0.00    +0.003 C 
ATOM     12  C   UNL     1       4.173  -0.279  -2.568  0.00  0.00    +0.041 C 
BRANCH   7  13
ATOM     13  C   UNL     1       2.064  -0.118  -3.808  0.00  0.00    +0.088 C 
ATOM     14  N   UNL     1       1.571   0.333  -4.726  0.00  0.00    -0.194 NA
ENDBRANCH   7  13
ENDBRANCH   5   7
ENDBRANCH   2   3
BRANCH   2  15
ATOM     15  O   UNL     1      -1.339  -0.499   0.012  0.00  0.00    -0.449 OA
BRANCH  15  16
ATOM     16  C   UNL     1      -1.901  -0.717   1.217  0.00  0.00    +0.340 C 
ATOM     17  O   UNL     1      -1.270  -0.493   2.231  0.00  0.00    -0.245 OA
BRANCH  16  18
ATOM     18  C   UNL     1      -3.284  -1.228   1.304  0.00  0.00    +0.061 A 
ATOM     19  C   UNL     1      -4.009  -1.491   0.140  0.00  0.00    +0.016 A 
ATOM     20  C   UNL     1      -5.300  -1.968   0.229  0.00  0.00    +0.023 A 
ATOM     21  C   UNL     1      -5.877  -2.185   1.469  0.00  0.00    +0.071 A 
ATOM     22  C   UNL     1      -5.163  -1.926   2.627  0.00  0.00    +0.145 A 
ATOM     23  C   UNL     1      -3.869  -1.455   2.552  0.00  0.00    +0.049 A 
ATOM     24 CL   UNL     1      -7.503  -2.785   1.572  0.00  0.00    -0.081 Cl
BRANCH  22  25
ATOM     25  N   UNL     1      -5.788  -2.161   3.948  0.00  0.00    +0.058 N 
ATOM     26  O   UNL     1      -5.166  -1.935   4.960  0.00  0.00    -0.126 OA
ATOM     27  O   UNL     1      -6.920  -2.578   4.016  0.00  0.00    -0.126 OA
ENDBRANCH  22  25
ENDBRANCH  16  18
ENDBRANCH  15  16
ENDBRANCH   2  15
TORSDOF 7
