REMARK  Name = ZINC12479629
REMARK  14 active torsions:
REMARK  status: ('A' for Active; 'I' for Inactive)
REMARK    1  A    between atoms: C_1  and  C_2
REMARK    2  A    between atoms: C_5  and  C_8
REMARK    3  A    between atoms: C_8  and  C_10
REMARK    4  A    between atoms: C_8  and  N_18
REMARK    5  A    between atoms: N_12  and  C_13
REMARK    6  A    between atoms: C_13  and  C_14
REMARK    7  A    between atoms: C_14  and  C_15
REMARK    8  A    between atoms: C_15  and  C_16
REMARK    9  A    between atoms: C_15  and  C_17
REMARK   10  A    between atoms: N_18  and  C_19
REMARK   11  A    between atoms: C_23  and  O_25
REMARK   12  A    between atoms: C_26  and  C_28
REMARK   13  A    between atoms: C_29  and  N_36
REMARK   14  A    between atoms: C_30  and  C_33
REMARK                            x       y       z     vdW  Elec       q    Type
REMARK                         _______ _______ _______ _____ _____    ______ ____
ROOT
ATOM      1  N   UNL     1       0.020   5.917   0.541  0.00  0.00    -0.251 N 
ATOM      2  C   UNL     1      -0.703   7.021   0.812  0.00  0.00    +0.262 C 
ATOM      3  O   UNL     1      -0.288   8.117   0.483  0.00  0.00    -0.269 OA
ENDROOT
BRANCH   1   4
ATOM      4  C   UNL     1      -0.499   4.652   0.832  0.00  0.00    +0.041 A 
ATOM      5  C   UNL     1      -1.515   4.119   0.048  0.00  0.00    +0.024 A 
ATOM      6  C   UNL     1      -2.027   2.869   0.336  0.00  0.00    +0.005 A 
ATOM      7  C   UNL     1      -1.531   2.145   1.403  0.00  0.00    +0.045 A 
ATOM      8  C   UNL     1      -0.519   2.674   2.192  0.00  0.00    +0.119 A 
ATOM      9  C   UNL     1       0.001   3.925   1.904  0.00  0.00    +0.069 A 
BRANCH   8  10
ATOM     10  O   UNL     1      -0.036   1.962   3.245  0.00  0.00    -0.507 OA
ATOM     11  H   UNL     1       0.709   1.387   3.022  0.00  0.00    +0.292 HD
ENDBRANCH   8  10
ENDBRANCH   1   4
BRANCH   2  12
ATOM     12  C   UNL     1      -1.988   6.902   1.503  0.00  0.00    +0.116 A 
ATOM     13  C   UNL     1      -2.936   7.888   1.785  0.00  0.00    +0.076 A 
ATOM     14  C   UNL     1      -4.046   7.383   2.462  0.00  0.00    +0.155 A 
ATOM     15  N   UNL     1      -4.089   6.105   2.765  0.00  0.00    -0.203 NA
ATOM     16  S   UNL     1      -2.757   5.463   2.217  0.00  0.00    +0.019 S 
BRANCH  14  17
ATOM     17  C   UNL     1      -5.157   8.276   2.842  0.00  0.00    +0.262 C 
ATOM     18  O   UNL     1      -5.111   9.458   2.559  0.00  0.00    -0.269 OA
ATOM     19  N   UNL     1      -6.223   7.782   3.502  0.00  0.00    -0.324 N 
ATOM     20  H   UNL     1      -6.260   6.840   3.728  0.00  0.00    +0.145 HD
ATOM     21  H   UNL     1      -6.954   8.369   3.751  0.00  0.00    +0.145 HD
ENDBRANCH  14  17
BRANCH  13  22
ATOM     22  N   UNL     1      -2.792   9.221   1.426  0.00  0.00    -0.355 N 
ATOM     23  H   UNL     1      -1.998   9.513   0.952  0.00  0.00    +0.142 HD
ATOM     24  H   UNL     1      -3.486   9.861   1.649  0.00  0.00    +0.142 HD
ENDBRANCH  13  22
ENDBRANCH   2  12
BRANCH   1  25
ATOM     25  C   UNL     1       1.351   6.042  -0.060  0.00  0.00    +0.197 C 
BRANCH  25  30
ATOM     26  C   UNL     1       5.314   3.945   3.585  0.00  0.00    +0.044 C 
ATOM     27  C   UNL     1       4.281   4.492   2.634  0.00  0.00    -0.050 A 
ATOM     28  C   UNL     1       3.983   5.842   2.639  0.00  0.00    +0.004 A 
ATOM     29  C   UNL     1       3.035   6.344   1.767  0.00  0.00    +0.006 A 
ATOM     30  C   UNL     1       2.385   5.495   0.890  0.00  0.00    -0.018 A 
ATOM     31  C   UNL     1       2.679   4.145   0.889  0.00  0.00    +0.006 A 
ATOM     32  C   UNL     1       3.630   3.644   1.758  0.00  0.00    +0.004 A 
ENDBRANCH  25  30
BRANCH  25  33
ATOM     33  C   UNL     1       1.394   5.266  -1.351  0.00  0.00    +0.238 C 
ATOM     34  O   UNL     1       0.411   4.667  -1.732  0.00  0.00    -0.273 OA
ATOM     35  N   UNL     1       2.526   5.238  -2.082  0.00  0.00    -0.313 N 
ATOM     36  H   UNL     1       3.313   5.717  -1.778  0.00  0.00    +0.149 HD
BRANCH  35  37
ATOM     37  C   UNL     1       2.568   4.483  -3.337  0.00  0.00    +0.104 C 
BRANCH  37  38
ATOM     38  C   UNL     1       3.958   4.614  -3.964  0.00  0.00    +0.022 C 
BRANCH  38  39
ATOM     39  C   UNL     1       4.002   3.826  -5.275  0.00  0.00    -0.016 C 
ATOM     40  C   UNL     1       3.041   4.459  -6.284  0.00  0.00    +0.007 C 
ATOM     41  C   UNL     1       5.424   3.853  -5.839  0.00  0.00    +0.007 C 
ENDBRANCH  38  39
ENDBRANCH  37  38
ENDBRANCH  35  37
ENDBRANCH  25  33
ENDBRANCH   1  25
TORSDOF 11
