REMARK  Name = ZINC16022134
REMARK  6 active torsions:
REMARK  status: ('A' for Active; 'I' for Inactive)
REMARK    1  A    between atoms: C_1  and  C_2
REMARK    2  A    between atoms: C_13  and  C_16
REMARK    3  A    between atoms: C_16  and  C_17
REMARK    4  A    between atoms: C_20  and  O_24
REMARK    5  A    between atoms: C_21  and  O_23
REMARK    6  A    between atoms: N_27  and  C_30
REMARK                            x       y       z     vdW  Elec       q    Type
REMARK                         _______ _______ _______ _____ _____    ______ ____
ROOT
ATOM      1  C   UNL     1      -0.018   1.503   0.010  0.00  0.00    +0.044 C 
ATOM      2  C   UNL     1       0.002  -0.004   0.002  0.00  0.00    -0.050 A 
ATOM      3  C   UNL     1       0.006  -0.691  -1.199  0.00  0.00    +0.005 A 
ATOM      4  C   UNL     1       0.024  -2.070  -1.212  0.00  0.00    +0.024 A 
ATOM      5  C   UNL     1       0.040  -2.782  -0.015  0.00  0.00    +0.039 A 
ATOM      6  C   UNL     1       0.037  -2.081   1.187  0.00  0.00    +0.004 A 
ATOM      7  C   UNL     1       0.023  -0.704   1.195  0.00  0.00    +0.011 A 
ATOM      8  C   UNL     1       0.061  -3.122   2.270  0.00  0.00    +0.136 C 
ATOM      9  C   UNL     1      -1.156  -3.005   3.194  0.00  0.00    +0.122 C 
ATOM     10  C   UNL     1      -0.634  -2.227   4.435  0.00  0.00    +0.107 C 
ATOM     11  C   UNL     1       0.852  -1.945   4.127  0.00  0.00    +0.072 C 
ATOM     12  N   UNL     1       1.245  -2.973   3.137  0.00  0.00    -0.295 NA
ATOM     13  C   UNL     1      -1.419  -0.936   4.392  0.00  0.00    +0.227 C 
ATOM     14  O   UNL     1      -1.321  -0.030   5.192  0.00  0.00    -0.275 OA
ATOM     15  N   UNL     1      -2.237  -0.948   3.333  0.00  0.00    -0.238 N 
ATOM     16  C   UNL     1      -2.176  -2.072   2.584  0.00  0.00    +0.228 C 
ATOM     17  O   UNL     1      -2.826  -2.300   1.586  0.00  0.00    -0.275 OA
ATOM     18  C   UNL     1       0.075  -4.440   1.545  0.00  0.00    +0.243 C 
ATOM     19  O   UNL     1       0.095  -5.543   2.048  0.00  0.00    -0.273 OA
ATOM     20  N   UNL     1       0.060  -4.157   0.228  0.00  0.00    -0.283 N 
ATOM     21  H   UNL     1       1.465  -3.842   3.601  0.00  0.00    +0.124 HD
ATOM     22  H   UNL     1       0.063  -4.830  -0.470  0.00  0.00    +0.155 HD
ENDROOT
BRANCH  15  23
ATOM     23  C   UNL     1      -3.134   0.166   3.013  0.00  0.00    +0.084 C 
ATOM     24  C   UNL     1      -2.322   1.467   2.845  0.00  0.00    +0.023 C 
ATOM     25  C   UNL     1      -3.231   2.562   3.455  0.00  0.00    +0.002 C 
ATOM     26  C   UNL     1      -3.862   1.843   4.673  0.00  0.00    +0.002 C 
ATOM     27  C   UNL     1      -4.113   0.405   4.175  0.00  0.00    +0.023 C 
ENDBRANCH  15  23
BRANCH  11  28
ATOM     28  C   UNL     1       1.691  -2.059   5.402  0.00  0.00    +0.054 C 
BRANCH  28  29
ATOM     29  C   UNL     1       3.114  -1.661   5.104  0.00  0.00    -0.042 A 
ATOM     30  C   UNL     1       4.024  -2.614   4.689  0.00  0.00    +0.007 A 
ATOM     31  C   UNL     1       5.331  -2.254   4.415  0.00  0.00    +0.049 A 
ATOM     32  C   UNL     1       5.729  -0.934   4.556  0.00  0.00    +0.158 A 
ATOM     33  C   UNL     1       4.812   0.026   4.973  0.00  0.00    +0.158 A 
ATOM     34  C   UNL     1       3.504  -0.341   5.242  0.00  0.00    +0.052 A 
BRANCH  33  35
ATOM     35  O   UNL     1       5.199   1.322   5.113  0.00  0.00    -0.503 OA
ATOM     36  H   UNL     1       5.091   1.853   4.312  0.00  0.00    +0.292 HD
ENDBRANCH  33  35
BRANCH  32  37
ATOM     37  O   UNL     1       7.014  -0.578   4.287  0.00  0.00    -0.503 OA
ATOM     38  H   UNL     1       7.166  -0.319   3.368  0.00  0.00    +0.292 HD
ENDBRANCH  32  37
ENDBRANCH  28  29
ENDBRANCH  11  28
TORSDOF 5
