REMARK  Name = ZINC13367676
REMARK  8 active torsions:
REMARK  status: ('A' for Active; 'I' for Inactive)
REMARK    1  A    between atoms: C_1  and  C_2
REMARK    2  A    between atoms: C_4  and  C_15
REMARK    3  A    between atoms: C_5  and  C_14
REMARK    4  A    between atoms: N_6  and  C_7
REMARK    5  A    between atoms: N_17  and  N_18
REMARK    6  A    between atoms: N_18  and  S_19
REMARK    7  A    between atoms: S_19  and  C_22
REMARK    8  A    between atoms: C_26  and  C_28
REMARK                            x       y       z     vdW  Elec       q    Type
REMARK                         _______ _______ _______ _____ _____    ______ ____
ROOT
ATOM      1  C   UNL     1      -3.226   5.246  -3.041  0.00  0.00    +0.261 C 
ATOM      2  O   UNL     1      -4.063   6.117  -2.895  0.00  0.00    -0.269 OA
ATOM      3  N   UNL     1      -2.052   5.323  -2.383  0.00  0.00    -0.228 N 
ATOM      4  H   UNL     1      -1.385   4.629  -2.499  0.00  0.00    +0.171 HD
ENDROOT
BRANCH   1   8
ATOM      5  C   UNL     1      -2.729   0.902  -5.670  0.00  0.00    +0.064 C 
ATOM      6  C   UNL     1      -3.256   2.188  -5.088  0.00  0.00    +0.022 A 
ATOM      7  C   UNL     1      -2.601   2.981  -4.222  0.00  0.00    +0.036 A 
ATOM      8  C   UNL     1      -3.496   4.109  -3.936  0.00  0.00    +0.059 A 
ATOM      9  C   UNL     1      -4.633   3.887  -4.663  0.00  0.00    +0.033 A 
ATOM     10  N   UNL     1      -4.478   2.739  -5.354  0.00  0.00    -0.317 N 
ATOM     11  C   UNL     1      -5.849   4.776  -4.691  0.00  0.00    +0.064 C 
BRANCH  10  12
ATOM     12  C   UNL     1      -5.436   2.187  -6.217  0.00  0.00    +0.047 A 
ATOM     13  C   UNL     1      -5.795   2.859  -7.378  0.00  0.00    +0.029 A 
ATOM     14  C   UNL     1      -6.735   2.311  -8.229  0.00  0.00    +0.040 A 
ATOM     15  C   UNL     1      -7.327   1.097  -7.920  0.00  0.00    +0.124 A 
ATOM     16  C   UNL     1      -6.974   0.429  -6.760  0.00  0.00    +0.040 A 
ATOM     17  C   UNL     1      -6.031   0.971  -5.909  0.00  0.00    +0.029 A 
ATOM     18  F   UNL     1      -8.250   0.566  -8.751  0.00  0.00    -0.205 F 
ENDBRANCH  10  12
ENDBRANCH   1   8
BRANCH   3  19
ATOM     19  N   UNL     1      -1.796   6.405  -1.531  0.00  0.00    -0.108 NA
ATOM     20  H   UNL     1      -1.869   7.313  -1.865  0.00  0.00    +0.172 HD
BRANCH  19  21
ATOM     21  S   UNL     1      -1.368   6.135   0.045  0.00  0.00    +0.074 S 
ATOM     22  O   UNL     1      -2.374   5.299   0.601  0.00  0.00    -0.152 OA
ATOM     23  O   UNL     1      -1.039   7.401   0.600  0.00  0.00    -0.152 OA
BRANCH  21  24
ATOM     24  C   UNL     1       0.119   5.191   0.027  0.00  0.00    +0.108 A 
ATOM     25  C   UNL     1       1.345   5.835   0.020  0.00  0.00    +0.031 A 
ATOM     26  C   UNL     1       2.518   5.103   0.005  0.00  0.00    +0.041 A 
ATOM     27  C   UNL     1       2.474   3.721  -0.002  0.00  0.00    +0.138 A 
ATOM     28  C   UNL     1       1.238   3.065   0.007  0.00  0.00    +0.100 A 
ATOM     29  C   UNL     1       0.059   3.814   0.016  0.00  0.00    +0.046 A 
ATOM     30  F   UNL     1       3.620   3.006  -0.015  0.00  0.00    -0.205 F 
BRANCH  28  31
ATOM     31  C   UNL     1       1.181   1.591  -0.001  0.00  0.00    +0.389 C 
ATOM     32  O   UNL     1       2.209   0.943  -0.014  0.00  0.00    -0.240 OA
ATOM     33  O   UNL     1      -0.011   0.963   0.007  0.00  0.00    -0.240 OA
ENDBRANCH  28  31
ENDBRANCH  21  24
ENDBRANCH  19  21
ENDBRANCH   3  19
TORSDOF 6
