REMARK  Name = ZINC39126678
REMARK  9 active torsions:
REMARK  status: ('A' for Active; 'I' for Inactive)
REMARK    1  A    between atoms: C_1  and  C_2
REMARK    2  A    between atoms: C_5  and  C_8
REMARK    3  A    between atoms: N_10  and  C_11
REMARK    4  A    between atoms: N_10  and  C_33
REMARK    5  A    between atoms: C_12  and  C_30
REMARK    6  A    between atoms: C_14  and  C_16
REMARK    7  A    between atoms: C_19  and  C_22
REMARK    8  A    between atoms: C_33  and  C_34
REMARK    9  A    between atoms: C_33  and  C_35
REMARK                            x       y       z     vdW  Elec       q    Type
REMARK                         _______ _______ _______ _____ _____    ______ ____
ROOT
ATOM      1  C   UNL     1      -1.466  -1.886   4.846  0.00  0.00    +0.210 A 
ATOM      2  C   UNL     1      -1.355  -0.615   5.402  0.00  0.00    +0.124 A 
ATOM      3  C   UNL     1      -2.217  -0.632   6.591  0.00  0.00    +0.067 A 
ATOM      4  C   UNL     1      -2.756  -1.873   6.645  0.00  0.00    +0.138 A 
ATOM      5  O   UNL     1      -2.307  -2.601   5.603  0.00  0.00    -0.440 OA
ENDROOT
BRANCH   4   6
ATOM      6  C   UNL     1      -3.693  -2.353   7.680  0.00  0.00    +0.017 A 
ATOM      7  C   UNL     1      -4.096  -1.497   8.709  0.00  0.00    +0.012 A 
ATOM      8  C   UNL     1      -4.970  -1.945   9.674  0.00  0.00    +0.011 A 
ATOM      9  C   UNL     1      -5.454  -3.253   9.624  0.00  0.00    +0.002 A 
ATOM     10  C   UNL     1      -5.053  -4.108   8.597  0.00  0.00    +0.011 A 
ATOM     11  C   UNL     1      -4.183  -3.660   7.628  0.00  0.00    +0.012 A 
BRANCH   9  12
ATOM     12  C   UNL     1      -6.396  -3.734  10.663  0.00  0.00    +0.090 A 
ATOM     13  C   UNL     1      -6.935  -4.976  10.735  0.00  0.00    +0.121 A 
ATOM     14  N   UNL     1      -7.759  -5.012  11.854  0.00  0.00    -0.300 N 
ATOM     15  C   UNL     1      -8.578  -5.916  12.496  0.00  0.00    +0.100 A 
ATOM     16  C   UNL     1      -9.242  -5.572  13.598  0.00  0.00    +0.067 A 
ATOM     17  S   UNL     1      -8.736  -3.874  13.820  0.00  0.00    -0.058 S 
ATOM     18  C   UNL     1      -7.667  -3.760  12.404  0.00  0.00    +0.178 A 
ATOM     19  N   UNL     1      -6.862  -3.015  11.705  0.00  0.00    -0.221 NA
ENDBRANCH   9  12
ENDBRANCH   4   6
BRANCH   1  22
ATOM     20  C   UNL     1      -1.335  -2.043   2.493  0.00  0.00    +0.225 C 
ATOM     21  O   UNL     1      -0.823  -2.506   1.496  0.00  0.00    -0.275 OA
ATOM     22  N   UNL     1      -0.826  -2.330   3.708  0.00  0.00    -0.239 N 
BRANCH  20  27
ATOM     23  C   UNL     1      -4.497  -4.105  -0.104  0.00  0.00    +0.007 C 
ATOM     24  C   UNL     1      -4.253  -2.815   0.682  0.00  0.00    -0.014 C 
ATOM     25  C   UNL     1      -3.025  -2.098   0.116  0.00  0.00    +0.004 C 
ATOM     26  C   UNL     1      -2.780  -0.808   0.901  0.00  0.00    +0.013 C 
ATOM     27  C   UNL     1      -2.540  -1.146   2.374  0.00  0.00    +0.076 C 
ATOM     28  C   UNL     1      -3.767  -1.862   2.940  0.00  0.00    +0.013 C 
ATOM     29  C   UNL     1      -4.012  -3.152   2.154  0.00  0.00    +0.004 C 
ENDBRANCH  20  27
BRANCH  22  30
ATOM     30  C   UNL     1       0.407  -3.114   3.819  0.00  0.00    +0.078 C 
ATOM     31  C   UNL     1       1.507  -2.248   4.436  0.00  0.00    +0.028 C 
ATOM     32  C   UNL     1       0.157  -4.333   4.709  0.00  0.00    +0.028 C 
ENDBRANCH  22  30
ENDBRANCH   1  22
BRANCH   2  33
ATOM     33  C   UNL     1      -0.549   0.501   4.907  0.00  0.00    +0.392 C 
ATOM     34  O   UNL     1      -0.469   1.535   5.559  0.00  0.00    -0.240 OA
ATOM     35  O   UNL     1       0.047   0.401   3.842  0.00  0.00    -0.240 OA
ENDBRANCH   2  33
TORSDOF 6
