REMARK  Name = ZINC21543586
REMARK  6 active torsions:
REMARK  status: ('A' for Active; 'I' for Inactive)
REMARK    1  A    between atoms: C_1  and  C_2
REMARK    2  A    between atoms: C_2  and  C_4
REMARK    3  A    between atoms: C_2  and  O_10
REMARK    4  A    between atoms: O_10  and  C_11
REMARK    5  A    between atoms: C_11  and  C_13
REMARK    6  A    between atoms: C_20  and  C_25
REMARK                            x       y       z     vdW  Elec       q    Type
REMARK                         _______ _______ _______ _____ _____    ______ ____
ROOT
ATOM      1  C   UNL     1       3.291   2.758  -1.292  0.00  0.00    +0.059 A 
ATOM      2  C   UNL     1       4.014   3.015  -0.126  0.00  0.00    +0.016 A 
ATOM      3  C   UNL     1       5.305   3.492  -0.209  0.00  0.00    +0.016 A 
ATOM      4  C   UNL     1       5.883   3.718  -1.457  0.00  0.00    +0.062 A 
ATOM      5  C   UNL     1       5.164   3.460  -2.625  0.00  0.00    -0.029 A 
ATOM      6  C   UNL     1       3.874   2.978  -2.541  0.00  0.00    +0.019 A 
ATOM      7  C   UNL     1       5.788   3.695  -3.976  0.00  0.00    +0.085 C 
ATOM      8  C   UNL     1       6.952   4.679  -3.860  0.00  0.00    +0.211 C 
ATOM      9  O   UNL     1       7.840   4.249  -2.787  0.00  0.00    -0.453 OA
ATOM     10  C   UNL     1       7.269   4.240  -1.556  0.00  0.00    +0.340 C 
ATOM     11  O   UNL     1       7.865   4.640  -0.577  0.00  0.00    -0.245 OA
ENDROOT
BRANCH   8  12
ATOM     12  C   UNL     1       7.714   4.713  -5.159  0.00  0.00    -0.007 A 
ATOM     13  C   UNL     1       8.633   3.721  -5.448  0.00  0.00    +0.007 A 
ATOM     14  C   UNL     1       9.328   3.749  -6.643  0.00  0.00    +0.000 A 
ATOM     15  C   UNL     1       9.113   4.775  -7.544  0.00  0.00    +0.000 A 
ATOM     16  C   UNL     1       8.197   5.769  -7.253  0.00  0.00    +0.000 A 
ATOM     17  C   UNL     1       7.498   5.738  -6.061  0.00  0.00    +0.007 A 
ENDBRANCH   8  12
BRANCH   1  18
ATOM     18  C   UNL     1       1.906   2.246  -1.204  0.00  0.00    +0.340 C 
ATOM     19  O   UNL     1       1.276   2.023  -2.218  0.00  0.00    -0.245 OA
BRANCH  18  20
ATOM     20  O   UNL     1       1.343   2.028   0.000  0.00  0.00    -0.449 OA
BRANCH  20  22
ATOM     21  C   UNL     1       0.002  -0.004   0.002  0.00  0.00    +0.062 C 
ATOM     22  C   UNL     1      -0.019   1.526   0.010  0.00  0.00    +0.259 C 
BRANCH  22  23
ATOM     23  C   UNL     1      -0.724   2.012   1.250  0.00  0.00    +0.261 C 
ATOM     24  O   UNL     1      -0.112   2.636   2.091  0.00  0.00    -0.271 OA
ATOM     25  N   UNL     1      -2.035   1.753   1.425  0.00  0.00    -0.237 N 
ATOM     26  C   UNL     1      -2.666   2.187   2.534  0.00  0.00    +0.303 C 
ATOM     27  O   UNL     1      -2.053   2.813   3.376  0.00  0.00    -0.253 OA
ATOM     28  N   UNL     1      -3.977   1.928   2.709  0.00  0.00    -0.313 N 
ATOM     29  H   UNL     1      -2.590   1.186   0.663  0.00  0.00    +0.159 HD
ATOM     30  H   UNL     1      -4.492   2.283   3.614  0.00  0.00    +0.146 HD
ATOM     31  H   UNL     1      -4.532   1.362   1.946  0.00  0.00    +0.146 HD
ENDBRANCH  22  23
ENDBRANCH  20  22
ENDBRANCH  18  20
ENDBRANCH   1  18
TORSDOF 5
