REMARK  Name = ZINC26256627
REMARK  8 active torsions:
REMARK  status: ('A' for Active; 'I' for Inactive)
REMARK    1  A    between atoms: C_1  and  C_2
REMARK    2  A    between atoms: C_3  and  C_21
REMARK    3  A    between atoms: C_4  and  C_14
REMARK    4  A    between atoms: C_7  and  O_9
REMARK    5  A    between atoms: O_9  and  C_10
REMARK    6  A    between atoms: C_11  and  C_13
REMARK    7  A    between atoms: C_21  and  O_23
REMARK    8  A    between atoms: O_23  and  C_24
REMARK                            x       y       z     vdW  Elec       q    Type
REMARK                         _______ _______ _______ _____ _____    ______ ____
ROOT
ATOM      1  C   UNL     1      -0.146   1.493   0.132  0.00  0.00    +0.066 C 
ATOM      2  C   UNL     1      -0.060  -0.010   0.060  0.00  0.00    +0.049 C 
ATOM      3  C   UNL     1      -1.232  -0.747  -0.002  0.00  0.00    +0.069 C 
ATOM      4  C   UNL     1      -1.102  -2.258  -0.073  0.00  0.00    +0.096 C 
ATOM      5  C   UNL     1       0.316  -2.801  -0.068  0.00  0.00    +0.069 C 
ATOM      6  C   UNL     1       0.567  -4.167  -0.130  0.00  0.00    +0.338 C 
ATOM      7  O   UNL     1       1.819  -4.610  -0.243  0.00  0.00    -0.245 OA
ATOM      8  C   UNL     1       1.350  -1.880   0.000  0.00  0.00    +0.049 C 
ATOM      9  N   UNL     1       1.128  -0.582   0.054  0.00  0.00    -0.256 NA
ATOM     10  C   UNL     1       2.772  -2.379   0.008  0.00  0.00    +0.066 C 
ENDROOT
BRANCH   4  11
ATOM     11  C   UNL     1      -1.778  -2.730  -1.335  0.00  0.00    -0.034 A 
ATOM     12  C   UNL     1      -1.334  -2.284  -2.566  0.00  0.00    +0.004 A 
ATOM     13  C   UNL     1      -1.954  -2.716  -3.723  0.00  0.00    +0.001 A 
ATOM     14  C   UNL     1      -3.018  -3.595  -3.650  0.00  0.00    +0.014 A 
ATOM     15  C   UNL     1      -3.463  -4.042  -2.419  0.00  0.00    +0.014 A 
ATOM     16  C   UNL     1      -2.838  -3.613  -1.261  0.00  0.00    +0.019 A 
ATOM     17  I   UNL     1      -5.076  -5.373  -2.307  0.00  0.00    -0.044 I 
ENDBRANCH   4  11
BRANCH   6  18
ATOM     18  O   UNL     1      -0.456  -5.044  -0.075  0.00  0.00    -0.465 OA
ATOM     19  C   UNL     1      -0.124  -6.432  -0.144  0.00  0.00    +0.280 C 
ENDBRANCH   6  18
BRANCH   3  20
ATOM     20  C   UNL     1      -2.477  -0.128   0.001  0.00  0.00    +0.338 C 
ATOM     21  O   UNL     1      -2.560   1.200   0.065  0.00  0.00    -0.245 OA
BRANCH  20  22
ATOM     22  O   UNL     1      -3.600  -0.872  -0.061  0.00  0.00    -0.465 OA
ATOM     23  C   UNL     1      -4.844  -0.170  -0.054  0.00  0.00    +0.280 C 
ENDBRANCH  20  22
ENDBRANCH   3  20
TORSDOF 4
