REMARK  Name = ZINC04774389
REMARK  4 active torsions:
REMARK  status: ('A' for Active; 'I' for Inactive)
REMARK    1  A    between atoms: C_1  and  C_2
REMARK    2  A    between atoms: C_4  and  N_11
REMARK    3  A    between atoms: C_5  and  N_10
REMARK    4  A    between atoms: C_6  and  C_9
REMARK                            x       y       z     vdW  Elec       q    Type
REMARK                         _______ _______ _______ _____ _____    ______ ____
ROOT
ATOM      1  C   UNL     1      -4.896   3.773  -0.435  0.00  0.00    +0.045 C 
ATOM      2  C   UNL     1      -3.615   3.017  -0.194  0.00  0.00    -0.034 A 
ATOM      3  C   UNL     1      -3.595   1.639  -0.306  0.00  0.00    +0.039 A 
ATOM      4  C   UNL     1      -2.423   0.943  -0.086  0.00  0.00    +0.147 A 
ATOM      5  C   UNL     1      -1.262   1.628   0.249  0.00  0.00    +0.059 A 
ATOM      6  C   UNL     1      -1.285   3.012   0.366  0.00  0.00    -0.013 A 
ATOM      7  C   UNL     1      -2.460   3.703   0.139  0.00  0.00    +0.026 A 
ATOM      8 BR   UNL     1      -2.492   5.588   0.290  0.00  0.00    -0.050 Br
ATOM      9  C   UNL     1      -0.030   3.759   0.734  0.00  0.00    +0.047 C 
ENDROOT
BRANCH   5  10
ATOM     10  N   UNL     1      -0.075   0.927   0.472  0.00  0.00    -0.356 N 
ATOM     11  H   UNL     1       0.780   1.367   0.344  0.00  0.00    +0.142 HD
ATOM     12  H   UNL     1      -0.105   0.001   0.760  0.00  0.00    +0.142 HD
ENDBRANCH   5  10
BRANCH   4  13
ATOM     13  N   UNL     1      -2.403  -0.532  -0.206  0.00  0.00    +0.058 N 
ATOM     14  O   UNL     1      -3.442  -1.142  -0.388  0.00  0.00    -0.126 OA
ATOM     15  O   UNL     1      -1.349  -1.136  -0.123  0.00  0.00    -0.126 OA
ENDBRANCH   4  13
TORSDOF 2
