REMARK  Name = ZINC45087852
REMARK  7 active torsions:
REMARK  status: ('A' for Active; 'I' for Inactive)
REMARK    1  A    between atoms: C_1  and  C_2
REMARK    2  A    between atoms: C_2  and  C_3
REMARK    3  A    between atoms: C_3  and  N_4
REMARK    4  A    between atoms: C_5  and  C_7
REMARK    5  A    between atoms: C_7  and  C_8
REMARK    6  A    between atoms: C_8  and  N_9
REMARK    7  A    between atoms: C_10  and  C_20
REMARK                            x       y       z     vdW  Elec       q    Type
REMARK                         _______ _______ _______ _____ _____    ______ ____
ROOT
ATOM      1  N   UNL     1       2.078  -6.088  -3.560  0.00  0.00    -0.295 N 
ATOM      2  C   UNL     1       3.111  -6.750  -2.978  0.00  0.00    +0.128 A 
ATOM      3  N   UNL     1       3.201  -8.045  -2.945  0.00  0.00    -0.232 NA
ATOM      4  C   UNL     1       2.250  -8.839  -3.498  0.00  0.00    +0.078 A 
ATOM      5  C   UNL     1       2.346 -10.231  -3.462  0.00  0.00    +0.028 A 
ATOM      6  C   UNL     1       1.357 -10.998  -4.036  0.00  0.00    +0.002 A 
ATOM      7  C   UNL     1       0.264 -10.403  -4.652  0.00  0.00    +0.001 A 
ATOM      8  C   UNL     1       0.147  -9.032  -4.701  0.00  0.00    +0.015 A 
ATOM      9  C   UNL     1       1.137  -8.238  -4.125  0.00  0.00    +0.065 A 
ATOM     10  C   UNL     1       1.063  -6.769  -4.142  0.00  0.00    +0.262 A 
ATOM     11  O   UNL     1       0.128  -6.189  -4.662  0.00  0.00    -0.267 OA
ENDROOT
BRANCH   2  12
ATOM     12  C   UNL     1       4.210  -5.941  -2.340  0.00  0.00    +0.183 C 
ATOM     13 CL   UNL     1       5.450  -7.051  -1.647  0.00  0.00    -0.117 Cl
ENDBRANCH   2  12
BRANCH   1  14
ATOM     14  C   UNL     1       2.058  -4.623  -3.552  0.00  0.00    +0.136 C 
BRANCH  14  15
ATOM     15  C   UNL     1       1.341  -4.130  -2.293  0.00  0.00    +0.117 C 
BRANCH  15  17
ATOM     16  N   UNL     1       0.738  -1.962  -1.265  0.00  0.00    -0.315 N 
ATOM     17  C   UNL     1       1.321  -2.623  -2.285  0.00  0.00    +0.215 C 
ATOM     18  O   UNL     1       1.829  -2.004  -3.196  0.00  0.00    -0.276 OA
ATOM     19  H   UNL     1       0.332  -2.457  -0.536  0.00  0.00    +0.149 HD
BRANCH  16  20
ATOM     20  C   UNL     1       0.718  -0.497  -1.257  0.00  0.00    +0.104 C 
BRANCH  20  22
ATOM     21  C   UNL     1      -0.019   1.526   0.010  0.00  0.00    +0.005 C 
ATOM     22  C   UNL     1       0.002  -0.004   0.002  0.00  0.00    +0.015 C 
ENDBRANCH  20  22
ENDBRANCH  16  20
ENDBRANCH  15  17
ENDBRANCH  14  15
ENDBRANCH   1  14
TORSDOF 6
