REMARK  Name = ZINC03856164
REMARK  5 active torsions:
REMARK  status: ('A' for Active; 'I' for Inactive)
REMARK    1  A    between atoms: C_1  and  C_2
REMARK    2  A    between atoms: C_2  and  O_3
REMARK    3  A    between atoms: O_3  and  C_4
REMARK    4  A    between atoms: C_6  and  C_11
REMARK    5  A    between atoms: C_9  and  O_10
REMARK                            x       y       z     vdW  Elec       q    Type
REMARK                         _______ _______ _______ _____ _____    ______ ____
ROOT
ATOM      1  C   UNL     1       1.620   1.709  -0.008  0.00  0.00    +0.028 C 
ATOM      2  C   UNL     1       2.886   2.191  -0.072  0.00  0.00    +0.078 C 
ATOM      3  C   UNL     1       3.353   3.589  -0.132  0.00  0.00    +0.265 C 
ATOM      4  O   UNL     1       2.570   4.521  -0.129  0.00  0.00    -0.269 OA
ATOM      5  N   UNL     1       4.660   3.785  -0.189  0.00  0.00    -0.192 N 
ATOM      6  C   UNL     1       5.531   2.710  -0.192  0.00  0.00    +0.166 C 
ATOM      7  N   UNL     1       6.834   2.723  -0.244  0.00  0.00    -0.279 NA
ATOM      8  S   UNL     1       4.437   1.302  -0.099  0.00  0.00    -0.049 S 
ATOM      9  C   UNL     1       5.163   5.086  -0.248  0.00  0.00    +0.222 A 
ATOM     10  C   UNL     1       5.323   5.889  -1.462  0.00  0.00    +0.224 A 
ATOM     11  N   UNL     1       5.821   7.047  -1.126  0.00  0.00    -0.029 NA
ATOM     12  O   UNL     1       6.002   7.050   0.279  0.00  0.00    -0.239 OA
ATOM     13  N   UNL     1       5.566   5.795   0.770  0.00  0.00    -0.031 NA
ATOM     14  N   UNL     1       4.998   5.484  -2.760  0.00  0.00    -0.303 N 
ATOM     15  C   UNL     1       5.231   4.247  -3.291  0.00  0.00    +0.093 A 
ATOM     16  C   UNL     1       4.776   4.241  -4.560  0.00  0.00    +0.019 A 
ATOM     17  C   UNL     1       4.252   5.521  -4.828  0.00  0.00    +0.019 A 
ATOM     18  C   UNL     1       4.400   6.262  -3.711  0.00  0.00    +0.093 A 
ATOM     19  H   UNL     1       7.330   1.893  -0.166  0.00  0.00    +0.189 HD
ENDROOT
BRANCH   1  22
ATOM     20  C   UNL     1      -1.739   3.340  -0.359  0.00  0.00    +0.162 A 
ATOM     21  C   UNL     1      -0.685   2.468  -0.548  0.00  0.00    +0.057 A 
ATOM     22  C   UNL     1       0.493   2.629   0.191  0.00  0.00    -0.020 A 
ATOM     23  C   UNL     1       0.593   3.671   1.122  0.00  0.00    +0.012 A 
ATOM     24  C   UNL     1      -0.466   4.532   1.307  0.00  0.00    +0.050 A 
ATOM     25  C   UNL     1      -1.633   4.372   0.573  0.00  0.00    +0.158 A 
BRANCH  25  26
ATOM     26  O   UNL     1      -2.674   5.225   0.759  0.00  0.00    -0.503 OA
ATOM     27  H   UNL     1      -2.652   6.003   0.185  0.00  0.00    +0.292 HD
ENDBRANCH  25  26
BRANCH  20  28
ATOM     28  O   UNL     1      -2.883   3.190  -1.080  0.00  0.00    -0.489 OA
BRANCH  28  30
ATOM     29  C   UNL     1      -4.279   2.101  -2.725  0.00  0.00    +0.048 C 
ATOM     30  C   UNL     1      -2.924   2.109  -2.014  0.00  0.00    +0.226 C 
ENDBRANCH  28  30
ENDBRANCH  20  28
ENDBRANCH   1  22
TORSDOF 4
