REMARK  Name = ZINC42890738
REMARK  10 active torsions:
REMARK  status: ('A' for Active; 'I' for Inactive)
REMARK    1  A    between atoms: C_1  and  C_2
REMARK    2  A    between atoms: C_6  and  C_7
REMARK    3  A    between atoms: C_7  and  N_8
REMARK    4  A    between atoms: N_11  and  C_12
REMARK    5  A    between atoms: C_12  and  C_14
REMARK    6  A    between atoms: C_12  and  C_16
REMARK    7  A    between atoms: C_14  and  O_15
REMARK    8  A    between atoms: C_16  and  C_18
REMARK    9  A    between atoms: C_16  and  O_27
REMARK   10  A    between atoms: C_21  and  N_24
REMARK                            x       y       z     vdW  Elec       q    Type
REMARK                         _______ _______ _______ _____ _____    ______ ____
ROOT
ATOM      1  C   UNK A   1      -3.118   1.056   6.088  0.00  0.00    +0.133 C 
ENDROOT
BRANCH   1   5
ATOM      2  N   UNK A   0      -1.349  -0.028   3.053  0.00  0.00    -0.295 N 
ATOM      3  C   UNK A   0      -1.589   0.425   4.299  0.00  0.00    +0.300 C 
ATOM      4  O   UNK A   0      -0.661   0.710   5.032  0.00  0.00    -0.253 OA
ATOM      5  N   UNK A   1      -2.857   0.564   4.733  0.00  0.00    -0.292 N 
ATOM      6  H   UNK A   0      -2.089  -0.255   2.468  0.00  0.00    +0.151 HD
ATOM      7  H   UNK A   1      -3.598   0.337   4.149  0.00  0.00    +0.151 HD
BRANCH   2   8
ATOM      8  C   UNK A   0       0.030  -0.179   2.581  0.00  0.00    +0.148 C 
BRANCH   8  14
ATOM      9  C   UNK A   0      -0.018   1.503   0.010  0.00  0.00    +0.044 C 
ATOM     10  C   UNK A   0       0.002  -0.004   0.002  0.00  0.00    -0.039 A 
ATOM     11  C   UNK A   0       0.006  -0.699  -1.193  0.00  0.00    +0.011 A 
ATOM     12  C   UNK A   0       0.024  -2.054  -1.165  0.00  0.00    +0.046 A 
ATOM     13  S   UNK A   0       0.037  -2.387   0.589  0.00  0.00    -0.100 S 
ATOM     14  C   UNK A   0       0.023  -0.698   1.166  0.00  0.00    +0.010 A 
ENDBRANCH   8  14
ENDBRANCH   2   8
ENDBRANCH   1   5
BRANCH   1  15
ATOM     15  C   UNK A   1      -3.108   2.586   6.085  0.00  0.00    +0.181 C 
BRANCH  15  16
ATOM     16  O   UNK A   1      -4.194   3.068   5.291  0.00  0.00    -0.393 OA
ATOM     17  H   UNK A   1      -4.249   4.033   5.244  0.00  0.00    +0.209 HD
ENDBRANCH  15  16
ENDBRANCH   1  15
BRANCH   1  18
ATOM     18  C   UNK A   1      -4.486   0.557   6.558  0.00  0.00    +0.167 C 
BRANCH  18  19
ATOM     19  C   UNK A   1      -4.496  -0.950   6.561  0.00  0.00    -0.017 A 
ATOM     20  C   UNK A   1      -4.682  -1.643   5.379  0.00  0.00    +0.008 A 
ATOM     21  C   UNK A   1      -4.691  -3.025   5.382  0.00  0.00    +0.033 A 
ATOM     22  C   UNK A   1      -4.515  -3.715   6.567  0.00  0.00    +0.126 A 
ATOM     23  C   UNK A   1      -4.328  -3.022   7.749  0.00  0.00    +0.033 A 
ATOM     24  C   UNK A   1      -4.314  -1.640   7.745  0.00  0.00    +0.008 A 
BRANCH  22  25
ATOM     25  N   UNK A   1      -4.526  -5.195   6.570  0.00  0.00    +0.056 N 
ATOM     26  O   UNK A   1      -4.689  -5.801   5.537  0.00  0.00    -0.126 OA
ATOM     27  O   UNK A   1      -4.371  -5.798   7.606  0.00  0.00    -0.126 OA
ENDBRANCH  22  25
ENDBRANCH  18  19
BRANCH  18  28
ATOM     28  O   UNK A   1      -5.499   1.038   5.672  0.00  0.00    -0.385 OA
ATOM     29  H   UNK A   1      -5.390   0.750   4.756  0.00  0.00    +0.210 HD
ENDBRANCH  18  28
ENDBRANCH   1  18
TORSDOF 9
