REMARK  Name = ZINC02367221
REMARK  7 active torsions:
REMARK  status: ('A' for Active; 'I' for Inactive)
REMARK    1  A    between atoms: C_1  and  C_2
REMARK    2  A    between atoms: C_5  and  N_9
REMARK    3  A    between atoms: C_10  and  N_32
REMARK    4  A    between atoms: C_11  and  C_22
REMARK    5  A    between atoms: C_22  and  O_24
REMARK    6  A    between atoms: O_24  and  C_25
REMARK    7  A    between atoms: C_25  and  C_26
REMARK                            x       y       z     vdW  Elec       q    Type
REMARK                         _______ _______ _______ _____ _____    ______ ____
ROOT
ATOM      1  N   UNL     1       2.403   1.105  -0.015  0.00  0.00    -0.280 N 
ATOM      2  C   UNL     1       2.840   0.321  -1.040  0.00  0.00    +0.119 A 
ATOM      3  C   UNL     1       4.092  -0.211  -0.746  0.00  0.00    +0.126 A 
ATOM      4  C   UNL     1       4.458   0.296   0.587  0.00  0.00    +0.125 A 
ATOM      5  C   UNL     1       3.336   1.141   1.004  0.00  0.00    +0.167 A 
ATOM      6  N   UNL     1       3.374   1.736   2.177  0.00  0.00    -0.225 NA
ATOM      7  C   UNL     1       4.440   1.574   2.972  0.00  0.00    +0.092 A 
ATOM      8  C   UNL     1       4.492   2.211   4.226  0.00  0.00    +0.030 A 
ATOM      9  C   UNL     1       5.577   2.040   5.027  0.00  0.00    +0.002 A 
ATOM     10  C   UNL     1       6.646   1.241   4.626  0.00  0.00    +0.002 A 
ATOM     11  C   UNL     1       6.632   0.609   3.422  0.00  0.00    +0.030 A 
ATOM     12  C   UNL     1       5.526   0.761   2.565  0.00  0.00    +0.090 A 
ATOM     13  N   UNL     1       5.502   0.143   1.377  0.00  0.00    -0.241 NA
ENDROOT
BRANCH   1  18
ATOM     14  C   UNL     1      -2.553   3.869   0.048  0.00  0.00    +0.045 C 
ATOM     15  C   UNL     1      -1.237   3.135   0.031  0.00  0.00    -0.032 A 
ATOM     16  C   UNL     1      -0.051   3.845   0.023  0.00  0.00    +0.007 A 
ATOM     17  C   UNL     1       1.157   3.175   0.008  0.00  0.00    +0.026 A 
ATOM     18  C   UNL     1       1.179   1.787   0.000  0.00  0.00    +0.051 A 
ATOM     19  C   UNL     1      -0.013   1.076   0.008  0.00  0.00    +0.046 A 
ATOM     20  C   UNL     1      -1.219   1.752   0.017  0.00  0.00    +0.046 A 
ATOM     21 CL   UNL     1      -2.711   0.864   0.019  0.00  0.00    -0.083 Cl
ENDBRANCH   1  18
BRANCH   2  22
ATOM     22  N   UNL     1       2.144   0.087  -2.197  0.00  0.00    -0.343 N 
ATOM     23  H   UNL     1       1.274   0.494  -2.330  0.00  0.00    +0.144 HD
ATOM     24  H   UNL     1       2.522  -0.485  -2.884  0.00  0.00    +0.144 HD
ENDBRANCH   2  22
BRANCH   3  25
ATOM     25  C   UNL     1       4.862  -1.070  -1.567  0.00  0.00    +0.345 C 
ATOM     26  O   UNL     1       5.652  -0.602  -2.365  0.00  0.00    -0.245 OA
BRANCH  25  27
ATOM     27  O   UNL     1       4.719  -2.408  -1.464  0.00  0.00    -0.458 OA
BRANCH  27  28
ATOM     28  C   UNL     1       5.528  -3.215  -2.323  0.00  0.00    +0.264 C 
BRANCH  28  29
ATOM     29  C   UNL     1       5.229  -4.693  -2.065  0.00  0.00    +0.156 C 
ATOM     30  C   UNL     1       6.179  -5.574  -2.904  0.00  0.00    +0.037 C 
ATOM     31  C   UNL     1       5.243  -6.726  -3.360  0.00  0.00    +0.031 C 
ATOM     32  C   UNL     1       3.901  -5.968  -3.525  0.00  0.00    +0.160 C 
ATOM     33  O   UNL     1       3.888  -4.996  -2.468  0.00  0.00    -0.373 OA
ENDBRANCH  28  29
ENDBRANCH  27  28
ENDBRANCH  25  27
ENDBRANCH   3  25
TORSDOF 6
