REMARK  Name = ZINC13986212
REMARK  12 active torsions:
REMARK  status: ('A' for Active; 'I' for Inactive)
REMARK    1  A    between atoms: C_1  and  C_2
REMARK    2  A    between atoms: C_2  and  C_3
REMARK    3  A    between atoms: C_2  and  C_4
REMARK    4  A    between atoms: C_4  and  C_6
REMARK    5  A    between atoms: C_4  and  N_26
REMARK    6  A    between atoms: C_6  and  O_8
REMARK    7  A    between atoms: O_8  and  C_9
REMARK    8  A    between atoms: C_9  and  C_10
REMARK    9  A    between atoms: C_10  and  C_12
REMARK   10  A    between atoms: N_21  and  S_22
REMARK   11  A    between atoms: S_22  and  C_25
REMARK   12  A    between atoms: C_27  and  C_29
REMARK                            x       y       z     vdW  Elec       q    Type
REMARK                         _______ _______ _______ _____ _____    ______ ____
ROOT
ATOM      1  C   UNL     1      -2.671   7.704  -2.386  0.00  0.00    +0.328 C 
ATOM      2  O   UNL     1      -2.757   6.932  -3.311  0.00  0.00    -0.249 OA
ENDROOT
BRANCH   1   3
ATOM      3  C   UNL     1      -2.582   7.182  -0.975  0.00  0.00    +0.184 C 
BRANCH   3   4
ATOM      4  N   UNL     1      -2.619   5.717  -0.992  0.00  0.00    -0.302 N 
ATOM      5  C   UNL     1      -2.069   5.017   0.019  0.00  0.00    +0.220 C 
ATOM      6  O   UNL     1      -1.542   5.599   0.944  0.00  0.00    -0.275 OA
ATOM      7  H   UNL     1      -3.041   5.252  -1.732  0.00  0.00    +0.150 HD
BRANCH   5   8
ATOM      8  C   UNL     1      -2.108   3.510   0.001  0.00  0.00    +0.048 C 
ATOM      9  C   UNL     1      -1.381   2.997  -1.244  0.00  0.00    +0.019 C 
ATOM     10  C   UNL     1      -1.420   1.467  -1.262  0.00  0.00    -0.009 C 
ATOM     11  C   UNL     1      -0.732   0.924  -0.008  0.00  0.00    +0.007 C 
ATOM     12  C   UNL     1      -1.459   1.438   1.236  0.00  0.00    -0.009 C 
ATOM     13  C   UNL     1      -1.419   2.967   1.254  0.00  0.00    +0.019 C 
ATOM     14  C   UNL     1      -2.914   0.966   1.208  0.00  0.00    +0.007 C 
ATOM     15  C   UNL     1      -3.602   1.509  -0.046  0.00  0.00    -0.009 C 
ATOM     16  C   UNL     1      -2.875   0.995  -1.290  0.00  0.00    +0.007 C 
ATOM     17  C   UNL     1      -3.563   3.038  -0.027  0.00  0.00    +0.019 C 
ENDBRANCH   5   8
ENDBRANCH   3   4
BRANCH   3  19
ATOM     18  C   UNL     1      -3.723   9.242  -0.141  0.00  0.00    +0.009 C 
ATOM     19  C   UNL     1      -3.762   7.713  -0.159  0.00  0.00    +0.014 C 
ATOM     20  C   UNL     1      -5.073   7.244  -0.795  0.00  0.00    +0.009 C 
ENDBRANCH   3  19
ENDBRANCH   1   3
BRANCH   1  21
ATOM     21  O   UNL     1      -2.654   9.026  -2.614  0.00  0.00    -0.455 OA
BRANCH  21  22
ATOM     22  C   UNL     1      -2.744   9.457  -3.998  0.00  0.00    +0.311 C 
BRANCH  22  23
ATOM     23  C   UNL     1      -2.711  10.963  -4.059  0.00  0.00    +0.200 C 
ATOM     24  O   UNL     1      -2.621  11.609  -3.036  0.00  0.00    -0.288 OA
BRANCH  23  25
ATOM     25  C   UNL     1      -2.787  11.647  -5.354  0.00  0.00    +0.021 A 
ATOM     26  C   UNL     1      -2.886  10.902  -6.538  0.00  0.00    +0.013 A 
ATOM     27  C   UNL     1      -2.961  11.546  -7.738  0.00  0.00    +0.026 A 
ATOM     28  C   UNL     1      -2.928  12.940  -7.792  0.00  0.00    +0.054 A 
ATOM     29  C   UNL     1      -2.829  13.685  -6.622  0.00  0.00    -0.024 A 
ATOM     30  C   UNL     1      -2.757  13.044  -5.413  0.00  0.00    +0.017 A 
ATOM     31  C   UNL     1      -2.803  15.191  -6.648  0.00  0.00    +0.038 C 
ATOM     32  C   UNL     1      -2.389  15.694  -8.030  0.00  0.00    +0.025 C 
ATOM     33  C   UNL     1      -3.264  15.010  -9.088  0.00  0.00    +0.131 C 
ATOM     34  N   UNL     1      -2.993  13.568  -9.033  0.00  0.00    -0.207 N 
BRANCH  34  35
ATOM     35  S   UNL     1      -2.766  12.701 -10.425  0.00  0.00    +0.043 S 
ATOM     36  O   UNL     1      -2.467  13.676 -11.415  0.00  0.00    -0.155 OA
ATOM     37  O   UNL     1      -1.814  11.703 -10.081  0.00  0.00    -0.155 OA
ATOM     38  C   UNL     1      -4.375  11.937 -10.767  0.00  0.00    +0.218 C 
ENDBRANCH  34  35
ENDBRANCH  23  25
ENDBRANCH  22  23
ENDBRANCH  21  22
ENDBRANCH   1  21
TORSDOF 9
