REMARK  Name = ZINC41517442
REMARK  8 active torsions:
REMARK  status: ('A' for Active; 'I' for Inactive)
REMARK    1  A    between atoms: C_1  and  C_2
REMARK    2  A    between atoms: C_2  and  C_3
REMARK    3  A    between atoms: C_7  and  C_30
REMARK    4  A    between atoms: C_8  and  N_9
REMARK    5  A    between atoms: C_10  and  C_12
REMARK    6  A    between atoms: N_14  and  C_15
REMARK    7  A    between atoms: C_15  and  C_16
REMARK    8  A    between atoms: C_26  and  C_29
REMARK                            x       y       z     vdW  Elec       q    Type
REMARK                         _______ _______ _______ _____ _____    ______ ____
ROOT
ATOM      1  C   UNL     1      -1.229  -0.333  -4.873  0.00  0.00    +0.300 C 
ATOM      2  O   UNL     1      -0.097   0.103  -4.857  0.00  0.00    -0.265 OA
ATOM      3  N   UNL     1      -1.821  -0.630  -6.047  0.00  0.00    -0.303 N 
ATOM      4  H   UNL     1      -2.726  -0.979  -6.060  0.00  0.00    +0.149 HD
ENDROOT
BRANCH   1   6
ATOM      5  N   UNL     1      -1.376  -0.244  -2.417  0.00  0.00    -0.277 N 
ATOM      6  C   UNL     1      -1.968  -0.541  -3.591  0.00  0.00    +0.303 C 
ATOM      7  O   UNL     1      -3.100  -0.977  -3.607  0.00  0.00    -0.265 OA
ATOM      8  H   UNL     1      -0.490   0.151  -2.407  0.00  0.00    +0.155 HD
BRANCH   5  14
ATOM      9  C   UNL     1      -2.063   0.455  -0.211  0.00  0.00    -0.026 A 
ATOM     10  C   UNL     1      -2.724   0.196   0.974  0.00  0.00    +0.005 A 
ATOM     11  C   UNL     1      -3.357  -1.019   1.163  0.00  0.00    +0.001 A 
ATOM     12  C   UNL     1      -3.330  -1.979   0.167  0.00  0.00    +0.005 A 
ATOM     13  C   UNL     1      -2.671  -1.727  -1.019  0.00  0.00    -0.029 A 
ATOM     14  C   UNL     1      -2.039  -0.504  -1.215  0.00  0.00    +0.040 A 
ATOM     15  C   UNL     1      -2.641  -2.773  -2.103  0.00  0.00    +0.045 C 
BRANCH   9  17
ATOM     16  C   UNL     1      -2.315   2.736  -1.150  0.00  0.00    +0.009 C 
ATOM     17  C   UNL     1      -1.373   1.779  -0.416  0.00  0.00    +0.033 C 
ENDBRANCH   9  17
ENDBRANCH   5  14
ENDBRANCH   1   6
BRANCH   3  18
ATOM     18  C   UNL     1      -1.097  -0.427  -7.304  0.00  0.00    +0.141 C 
BRANCH  18  19
ATOM     19  C   UNL     1      -1.974  -0.833  -8.460  0.00  0.00    -0.014 A 
ATOM     20  C   UNL     1      -1.956  -2.140  -8.929  0.00  0.00    +0.010 A 
ATOM     21  C   UNL     1      -2.776  -2.471  -9.992  0.00  0.00    +0.042 A 
ATOM     22  C   UNL     1      -3.586  -1.489 -10.553  0.00  0.00    +0.099 A 
ATOM     23  N   UNL     1      -3.574  -0.253 -10.078  0.00  0.00    -0.349 N 
ATOM     24  C   UNL     1      -2.806   0.090  -9.061  0.00  0.00    +0.089 A 
ATOM     25  N   UNL     1      -4.415  -1.808 -11.623  0.00  0.00    -0.312 N 
ATOM     26  C   UNL     1      -5.378  -0.830 -12.153  0.00  0.00    +0.134 C 
ATOM     27  C   UNL     1      -5.196  -0.746 -13.672  0.00  0.00    +0.179 C 
ATOM     28  O   UNL     1      -5.257  -2.062 -14.227  0.00  0.00    -0.374 OA
ATOM     29  C   UNL     1      -4.222  -2.938 -13.773  0.00  0.00    +0.132 C 
ATOM     30  C   UNL     1      -4.351  -3.132 -12.262  0.00  0.00    +0.137 C 
ATOM     31  C   UNL     1      -4.351  -4.290 -14.478  0.00  0.00    +0.039 C 
ATOM     32  H   UNL     1      -4.146   0.416 -10.486  0.00  0.00    +0.167 HD
ENDBRANCH  18  19
ENDBRANCH   3  18
TORSDOF 5
