REMARK  Name = ZINC48733409
REMARK  12 active torsions:
REMARK  status: ('A' for Active; 'I' for Inactive)
REMARK    1  A    between atoms: C_1  and  N_2
REMARK    2  A    between atoms: N_2  and  C_3
REMARK    3  A    between atoms: N_2  and  C_4
REMARK    4  A    between atoms: C_4  and  C_6
REMARK    5  A    between atoms: C_4  and  C_24
REMARK    6  A    between atoms: C_6  and  N_7
REMARK    7  A    between atoms: C_8  and  C_10
REMARK    8  A    between atoms: N_12  and  C_13
REMARK    9  A    between atoms: C_15  and  O_22
REMARK   10  A    between atoms: C_18  and  O_19
REMARK   11  A    between atoms: O_19  and  C_20
REMARK   12  A    between atoms: O_22  and  C_23
REMARK                            x       y       z     vdW  Elec       q    Type
REMARK                         _______ _______ _______ _____ _____    ______ ____
ROOT
ATOM      1  N   UNL     1      -1.647   1.281  -1.439  0.00  0.00    -0.309 N 
ATOM      2  C   UNL     1      -2.050   1.913  -2.559  0.00  0.00    +0.299 C 
ATOM      3  O   UNL     1      -2.647   1.300  -3.420  0.00  0.00    -0.265 OA
ATOM      4  H   UNL     1      -1.169   1.771  -0.751  0.00  0.00    +0.149 HD
ENDROOT
BRANCH   2   5
ATOM      5  C   UNL     1      -1.761   3.367  -2.741  0.00  0.00    +0.303 C 
ATOM      6  O   UNL     1      -1.163   3.979  -1.880  0.00  0.00    -0.265 OA
ATOM      7  N   UNL     1      -2.163   3.999  -3.862  0.00  0.00    -0.275 N 
ATOM      8  H   UNL     1      -2.703   3.528  -4.516  0.00  0.00    +0.155 HD
BRANCH   7   9
ATOM      9  C   UNL     1      -1.804   5.333  -4.080  0.00  0.00    +0.079 A 
ATOM     10  C   UNL     1      -0.581   5.807  -3.624  0.00  0.00    +0.074 A 
ATOM     11  C   UNL     1      -0.228   7.129  -3.842  0.00  0.00    +0.140 A 
ATOM     12  C   UNL     1      -1.095   7.979  -4.515  0.00  0.00    +0.086 A 
ATOM     13  C   UNL     1      -2.314   7.509  -4.970  0.00  0.00    +0.071 A 
ATOM     14  C   UNL     1      -2.670   6.187  -4.760  0.00  0.00    +0.143 A 
ATOM     15 CL   UNL     1      -0.649   9.635  -4.785  0.00  0.00    -0.080 Cl
BRANCH  14  16
ATOM     16  O   UNL     1      -3.866   5.724  -5.213  0.00  0.00    -0.493 OA
ATOM     17  C   UNL     1      -4.703   6.655  -5.901  0.00  0.00    +0.277 C 
ENDBRANCH  14  16
BRANCH  11  18
ATOM     18  O   UNL     1       0.970   7.594  -3.396  0.00  0.00    -0.494 OA
ATOM     19  C   UNL     1       1.813   6.665  -2.712  0.00  0.00    +0.277 C 
ENDBRANCH  11  18
ENDBRANCH   7   9
ENDBRANCH   2   5
BRANCH   1  20
ATOM     20  C   UNL     1      -1.930  -0.145  -1.260  0.00  0.00    +0.097 C 
BRANCH  20  21
ATOM     21  C   UNL     1      -1.264  -0.640   0.025  0.00  0.00    +0.016 C 
BRANCH  21  22
ATOM     22  C   UNL     1       0.233  -0.544  -0.115  0.00  0.00    +0.093 A 
ATOM     23  C   UNL     1       1.062  -1.559  -0.417  0.00  0.00    +0.043 A 
ATOM     24  C   UNL     1       2.371  -1.025  -0.446  0.00  0.00    +0.041 A 
ATOM     25  C   UNL     1       2.264   0.285  -0.160  0.00  0.00    +0.195 A 
ATOM     26  O   UNL     1       0.966   0.572   0.034  0.00  0.00    -0.469 OA
ENDBRANCH  21  22
BRANCH  21  28
ATOM     27  C   UNL     1      -3.148   0.013   1.359  0.00  0.00    -0.096 C 
ATOM     28  N   UNL     1      -1.704   0.189   1.155  0.00  0.00    +0.384 N 
ATOM     29  C   UNL     1      -0.986  -0.218   2.370  0.00  0.00    -0.096 C 
ATOM     30  H   UNL     1      -1.508   1.159   0.958  0.00  0.00    -0.082 HD
ENDBRANCH  21  28
ENDBRANCH  20  21
ENDBRANCH   1  20
TORSDOF 8
