REMARK  Name = ZINC14880856
REMARK  9 active torsions:
REMARK  status: ('A' for Active; 'I' for Inactive)
REMARK    1  A    between atoms: C_4  and  C_7
REMARK    2  A    between atoms: C_7  and  C_9
REMARK    3  A    between atoms: C_9  and  C_10
REMARK    4  A    between atoms: C_10  and  C_11
REMARK    5  A    between atoms: N_13  and  C_14
REMARK    6  A    between atoms: N_17  and  C_19
REMARK    7  A    between atoms: C_19  and  C_20
REMARK    8  A    between atoms: N_22  and  C_23
REMARK    9  A    between atoms: C_23  and  C_24
REMARK                            x       y       z     vdW  Elec       q    Type
REMARK                         _______ _______ _______ _____ _____    ______ ____
ROOT
ATOM      1  C   UNL     1      -3.478  -5.115   0.008  0.00  0.00    +0.071 A 
ATOM      2  C   UNL     1      -4.768  -4.564   0.023  0.00  0.00    +0.157 A 
ATOM      3  N   UNL     1      -5.635  -5.544   0.025  0.00  0.00    -0.177 NA
ATOM      4  N   UNL     1      -4.931  -6.755   0.012  0.00  0.00    -0.261 N 
ATOM      5  C   UNL     1      -3.604  -6.466  -0.004  0.00  0.00    +0.132 A 
ENDROOT
BRANCH   1   8
ATOM      6  C   UNL     1      -2.287  -3.047   0.007  0.00  0.00    +0.218 C 
ATOM      7  O   UNL     1      -3.346  -2.455   0.021  0.00  0.00    -0.275 OA
ATOM      8  N   UNL     1      -2.269  -4.394   0.000  0.00  0.00    -0.283 N 
ATOM      9  H   UNL     1      -1.423  -4.868  -0.011  0.00  0.00    +0.155 HD
BRANCH   6  10
ATOM     10  C   UNL     1      -0.993  -2.276  -0.001  0.00  0.00    +0.104 C 
BRANCH  10  11
ATOM     11  C   UNL     1      -1.293  -0.775   0.010  0.00  0.00    +0.089 C 
BRANCH  11  12
ATOM     12  C   UNL     1       0.002  -0.004   0.002  0.00  0.00    +0.164 C 
ATOM     13  O   UNL     1       1.060  -0.596  -0.011  0.00  0.00    -0.292 OA
BRANCH  12  17
ATOM     14  C   UNL     1      -0.056   4.237   0.025  0.00  0.00    +0.000 A 
ATOM     15  C   UNL     1       1.154   3.565   0.010  0.00  0.00    +0.001 A 
ATOM     16  C   UNL     1       1.181   2.187   0.003  0.00  0.00    +0.011 A 
ATOM     17  C   UNL     1      -0.018   1.467   0.010  0.00  0.00    +0.017 A 
ATOM     18  C   UNL     1      -1.236   2.154   0.020  0.00  0.00    +0.011 A 
ATOM     19  C   UNL     1      -1.247   3.533   0.032  0.00  0.00    +0.001 A 
ENDBRANCH  12  17
ENDBRANCH  11  12
ENDBRANCH  10  11
ENDBRANCH   6  10
ENDBRANCH   1   8
BRANCH   4  20
ATOM     20  C   UNL     1      -5.522  -8.095   0.010  0.00  0.00    +0.239 C 
BRANCH  20  21
ATOM     21  C   UNL     1      -6.460  -8.232   1.181  0.00  0.00    +0.235 C 
ATOM     22  O   UNL     1      -6.620  -7.302   1.943  0.00  0.00    -0.274 OA
ATOM     23  N   UNL     1      -7.122  -9.389   1.382  0.00  0.00    -0.310 N 
ATOM     24  H   UNL     1      -6.995 -10.133   0.773  0.00  0.00    +0.149 HD
BRANCH  23  25
ATOM     25  C   UNL     1      -8.034  -9.523   2.521  0.00  0.00    +0.152 C 
BRANCH  25  26
ATOM     26  C   UNL     1      -8.652 -10.922   2.519  0.00  0.00    +0.228 C 
ATOM     27  C   UNL     1      -9.631 -11.058   3.692  0.00  0.00    +0.275 C 
ATOM     28  O   UNL     1     -10.199 -12.372   3.652  0.00  0.00    -0.485 OA
ATOM     29  C   UNL     1     -10.638 -12.812   2.442  0.00  0.00    +0.162 A 
ATOM     30  C   UNL     1     -11.505 -13.893   2.383  0.00  0.00    +0.049 A 
ATOM     31  C   UNL     1     -11.956 -14.353   1.161  0.00  0.00    +0.004 A 
ATOM     32  C   UNL     1     -11.544 -13.739  -0.007  0.00  0.00    +0.004 A 
ATOM     33  C   UNL     1     -10.681 -12.661   0.044  0.00  0.00    +0.049 A 
ATOM     34  C   UNL     1     -10.225 -12.193   1.268  0.00  0.00    +0.163 A 
ATOM     35  O   UNL     1      -9.378 -11.128   1.302  0.00  0.00    -0.480 OA
ENDBRANCH  25  26
ENDBRANCH  23  25
ENDBRANCH  20  21
ENDBRANCH   4  20
TORSDOF 9
