REMARK  Name = ZINC66956897
REMARK  5 active torsions:
REMARK  status: ('A' for Active; 'I' for Inactive)
REMARK    1  A    between atoms: C_1  and  C_2
REMARK    2  A    between atoms: C_5  and  C_7
REMARK    3  A    between atoms: C_7  and  N_8
REMARK    4  A    between atoms: N_11  and  C_12
REMARK    5  A    between atoms: C_15  and  C_18
REMARK                            x       y       z     vdW  Elec       q    Type
REMARK                         _______ _______ _______ _____ _____    ______ ____
ROOT
ATOM      1  C   UNL     1      -3.104  -5.345   5.063  0.00  0.00    +0.035 A 
ATOM      2  C   UNL     1      -2.079  -5.868   5.842  0.00  0.00    +0.024 A 
ATOM      3  C   UNL     1      -2.362  -6.784   6.832  0.00  0.00    +0.013 A 
ATOM      4  C   UNL     1      -3.680  -7.186   7.052  0.00  0.00    +0.019 A 
ATOM      5  C   UNL     1      -4.708  -6.659   6.268  0.00  0.00    +0.013 A 
ATOM      6  C   UNL     1      -4.419  -5.739   5.283  0.00  0.00    +0.024 A 
ENDROOT
BRANCH   4   7
ATOM      7  C   UNL     1      -3.987  -8.169   8.113  0.00  0.00    +0.164 A 
ATOM      8  N   UNL     1      -5.094  -8.875   8.235  0.00  0.00    -0.129 NA
ATOM      9  N   UNL     1      -5.017  -9.631   9.276  0.00  0.00    -0.134 NA
ATOM     10  C   UNL     1      -3.874  -9.454   9.867  0.00  0.00    +0.134 A 
ATOM     11  N   UNL     1      -3.180  -8.524   9.149  0.00  0.00    -0.311 N 
ATOM     12  C   UNL     1      -1.840  -8.042   9.479  0.00  0.00    +0.125 C 
ATOM     13  C   UNL     1      -1.531  -8.410  10.936  0.00  0.00    +0.022 C 
ATOM     14  C   UNL     1      -1.826  -9.895  11.165  0.00  0.00    +0.009 C 
ATOM     15  C   UNL     1      -3.345 -10.122  11.112  0.00  0.00    +0.076 C 
ENDBRANCH   4   7
BRANCH   1  19
ATOM     16  N   UNL     1      -1.435  -3.686   2.323  0.00  0.00    -0.293 N 
ATOM     17  C   UNL     1      -1.673  -4.525   3.351  0.00  0.00    +0.304 C 
ATOM     18  O   UNL     1      -0.857  -5.379   3.639  0.00  0.00    -0.252 OA
ATOM     19  N   UNL     1      -2.814  -4.416   4.059  0.00  0.00    -0.269 N 
ATOM     20  H   UNL     1      -2.086  -3.004   2.093  0.00  0.00    +0.151 HD
ATOM     21  H   UNL     1      -3.434  -3.694   3.872  0.00  0.00    +0.156 HD
BRANCH  16  22
ATOM     22  C   UNL     1      -0.194  -3.804   1.553  0.00  0.00    +0.168 C 
BRANCH  22  27
ATOM     23  C   UNL     1       0.782   0.674  -0.458  0.00  0.00    +0.066 C 
ATOM     24  C   UNL     1       0.241  -0.731  -0.518  0.00  0.00    +0.046 A 
ATOM     25  C   UNL     1      -0.326  -1.226  -1.648  0.00  0.00    +0.070 A 
ATOM     26  S   UNL     1      -0.753  -2.873  -1.108  0.00  0.00    -0.079 S 
ATOM     27  C   UNL     1      -0.175  -2.757   0.469  0.00  0.00    +0.096 A 
ATOM     28  N   UNL     1       0.301  -1.538   0.523  0.00  0.00    -0.248 NA
ENDBRANCH  22  27
ENDBRANCH  16  22
ENDBRANCH   1  19
TORSDOF 4
