REMARK  Name = ZINC67280599
REMARK  10 active torsions:
REMARK  status: ('A' for Active; 'I' for Inactive)
REMARK    1  A    between atoms: C_1  and  C_2
REMARK    2  A    between atoms: C_5  and  N_10
REMARK    3  A    between atoms: C_6  and  O_8
REMARK    4  A    between atoms: O_8  and  C_9
REMARK    5  A    between atoms: N_13  and  C_14
REMARK    6  A    between atoms: C_14  and  C_16
REMARK    7  A    between atoms: C_14  and  C_17
REMARK    8  A    between atoms: C_21  and  S_23
REMARK    9  A    between atoms: S_23  and  N_26
REMARK   10  A    between atoms: N_26  and  C_27
REMARK                            x       y       z     vdW  Elec       q    Type
REMARK                         _______ _______ _______ _____ _____    ______ ____
ROOT
ATOM      1  N   UNL     1       0.058  -4.175  -0.031  0.00  0.00    -0.266 N 
ATOM      2  C   UNL     1      -0.041  -4.841  -1.198  0.00  0.00    +0.304 C 
ATOM      3  O   UNL     1      -0.054  -4.228  -2.248  0.00  0.00    -0.252 OA
ATOM      4  N   UNL     1      -0.124  -6.186  -1.202  0.00  0.00    -0.293 N 
ATOM      5  H   UNL     1       0.151  -4.666   0.801  0.00  0.00    +0.156 HD
ATOM      6  H   UNL     1      -0.114  -6.675  -0.364  0.00  0.00    +0.151 HD
ENDROOT
BRANCH   1  11
ATOM      7  C   UNL     1      -0.075   1.502   0.017  0.00  0.00    +0.044 C 
ATOM      8  C   UNL     1      -0.038  -0.005   0.006  0.00  0.00    -0.047 A 
ATOM      9  C   UNL     1      -0.627  -0.702  -1.032  0.00  0.00    +0.005 A 
ATOM     10  C   UNL     1      -0.597  -2.083  -1.047  0.00  0.00    +0.027 A 
ATOM     11  C   UNL     1       0.026  -2.774  -0.018  0.00  0.00    +0.077 A 
ATOM     12  C   UNL     1       0.619  -2.071   1.028  0.00  0.00    +0.141 A 
ATOM     13  C   UNL     1       0.589  -0.686   1.033  0.00  0.00    +0.051 A 
BRANCH  12  14
ATOM     14  O   UNL     1       1.231  -2.743   2.040  0.00  0.00    -0.493 OA
ATOM     15  C   UNL     1       1.817  -1.957   3.079  0.00  0.00    +0.277 C 
ENDBRANCH  12  14
ENDBRANCH   1  11
BRANCH   4  16
ATOM     16  C   UNL     1      -0.232  -6.910  -2.471  0.00  0.00    +0.102 C 
ATOM     17  C   UNL     1       1.167  -7.142  -3.046  0.00  0.00    +0.033 C 
BRANCH  16  18
ATOM     18  C   UNL     1      -0.905  -8.238  -2.237  0.00  0.00    -0.026 A 
ATOM     19  C   UNL     1      -0.606  -8.975  -1.106  0.00  0.00    +0.005 A 
ATOM     20  C   UNL     1      -1.223 -10.192  -0.891  0.00  0.00    +0.002 A 
ATOM     21  C   UNL     1      -2.140 -10.673  -1.807  0.00  0.00    +0.028 A 
ATOM     22  C   UNL     1      -2.440  -9.936  -2.938  0.00  0.00    +0.106 A 
ATOM     23  C   UNL     1      -1.825  -8.716  -3.150  0.00  0.00    +0.034 A 
BRANCH  22  24
ATOM     24  S   UNL     1      -3.608 -10.550  -4.105  0.00  0.00    +0.058 S 
ATOM     25  O   UNL     1      -3.307  -9.928  -5.346  0.00  0.00    -0.153 OA
ATOM     26  O   UNL     1      -3.637 -11.962  -3.948  0.00  0.00    -0.153 OA
BRANCH  24  27
ATOM     27  N   UNL     1      -5.098  -9.992  -3.646  0.00  0.00    -0.193 NA
ATOM     28  C   UNL     1      -5.382  -8.555  -3.671  0.00  0.00    +0.127 C 
ATOM     29  H   UNL     1      -5.783 -10.617  -3.361  0.00  0.00    +0.148 HD
ENDBRANCH  24  27
ENDBRANCH  22  24
ENDBRANCH  16  18
ENDBRANCH   4  16
TORSDOF 6
