REMARK  Name = ZINC28466462
REMARK  7 active torsions:
REMARK  status: ('A' for Active; 'I' for Inactive)
REMARK    1  A    between atoms: C_1  and  C_2
REMARK    2  A    between atoms: C_2  and  N_3
REMARK    3  A    between atoms: C_7  and  C_20
REMARK    4  A    between atoms: C_11  and  O_19
REMARK    5  A    between atoms: C_13  and  C_17
REMARK    6  A    between atoms: C_13  and  C_18
REMARK    7  A    between atoms: C_24  and  C_26
REMARK                            x       y       z     vdW  Elec       q    Type
REMARK                         _______ _______ _______ _____ _____    ______ ____
ROOT
ATOM      1  N   UNL     1       5.454   4.262   0.084  0.00  0.00    -0.257 N 
ATOM      2  C   UNL     1       4.517   4.270  -0.879  0.00  0.00    +0.305 C 
ATOM      3  O   UNL     1       4.512   5.163  -1.697  0.00  0.00    -0.253 OA
ATOM      4  N   UNL     1       3.610   3.282  -0.988  0.00  0.00    -0.292 N 
ATOM      5  C   UNL     1       3.666   2.179  -0.022  0.00  0.00    +0.119 C 
ATOM      6  C   UNL     1       3.954   2.785   1.352  0.00  0.00    +0.130 C 
ATOM      7  C   UNL     1       5.327   3.470   1.304  0.00  0.00    +0.148 C 
ATOM      8  C   UNL     1       5.578   4.281   2.562  0.00  0.00    +0.062 C 
ATOM      9  C   UNL     1       4.479   5.255   2.954  0.00  0.00    -0.024 C 
ATOM     10  C   UNL     1       3.114   4.562   3.009  0.00  0.00    +0.081 C 
ATOM     11  C   UNL     1       2.919   3.828   1.697  0.00  0.00    +0.143 C 
ATOM     12  O   UNL     1       1.986   4.091   0.984  0.00  0.00    -0.297 OA
ATOM     13  C   UNL     1       4.412   6.435   1.984  0.00  0.00    +0.011 C 
ATOM     14  C   UNL     1       4.792   5.807   4.357  0.00  0.00    +0.011 C 
ATOM     15  H   UNL     1       2.840   3.286  -1.774  0.00  0.00    +0.151 HD
ENDROOT
BRANCH   5  16
ATOM     16  C   UNL     1       2.377   1.411  -0.015  0.00  0.00    -0.026 A 
ATOM     17  C   UNL     1       2.364   0.086   0.381  0.00  0.00    +0.005 A 
ATOM     18  C   UNL     1       1.177  -0.622   0.388  0.00  0.00    +0.001 A 
ATOM     19  C   UNL     1       0.002  -0.005  -0.002  0.00  0.00    +0.012 A 
ATOM     20  C   UNL     1       0.016   1.319  -0.399  0.00  0.00    +0.055 A 
ATOM     21  C   UNL     1       1.204   2.027  -0.405  0.00  0.00    +0.017 A 
BRANCH  20  22
ATOM     22  C   UNL     1      -1.264   1.991  -0.825  0.00  0.00    +0.417 C 
ATOM     23  F   UNL     1      -2.322   1.080  -0.735  0.00  0.00    -0.166 F 
ATOM     24  F   UNL     1      -1.518   3.084   0.011  0.00  0.00    -0.166 F 
ATOM     25  F   UNL     1      -1.141   2.434  -2.146  0.00  0.00    -0.166 F 
ENDBRANCH  20  22
ENDBRANCH   5  16
BRANCH   1  27
ATOM     26  C   UNL     1       7.696   4.189  -0.900  0.00  0.00    +0.024 C 
ATOM     27  C   UNL     1       6.675   5.045  -0.149  0.00  0.00    +0.109 C 
ENDBRANCH   1  27
BRANCH   7  28
ATOM     28  O   UNL     1       6.324   2.426   1.245  0.00  0.00    -0.371 OA
ATOM     29  H   UNL     1       6.412   1.702   2.069  0.00  0.00    +0.212 HD
ENDBRANCH   7  28
TORSDOF 4
