REMARK  Name = ZINC22313484
REMARK  8 active torsions:
REMARK  status: ('A' for Active; 'I' for Inactive)
REMARK    1  A    between atoms: C_1  and  C_2
REMARK    2  A    between atoms: C_4  and  C_27
REMARK    3  A    between atoms: C_8  and  N_26
REMARK    4  A    between atoms: C_9  and  C_11
REMARK    5  A    between atoms: C_11  and  O_13
REMARK    6  A    between atoms: O_13  and  C_14
REMARK    7  A    between atoms: C_14  and  C_15
REMARK    8  A    between atoms: C_20  and  C_23
REMARK                            x       y       z     vdW  Elec       q    Type
REMARK                         _______ _______ _______ _____ _____    ______ ____
ROOT
ATOM      1  C   UNL     1      -1.900   4.780  -0.097  0.00  0.00    +0.348 C 
ATOM      2  O   UNL     1      -3.091   4.529  -0.098  0.00  0.00    -0.244 OA
ENDROOT
BRANCH   1  11
ATOM      3  C   UNL     1      -1.325  -0.721   0.041  0.00  0.00    +0.044 C 
ATOM      4  C   UNL     1      -0.034   0.055   0.030  0.00  0.00    -0.037 A 
ATOM      5  C   UNL     1       1.175  -0.601   0.053  0.00  0.00    +0.025 A 
ATOM      6  C   UNL     1       2.362   0.116   0.044  0.00  0.00    +0.014 A 
ATOM      7  N   UNL     1       2.347   1.435   0.012  0.00  0.00    -0.353 N 
ATOM      8  C   UNL     1       1.216   2.107  -0.012  0.00  0.00    +0.088 A 
ATOM      9  C   UNL     1      -0.046   1.471  -0.005  0.00  0.00    +0.030 A 
ATOM     10  C   UNL     1      -1.191   2.369  -0.040  0.00  0.00    +0.055 A 
ATOM     11  C   UNL     1      -0.956   3.727  -0.065  0.00  0.00    +0.119 A 
ATOM     12  S   UNL     1       0.823   3.838  -0.057  0.00  0.00    -0.062 S 
ATOM     13  C   UNL     1       3.679  -0.616   0.070  0.00  0.00    +0.063 C 
ATOM     14  H   UNL     1       3.293   1.996   0.004  0.00  0.00    +0.166 HD
BRANCH  10  15
ATOM     15  N   UNL     1      -2.485   1.871  -0.043  0.00  0.00    -0.356 N 
ATOM     16  H   UNL     1      -3.340   2.562  -0.069  0.00  0.00    +0.142 HD
ATOM     17  H   UNL     1      -2.656   0.785  -0.019  0.00  0.00    +0.142 HD
ENDBRANCH  10  15
ENDBRANCH   1  11
BRANCH   1  18
ATOM     18  O   UNL     1      -1.480   6.063  -0.124  0.00  0.00    -0.451 OA
BRANCH  18  19
ATOM     19  C   UNL     1      -2.488   7.075  -0.155  0.00  0.00    +0.328 C 
BRANCH  19  20
ATOM     20  C   UNL     1      -1.836   8.433  -0.183  0.00  0.00    +0.253 C 
ATOM     21  O   UNL     1      -0.627   8.525  -0.178  0.00  0.00    -0.272 OA
ATOM     22  N   UNL     1      -2.596   9.545  -0.215  0.00  0.00    -0.299 N 
ATOM     23  C   UNL     1      -4.062   9.450  -0.229  0.00  0.00    +0.108 C 
ATOM     24  C   UNL     1      -4.602  10.248  -1.414  0.00  0.00    +0.032 C 
ATOM     25  C   UNL     1      -4.066  11.680  -1.348  0.00  0.00    +0.078 C 
ATOM     26  C   UNL     1      -2.538  11.659  -1.433  0.00  0.00    +0.032 C 
ATOM     27  C   UNL     1      -1.975  10.876  -0.243  0.00  0.00    +0.108 C 
BRANCH  25  28
ATOM     28  C   UNL     1      -4.622  12.478  -2.499  0.00  0.00    +0.214 C 
ATOM     29  O   UNL     1      -3.871  12.980  -3.308  0.00  0.00    -0.276 OA
ATOM     30  N   UNL     1      -5.954  12.633  -2.630  0.00  0.00    -0.329 N 
ATOM     31  H   UNL     1      -6.360  13.216  -3.471  0.00  0.00    +0.145 HD
ATOM     32  H   UNL     1      -6.636  12.178  -1.897  0.00  0.00    +0.145 HD
ENDBRANCH  25  28
ENDBRANCH  19  20
ENDBRANCH  18  19
ENDBRANCH   1  18
TORSDOF 6
