REMARK  Name = ZINC66327532
REMARK  6 active torsions:
REMARK  status: ('A' for Active; 'I' for Inactive)
REMARK    1  A    between atoms: C_4  and  C_7
REMARK    2  A    between atoms: C_7  and  C_9
REMARK    3  A    between atoms: C_7  and  N_12
REMARK    4  A    between atoms: N_12  and  S_13
REMARK    5  A    between atoms: S_13  and  C_16
REMARK    6  A    between atoms: C_19  and  N_21
REMARK                            x       y       z     vdW  Elec       q    Type
REMARK                         _______ _______ _______ _____ _____    ______ ____
ROOT
ATOM      1  N   UNL     1       3.611  -1.865  -0.930  0.00  0.00    -0.173 NA
ATOM      2  H   UNL     1       2.778  -2.356  -0.996  0.00  0.00    +0.149 HD
ENDROOT
BRANCH   1   3
ATOM      3  S   UNL     1       4.922  -2.334  -1.827  0.00  0.00    +0.066 S 
ATOM      4  O   UNL     1       4.523  -3.485  -2.559  0.00  0.00    -0.153 OA
ATOM      5  O   UNL     1       5.422  -1.164  -2.459  0.00  0.00    -0.153 OA
BRANCH   3   6
ATOM      6  C   UNL     1       6.165  -2.864  -0.695  0.00  0.00    +0.145 A 
ATOM      7  C   UNL     1       6.390  -4.103  -0.193  0.00  0.00    +0.038 A 
ATOM      8  C   UNL     1       7.435  -4.287   0.692  0.00  0.00    +0.042 A 
ATOM      9  C   UNL     1       8.205  -3.225   1.032  0.00  0.00    +0.165 A 
ATOM     10  S   UNL     1       7.458  -1.910   0.082  0.00  0.00    -0.045 S 
BRANCH   9  11
ATOM     11  N   UNL     1       9.367  -3.169   1.948  0.00  0.00    +0.063 N 
ATOM     12  O   UNL     1       9.742  -4.172   2.509  0.00  0.00    -0.126 OA
ATOM     13  O   UNL     1       9.940  -2.122   2.134  0.00  0.00    -0.126 OA
ENDBRANCH   9  11
ENDBRANCH   3   6
ENDBRANCH   1   3
BRANCH   1  14
ATOM     14  C   UNL     1       3.711  -0.707  -0.038  0.00  0.00    +0.192 C 
BRANCH  14  18
ATOM     15  C   UNL     1      -0.017   1.378   0.010  0.00  0.00    +0.000 A 
ATOM     16  C   UNL     1       1.171   2.086   0.002  0.00  0.00    +0.000 A 
ATOM     17  C   UNL     1       2.377   1.411  -0.013  0.00  0.00    +0.006 A 
ATOM     18  C   UNL     1       2.396   0.029  -0.020  0.00  0.00    -0.020 A 
ATOM     19  C   UNL     1       1.208  -0.679  -0.012  0.00  0.00    +0.006 A 
ATOM     20  C   UNL     1       0.002  -0.004   0.002  0.00  0.00    +0.000 A 
ENDBRANCH  14  18
BRANCH  14  21
ATOM     21  C   UNL     1       4.044  -1.175   1.356  0.00  0.00    +0.234 C 
ATOM     22  O   UNL     1       4.184  -2.358   1.581  0.00  0.00    -0.274 OA
ATOM     23  N   UNL     1       4.186  -0.278   2.352  0.00  0.00    -0.328 N 
ATOM     24  H   UNL     1       4.074   0.669   2.172  0.00  0.00    +0.145 HD
ATOM     25  H   UNL     1       4.400  -0.579   3.249  0.00  0.00    +0.145 HD
ENDBRANCH  14  21
ENDBRANCH   1  14
TORSDOF 6
