REMARK  Name = ZINC63162504
REMARK  7 active torsions:
REMARK  status: ('A' for Active; 'I' for Inactive)
REMARK    1  A    between atoms: C_1  and  C_2
REMARK    2  A    between atoms: C_2  and  C_26
REMARK    3  A    between atoms: C_4  and  N_10
REMARK    4  A    between atoms: C_6  and  C_8
REMARK    5  A    between atoms: C_6  and  C_9
REMARK    6  A    between atoms: N_13  and  C_14
REMARK    7  A    between atoms: C_16  and  C_22
REMARK                            x       y       z     vdW  Elec       q    Type
REMARK                         _______ _______ _______ _____ _____    ______ ____
ROOT
ATOM      1  N   UNL     1       2.714  -0.927  -2.538  0.00  0.00    -0.296 N 
ATOM      2  C   UNL     1       3.868  -0.452  -3.047  0.00  0.00    +0.304 C 
ATOM      3  O   UNL     1       4.560   0.298  -2.387  0.00  0.00    -0.252 OA
ATOM      4  N   UNL     1       4.255  -0.809  -4.288  0.00  0.00    -0.265 N 
ATOM      5  H   UNL     1       2.161  -1.526  -3.065  0.00  0.00    +0.151 HD
ATOM      6  H   UNL     1       3.741  -1.465  -4.786  0.00  0.00    +0.157 HD
ENDROOT
BRANCH   1  10
ATOM      7  C   UNL     1       0.387   1.230   0.517  0.00  0.00    -0.010 C 
ATOM      8  C   UNL     1       0.309  -0.289   0.327  0.00  0.00    -0.072 C 
ATOM      9  C   UNL     1       0.772  -0.657  -1.079  0.00  0.00    +0.009 C 
ATOM     10  C   UNL     1       2.292  -0.538  -1.187  0.00  0.00    +0.072 C 
ATOM     11  C   UNL     1       2.919  -1.491  -0.170  0.00  0.00    +0.009 C 
ATOM     12  C   UNL     1       2.472  -1.130   1.243  0.00  0.00    -0.072 C 
ATOM     13  N   UNL     1       1.032  -0.990   1.373  0.00  0.00    +0.386 N 
ATOM     14  C   UNL     1       3.198   0.136   1.709  0.00  0.00    -0.010 C 
ATOM     15  C   UNL     1       2.919  -2.278   2.177  0.00  0.00    -0.010 C 
ATOM     16  C   UNL     1      -1.182  -0.683   0.440  0.00  0.00    -0.010 C 
ATOM     17  H   UNL     1       0.833  -0.528   2.266  0.00  0.00    -0.084 HD
ATOM     18  H   UNL     1       0.627  -1.927   1.469  0.00  0.00    -0.084 HD
ENDBRANCH   1  10
BRANCH   4  19
ATOM     19  C   UNL     1       5.399  -0.234  -4.859  0.00  0.00    +0.100 A 
ATOM     20  C   UNL     1       6.441  -1.021  -5.265  0.00  0.00    +0.042 A 
ATOM     21  C   UNL     1       7.573  -0.420  -5.833  0.00  0.00    +0.073 A 
ATOM     22  C   UNL     1       7.626   0.924  -5.974  0.00  0.00    +0.098 A 
ATOM     23  N   UNL     1       6.592   1.709  -5.571  0.00  0.00    -0.327 N 
ATOM     24  H   UNL     1       6.649   2.671  -5.681  0.00  0.00    +0.168 HD
ATOM     25  C   UNL     1       5.486   1.165  -5.027  0.00  0.00    +0.270 A 
ATOM     26  O   UNL     1       4.563   1.882  -4.675  0.00  0.00    -0.266 OA
BRANCH  21  27
ATOM     27  C   UNL     1       8.731  -1.272  -6.286  0.00  0.00    +0.419 C 
ATOM     28  F   UNL     1       9.734  -0.452  -6.814  0.00  0.00    -0.166 F 
ATOM     29  F   UNL     1       9.239  -1.986  -5.195  0.00  0.00    -0.166 F 
ATOM     30  F   UNL     1       8.295  -2.167  -7.268  0.00  0.00    -0.166 F 
ENDBRANCH  21  27
ENDBRANCH   4  19
TORSDOF 3
