REMARK  Name = ZINC14653834
REMARK  11 active torsions:
REMARK  status: ('A' for Active; 'I' for Inactive)
REMARK    1  A    between atoms: C_1  and  C_2
REMARK    2  A    between atoms: C_5  and  O_20
REMARK    3  A    between atoms: C_6  and  C_10
REMARK    4  A    between atoms: C_7  and  O_8
REMARK    5  A    between atoms: O_8  and  C_9
REMARK    6  A    between atoms: C_10  and  C_11
REMARK    7  A    between atoms: C_12  and  C_13
REMARK    8  A    between atoms: C_12  and  C_14
REMARK    9  A    between atoms: C_14  and  C_16
REMARK   10  A    between atoms: C_14  and  O_19
REMARK   11  A    between atoms: C_16  and  C_17
REMARK                            x       y       z     vdW  Elec       q    Type
REMARK                         _______ _______ _______ _____ _____    ______ ____
ROOT
ATOM      1  C   UNL     1       0.619   0.351   4.016  0.00  0.00    +0.048 C 
ATOM      2  C   UNL     1      -0.495   0.975   3.216  0.00  0.00    -0.001 A 
ATOM      3  C   UNL     1      -0.624   0.686   1.883  0.00  0.00    +0.014 A 
ATOM      4  C   UNL     1      -1.657   1.261   1.130  0.00  0.00    +0.107 A 
ATOM      5  C   UNL     1      -2.559   2.138   1.754  0.00  0.00    +0.138 A 
ATOM      6  C   UNL     1      -2.419   2.422   3.101  0.00  0.00    +0.040 A 
ATOM      7  C   UNL     1      -1.391   1.845   3.833  0.00  0.00    +0.130 A 
ATOM      8  C   UNL     1      -1.543   0.771  -0.250  0.00  0.00    +0.343 C 
ATOM      9  O   UNL     1      -2.288   1.079  -1.160  0.00  0.00    -0.245 OA
ATOM     10  O   UNL     1      -0.498  -0.066  -0.363  0.00  0.00    -0.456 OA
ATOM     11  C   UNL     1       0.152  -0.190   0.932  0.00  0.00    +0.269 C 
ENDROOT
BRANCH   7  12
ATOM     12  O   UNL     1      -1.259   2.129   5.153  0.00  0.00    -0.494 OA
ATOM     13  C   UNL     1      -1.848   1.211   6.076  0.00  0.00    +0.277 C 
ENDBRANCH   7  12
BRANCH   5  14
ATOM     14  O   UNL     1      -3.564   2.703   1.039  0.00  0.00    -0.506 OA
ATOM     15  H   UNL     1      -4.380   2.185   1.030  0.00  0.00    +0.292 HD
ENDBRANCH   5  14
BRANCH   6  16
ATOM     16  C   UNL     1      -3.385   3.362   3.775  0.00  0.00    +0.069 C 
BRANCH  16  17
ATOM     17  C   UNL     1      -4.621   2.603   4.185  0.00  0.00    -0.020 C 
ATOM     18  C   UNL     1      -5.801   3.009   3.787  0.00  0.00    -0.048 C 
ATOM     19  C   UNL     1      -5.938   4.308   3.036  0.00  0.00    +0.041 C 
BRANCH  18  20
ATOM     20  C   UNL     1      -7.022   2.176   4.081  0.00  0.00    +0.151 C 
BRANCH  20  21
ATOM     21  O   UNL     1      -7.714   1.899   2.862  0.00  0.00    -0.387 OA
ATOM     22  H   UNL     1      -8.014   2.688   2.391  0.00  0.00    +0.210 HD
ENDBRANCH  20  21
BRANCH  20  23
ATOM     23  C   UNL     1      -7.947   2.944   5.029  0.00  0.00    +0.160 C 
BRANCH  23  24
ATOM     24  C   UNL     1      -9.107   2.065   5.420  0.00  0.00    +0.359 C 
ATOM     25  O   UNL     1      -9.186   0.941   4.986  0.00  0.00    -0.246 OA
ATOM     26  O   UNL     1     -10.052   2.532   6.251  0.00  0.00    -0.246 OA
ENDBRANCH  23  24
ENDBRANCH  20  23
ENDBRANCH  18  20
ENDBRANCH  16  17
ENDBRANCH   6  16
TORSDOF 8
