REMARK  Name = ZINC50787317
REMARK  6 active torsions:
REMARK  status: ('A' for Active; 'I' for Inactive)
REMARK    1  A    between atoms: C_1  and  C_2
REMARK    2  A    between atoms: C_8  and  N_10
REMARK    3  A    between atoms: N_10  and  C_11
REMARK    4  A    between atoms: C_12  and  C_14
REMARK    5  A    between atoms: C_16  and  N_21
REMARK    6  A    between atoms: N_21  and  C_22
REMARK                            x       y       z     vdW  Elec       q    Type
REMARK                         _______ _______ _______ _____ _____    ______ ____
ROOT
ATOM      1  N   UNL     1       0.155  -0.169   2.649  0.00  0.00    -0.297 N 
ATOM      2  C   UNL     1      -1.207  -0.571   3.010  0.00  0.00    +0.132 C 
ATOM      3  C   UNL     1       0.850   0.656   3.457  0.00  0.00    +0.247 C 
ATOM      4  O   UNL     1       1.922   1.099   3.095  0.00  0.00    -0.270 OA
ENDROOT
BRANCH   1  11
ATOM      5  C   UNL     1      -0.277   1.226   0.148  0.00  0.00    +0.009 C 
ATOM      6  C   UNL     1      -0.132  -0.295   0.224  0.00  0.00    +0.006 C 
ATOM      7  C   UNL     1      -1.511  -0.931   0.406  0.00  0.00    +0.005 C 
ATOM      8  C   UNL     1      -1.366  -2.452   0.481  0.00  0.00    +0.000 C 
ATOM      9  C   UNL     1      -0.473  -2.821   1.668  0.00  0.00    +0.002 C 
ATOM     10  C   UNL     1       0.906  -2.185   1.486  0.00  0.00    +0.023 C 
ATOM     11  C   UNL     1       0.761  -0.664   1.411  0.00  0.00    +0.079 C 
ENDBRANCH   1  11
BRANCH   3  12
ATOM     12  C   UNL     1       0.307   1.023   4.786  0.00  0.00    +0.043 A 
ATOM     13  C   UNL     1       1.124   1.602   5.758  0.00  0.00    +0.056 A 
ATOM     14  C   UNL     1       0.573   1.931   6.992  0.00  0.00    +0.121 A 
ATOM     15  N   UNL     1      -0.706   1.700   7.244  0.00  0.00    -0.221 NA
ATOM     16  C   UNL     1      -1.507   1.154   6.349  0.00  0.00    +0.132 A 
ATOM     17  C   UNL     1      -1.039   0.803   5.097  0.00  0.00    +0.053 A 
ATOM     18 CL   UNL     1      -3.174   0.880   6.747  0.00  0.00    -0.062 Cl
BRANCH  14  19
ATOM     19  N   UNL     1       1.374   2.508   7.971  0.00  0.00    -0.332 N 
ATOM     20  C   UNL     1       2.790   2.767   7.699  0.00  0.00    +0.127 C 
ATOM     21  H   UNL     1       0.995   2.740   8.833  0.00  0.00    +0.147 HD
ENDBRANCH  14  19
ENDBRANCH   3  12
TORSDOF 3
