REMARK  Name = ZINC15972849
REMARK  5 active torsions:
REMARK  status: ('A' for Active; 'I' for Inactive)
REMARK    1  A    between atoms: C_1  and  C_2
REMARK    2  A    between atoms: C_2  and  C_4
REMARK    3  A    between atoms: C_2  and  O_34
REMARK    4  A    between atoms: N_12  and  C_15
REMARK    5  A    between atoms: C_15  and  C_16
REMARK                            x       y       z     vdW  Elec       q    Type
REMARK                         _______ _______ _______ _____ _____    ______ ____
ROOT
ATOM      1  C   UNL     1       0.742  -0.511   1.242  0.00  0.00    +0.096 C 
ATOM      2  C   UNL     1       0.742  -2.054   1.274  0.00  0.00    +0.109 C 
ATOM      3  C   UNL     1       0.580  -2.421   2.775  0.00  0.00    +0.122 C 
ATOM      4  C   UNL     1       1.895  -3.083   3.117  0.00  0.00    +0.228 C 
ATOM      5  O   UNL     1       2.195  -3.525   4.205  0.00  0.00    -0.275 OA
ATOM      6  N   UNL     1       2.676  -3.107   2.031  0.00  0.00    -0.239 N 
ATOM      7  C   UNL     1       2.124  -2.558   0.924  0.00  0.00    +0.227 C 
ATOM      8  O   UNL     1       2.644  -2.476  -0.168  0.00  0.00    -0.275 OA
ATOM      9  C   UNL     1       0.460  -1.071   3.492  0.00  0.00    +0.136 C 
ATOM     10  N   UNL     1       0.023  -0.102   2.477  0.00  0.00    -0.293 NA
ATOM     11  C   UNL     1      -0.491  -1.145   4.652  0.00  0.00    +0.004 A 
ATOM     12  C   UNL     1      -1.823  -1.476   4.766  0.00  0.00    +0.023 A 
ATOM     13  C   UNL     1      -2.439  -1.452   6.006  0.00  0.00    +0.018 A 
ATOM     14  C   UNL     1      -1.713  -1.095   7.129  0.00  0.00    +0.017 A 
ATOM     15  C   UNL     1      -0.379  -0.764   7.018  0.00  0.00    +0.025 A 
ATOM     16  C   UNL     1       0.249  -0.787   5.775  0.00  0.00    +0.039 A 
ATOM     17  N   UNL     1       1.568  -0.501   5.413  0.00  0.00    -0.283 N 
ATOM     18  C   UNL     1       1.774  -0.646   4.090  0.00  0.00    +0.243 C 
ATOM     19  O   UNL     1       2.816  -0.469   3.495  0.00  0.00    -0.273 OA
ATOM     20 BR   UNL     1      -4.268  -1.905   6.165  0.00  0.00    -0.050 Br
ATOM     21  H   UNL     1       0.265   0.842   2.741  0.00  0.00    +0.124 HD
ATOM     22  H   UNL     1       2.255  -0.230   6.041  0.00  0.00    +0.155 HD
ENDROOT
BRANCH   1  24
ATOM     23  C   UNL     1      -0.019   1.526   0.010  0.00  0.00    +0.039 C 
ATOM     24  C   UNL     1       0.002  -0.004   0.002  0.00  0.00    +0.129 C 
BRANCH  24  25
ATOM     25  O   UNL     1      -1.339  -0.499   0.012  0.00  0.00    -0.390 OA
ATOM     26  H   UNL     1      -1.868  -0.216  -0.746  0.00  0.00    +0.210 HD
ENDBRANCH  24  25
ENDBRANCH   1  24
BRANCH   6  27
ATOM     27  C   UNL     1       4.021  -3.689   2.035  0.00  0.00    +0.148 C 
BRANCH  27  28
ATOM     28  C   UNL     1       3.936  -5.171   1.667  0.00  0.00    +0.136 C 
ATOM     29  C   UNL     1       5.332  -5.821   1.787  0.00  0.00    +0.035 C 
ATOM     30  C   UNL     1       5.356  -6.777   0.563  0.00  0.00    +0.031 C 
ATOM     31  C   UNL     1       4.531  -5.962  -0.464  0.00  0.00    +0.160 C 
ATOM     32  O   UNL     1       3.506  -5.312   0.308  0.00  0.00    -0.375 OA
ENDBRANCH  27  28
ENDBRANCH   6  27
TORSDOF 4
