REMARK  Name = ZINC20135860
REMARK  7 active torsions:
REMARK  status: ('A' for Active; 'I' for Inactive)
REMARK    1  A    between atoms: C_1  and  C_2
REMARK    2  A    between atoms: C_3  and  N_9
REMARK    3  A    between atoms: C_12  and  C_17
REMARK    4  A    between atoms: C_17  and  S_18
REMARK    5  A    between atoms: S_18  and  C_19
REMARK    6  A    between atoms: C_19  and  N_21
REMARK    7  A    between atoms: N_24  and  C_27
REMARK                            x       y       z     vdW  Elec       q    Type
REMARK                         _______ _______ _______ _____ _____    ______ ____
ROOT
ATOM      1  N   UNL     1       3.621  -0.652  -0.037  0.00  0.00    -0.283 N 
ATOM      2  C   UNL     1       3.643  -2.030   0.060  0.00  0.00    +0.224 A 
ATOM      3  N   UNL     1       4.806  -2.673   0.145  0.00  0.00    -0.198 NA
ATOM      4  C   UNL     1       4.829  -3.991   0.237  0.00  0.00    +0.146 A 
ATOM      5  N   UNL     1       3.698  -4.676   0.245  0.00  0.00    -0.199 NA
ATOM      6  C   UNL     1       2.532  -4.040   0.160  0.00  0.00    +0.217 A 
ATOM      7  N   UNL     1       2.505  -2.715   0.073  0.00  0.00    -0.181 NA
ATOM      8  N   UNL     1       1.353  -4.756   0.168  0.00  0.00    -0.327 N 
ATOM      9  H   UNL     1       4.555  -0.079   0.059  0.00  0.00    +0.155 HD
ATOM     10  H   UNL     1       0.389  -4.230   0.098  0.00  0.00    +0.145 HD
ATOM     11  H   UNL     1       1.376  -5.853   0.244  0.00  0.00    +0.145 HD
ENDROOT
BRANCH   1  14
ATOM     12  C   UNL     1       3.338   1.990   0.981  0.00  0.00    +0.047 C 
ATOM     13  C   UNL     1       2.230   1.304   0.224  0.00  0.00    -0.011 A 
ATOM     14  C   UNL     1       2.411   0.013  -0.256  0.00  0.00    +0.038 A 
ATOM     15  C   UNL     1       1.387  -0.615  -0.954  0.00  0.00    +0.023 A 
ATOM     16  C   UNL     1       0.193   0.045  -1.169  0.00  0.00    +0.003 A 
ATOM     17  C   UNL     1       0.016   1.330  -0.691  0.00  0.00    +0.020 A 
ATOM     18  C   UNL     1       1.033   1.960   0.005  0.00  0.00    +0.046 A 
ATOM     19 CL   UNL     1       0.806   3.574   0.603  0.00  0.00    -0.083 Cl
ENDBRANCH   1  14
BRANCH   4  20
ATOM     20  C   UNL     1       6.147  -4.715   0.334  0.00  0.00    +0.152 C 
BRANCH  20  21
ATOM     21  S   UNL     1       6.615  -4.887   2.074  0.00  0.00    -0.095 S 
BRANCH  21  22
ATOM     22  C   UNL     1       8.145  -5.742   1.896  0.00  0.00    +0.110 C 
ATOM     23  S   UNL     1       8.726  -6.141   0.336  0.00  0.00    -0.028 S 
BRANCH  22  24
ATOM     24  N   UNL     1       8.859  -6.081   2.988  0.00  0.00    -0.317 N 
ATOM     25  C   UNL     1       8.381  -5.742   4.337  0.00  0.00    +0.121 C 
ATOM     26  C   UNL     1       8.411  -7.018   5.194  0.00  0.00    +0.103 C 
ATOM     27  N   UNL     1       9.757  -7.605   5.141  0.00  0.00    -0.302 NA
ATOM     28  C   UNL     1      10.102  -8.024   3.776  0.00  0.00    +0.103 C 
ATOM     29  C   UNL     1      10.138  -6.795   2.862  0.00  0.00    +0.121 C 
ATOM     30  C   UNL     1       9.879  -8.726   6.083  0.00  0.00    +0.105 C 
ENDBRANCH  22  24
ENDBRANCH  21  22
ENDBRANCH  20  21
ENDBRANCH   4  20
TORSDOF 5
