REMARK  Name = ZINC43290482
REMARK  6 active torsions:
REMARK  status: ('A' for Active; 'I' for Inactive)
REMARK    1  A    between atoms: C_1  and  C_2
REMARK    2  A    between atoms: C_2  and  C_4
REMARK    3  A    between atoms: C_2  and  N_23
REMARK    4  A    between atoms: C_4  and  C_6
REMARK    5  A    between atoms: C_4  and  S_12
REMARK    6  A    between atoms: S_12  and  C_13
REMARK                            x       y       z     vdW  Elec       q    Type
REMARK                         _______ _______ _______ _____ _____    ______ ____
ROOT
ATOM      1  C   UNL     1       0.750  -0.491   1.131  0.00  0.00    +0.076 C 
ENDROOT
BRANCH   1   2
ATOM      2  C   UNL     1       0.220  -0.358   2.535  0.00  0.00    +0.003 A 
ATOM      3  C   UNL     1      -0.904   0.264   2.969  0.00  0.00    +0.027 A 
ATOM      4  C   UNL     1      -1.194   0.258   4.321  0.00  0.00    +0.025 A 
ATOM      5  C   UNL     1      -0.346  -0.369   5.172  0.00  0.00    +0.060 A 
ATOM      6  S   UNL     1       0.905  -0.987   4.059  0.00  0.00    -0.099 S 
ATOM      7 BR   UNL     1      -2.751   1.113   4.971  0.00  0.00    -0.050 Br
ENDBRANCH   1   2
BRANCH   1   9
ATOM      8  C   UNL     1      -0.555  -2.592   0.778  0.00  0.00    -0.013 C 
ATOM      9  C   UNL     1       0.844  -1.972   0.759  0.00  0.00    -0.060 C 
BRANCH   9  10
ATOM     10  N   UNL     1       1.419  -2.103  -0.587  0.00  0.00    +0.381 N 
ATOM     11  H   UNL     1       2.341  -1.694  -0.600  0.00  0.00    -0.090 HD
ATOM     12  H   UNL     1       1.481  -3.080  -0.832  0.00  0.00    -0.090 HD
ATOM     13  H   UNL     1       0.830  -1.626  -1.252  0.00  0.00    -0.090 HD
ENDBRANCH   9  10
ENDBRANCH   1   9
BRANCH   1  14
ATOM     14  S   UNL     1       2.397   0.263   1.033  0.00  0.00    -0.079 S 
BRANCH  14  15
ATOM     15  C   UNL     1       2.094   1.982   1.274  0.00  0.00    +0.192 A 
ATOM     16  N   UNL     1       0.920   2.563   1.383  0.00  0.00    -0.122 NA
ATOM     17  N   UNL     1       1.072   3.829   1.558  0.00  0.00    -0.134 NA
ATOM     18  C   UNL     1       2.338   4.125   1.575  0.00  0.00    +0.134 A 
ATOM     19  N   UNL     1       3.031   2.962   1.389  0.00  0.00    -0.306 N 
ATOM     20  C   UNL     1       4.484   2.818   1.313  0.00  0.00    +0.125 C 
ATOM     21  C   UNL     1       5.147   3.930   2.131  0.00  0.00    +0.022 C 
ATOM     22  C   UNL     1       5.375   5.155   1.247  0.00  0.00    +0.002 C 
ATOM     23  C   UNL     1       4.048   5.698   0.728  0.00  0.00    +0.008 C 
ATOM     24  C   UNL     1       2.956   5.485   1.774  0.00  0.00    +0.076 C 
ENDBRANCH  14  15
ENDBRANCH   1  14
TORSDOF 5
