REMARK  Name = ZINC33310192
REMARK  10 active torsions:
REMARK  status: ('A' for Active; 'I' for Inactive)
REMARK    1  A    between atoms: C_1  and  C_2
REMARK    2  A    between atoms: C_2  and  C_3
REMARK    3  A    between atoms: C_3  and  N_4
REMARK    4  A    between atoms: N_7  and  C_8
REMARK    5  A    between atoms: C_11  and  N_14
REMARK    6  A    between atoms: C_20  and  C_23
REMARK    7  A    between atoms: N_25  and  C_26
REMARK    8  A    between atoms: C_26  and  C_27
REMARK    9  A    between atoms: C_27  and  C_28
REMARK   10  A    between atoms: C_27  and  C_29
REMARK                            x       y       z     vdW  Elec       q    Type
REMARK                         _______ _______ _______ _____ _____    ______ ____
ROOT
ATOM      1  N   UNL     1      -4.479   3.791   0.733  0.00  0.00    -0.269 N 
ATOM      2  C   UNL     1      -4.510   5.138   0.755  0.00  0.00    +0.306 C 
ATOM      3  O   UNL     1      -3.474   5.771   0.696  0.00  0.00    -0.252 OA
ATOM      4  N   UNL     1      -5.690   5.784   0.842  0.00  0.00    -0.285 N 
ATOM      5  C   UNL     1      -6.942   5.035   1.018  0.00  0.00    +0.110 C 
ATOM      6  C   UNL     1      -7.927   5.450  -0.073  0.00  0.00    +0.032 C 
ATOM      7  C   UNL     1      -8.096   6.971  -0.053  0.00  0.00    +0.078 C 
ATOM      8  C   UNL     1      -6.749   7.639  -0.337  0.00  0.00    +0.032 C 
ATOM      9  C   UNL     1      -5.749   7.250   0.756  0.00  0.00    +0.110 C 
ATOM     10  H   UNL     1      -5.408   3.217   0.863  0.00  0.00    +0.156 HD
ENDROOT
BRANCH   1  14
ATOM     11  C   UNL     1      -0.859   1.798   0.168  0.00  0.00    +0.035 A 
ATOM     12  C   UNL     1      -0.894   2.982   0.893  0.00  0.00    +0.025 A 
ATOM     13  C   UNL     1      -2.092   3.645   1.075  0.00  0.00    +0.025 A 
ATOM     14  C   UNL     1      -3.263   3.121   0.543  0.00  0.00    +0.035 A 
ATOM     15  C   UNL     1      -3.228   1.934  -0.176  0.00  0.00    +0.025 A 
ATOM     16  C   UNL     1      -2.030   1.275  -0.363  0.00  0.00    +0.025 A 
BRANCH  11  20
ATOM     17  N   UNL     1       1.795  -0.096  -1.394  0.00  0.00    -0.299 N 
ATOM     18  C   UNL     1       0.593   0.474  -1.176  0.00  0.00    +0.304 C 
ATOM     19  O   UNL     1      -0.279   0.397  -2.020  0.00  0.00    -0.253 OA
ATOM     20  N   UNL     1       0.357   1.129  -0.022  0.00  0.00    -0.269 N 
ATOM     21  H   UNL     1       2.583  -0.026  -0.630  0.00  0.00    +0.150 HD
ATOM     22  H   UNL     1       1.120   1.139   0.771  0.00  0.00    +0.156 HD
BRANCH  17  23
ATOM     23  C   UNL     1       2.051  -0.808  -2.648  0.00  0.00    +0.105 C 
BRANCH  23  25
ATOM     24  C   UNL     1       3.747  -2.099  -3.952  0.00  0.00    +0.005 C 
ATOM     25  C   UNL     1       3.479  -1.355  -2.642  0.00  0.00    +0.015 C 
ENDBRANCH  23  25
ENDBRANCH  17  23
ENDBRANCH  11  20
ENDBRANCH   1  14
BRANCH   7  26
ATOM     26  C   UNL     1      -9.092   7.380  -1.107  0.00  0.00    +0.216 C 
ATOM     27  O   UNL     1      -8.757   8.131  -1.999  0.00  0.00    -0.276 OA
ATOM     28  N   UNL     1     -10.354   6.910  -1.060  0.00  0.00    -0.315 N 
ATOM     29  H   UNL     1     -10.658   6.228  -0.252  0.00  0.00    +0.149 HD
BRANCH  28  30
ATOM     30  C   UNL     1     -11.322   7.307  -2.086  0.00  0.00    +0.107 C 
BRANCH  30  31
ATOM     31  C   UNL     1     -12.669   6.639  -1.802  0.00  0.00    -0.000 C 
ATOM     32  C   UNL     1     -13.235   7.171  -0.484  0.00  0.00    +0.009 C 
ATOM     33  C   UNL     1     -13.644   6.953  -2.939  0.00  0.00    +0.009 C 
ENDBRANCH  30  31
ENDBRANCH  28  30
ENDBRANCH   7  26
TORSDOF 7
