REMARK  Name = ZINC49209289
REMARK  7 active torsions:
REMARK  status: ('A' for Active; 'I' for Inactive)
REMARK    1  A    between atoms: C_1  and  C_2
REMARK    2  A    between atoms: C_6  and  O_17
REMARK    3  A    between atoms: C_7  and  N_8
REMARK    4  A    between atoms: N_11  and  C_12
REMARK    5  A    between atoms: C_12  and  C_13
REMARK    6  A    between atoms: N_15  and  C_16
REMARK    7  A    between atoms: O_17  and  C_18
REMARK                            x       y       z     vdW  Elec       q    Type
REMARK                         _______ _______ _______ _____ _____    ______ ____
ROOT
ATOM      1  N   UNL     1       0.025  -0.011   2.418  0.00  0.00    -0.266 N 
ATOM      2  C   UNL     1       0.247  -0.675   3.570  0.00  0.00    +0.304 C 
ATOM      3  O   UNL     1       0.536  -1.855   3.545  0.00  0.00    -0.252 OA
ATOM      4  N   UNL     1       0.149  -0.029   4.749  0.00  0.00    -0.291 N 
ATOM      5  H   UNL     1      -0.134   0.946   2.432  0.00  0.00    +0.156 HD
ATOM      6  H   UNL     1      -0.081   0.913   4.769  0.00  0.00    +0.151 HD
ENDROOT
BRANCH   1  13
ATOM      7  C   UNL     1       2.447  -0.127   0.931  0.00  0.00    +0.046 C 
ATOM      8  C   UNL     1       1.182  -0.784   0.443  0.00  0.00    -0.025 A 
ATOM      9  C   UNL     1       1.179  -1.472  -0.756  0.00  0.00    +0.020 A 
ATOM     10  C   UNL     1       0.020  -2.077  -1.207  0.00  0.00    +0.022 A 
ATOM     11  C   UNL     1      -1.142  -1.996  -0.461  0.00  0.00    +0.062 A 
ATOM     12  C   UNL     1      -1.147  -1.308   0.742  0.00  0.00    +0.143 A 
ATOM     13  C   UNL     1       0.022  -0.704   1.199  0.00  0.00    +0.080 A 
ATOM     14 BR   UNL     1       0.024  -3.017  -2.848  0.00  0.00    -0.050 Br
BRANCH  12  15
ATOM     15  O   UNL     1      -2.288  -1.228   1.476  0.00  0.00    -0.493 OA
ATOM     16  C   UNL     1      -3.447  -1.876   0.948  0.00  0.00    +0.277 C 
ENDBRANCH  12  15
ENDBRANCH   1  13
BRANCH   4  17
ATOM     17  C   UNL     1       0.392  -0.750   6.001  0.00  0.00    +0.201 C 
BRANCH  17  18
ATOM     18  C   UNL     1       0.220   0.192   7.165  0.00  0.00    +0.230 C 
ATOM     19  O   UNL     1      -0.076   1.351   6.967  0.00  0.00    -0.274 OA
ATOM     20  N   UNL     1       0.395  -0.255   8.424  0.00  0.00    -0.317 N 
ATOM     21  C   UNL     1       0.228   0.661   9.556  0.00  0.00    +0.128 C 
ATOM     22  H   UNL     1       0.631  -1.182   8.582  0.00  0.00    +0.148 HD
ENDBRANCH  17  18
ENDBRANCH   4  17
TORSDOF 4
