REMARK  Name = ZINC09360824
REMARK  5 active torsions:
REMARK  status: ('A' for Active; 'I' for Inactive)
REMARK    1  A    between atoms: C_1  and  C_2
REMARK    2  A    between atoms: C_7  and  C_12
REMARK    3  A    between atoms: C_12  and  C_14
REMARK    4  A    between atoms: C_19  and  C_21
REMARK    5  A    between atoms: C_24  and  O_27
REMARK                            x       y       z     vdW  Elec       q    Type
REMARK                         _______ _______ _______ _____ _____    ______ ____
ROOT
ATOM      1  C   UNL     1       4.342  -0.646   1.322  0.00  0.00    +0.077 C 
ATOM      2  C   UNL     1       5.535  -0.030   1.149  0.00  0.00    +0.250 C 
ATOM      3  C   UNL     1       5.686   0.344  -0.272  0.00  0.00    +0.293 C 
ATOM      4  O   UNL     1       6.651   0.912  -0.744  0.00  0.00    -0.266 OA
ATOM      5  N   UNL     1       4.599  -0.038  -0.966  0.00  0.00    -0.232 N 
ATOM      6  C   UNL     1       3.671  -0.686  -0.031  0.00  0.00    +0.152 C 
ATOM      7  C   UNL     1       4.392   0.148  -2.321  0.00  0.00    +0.169 A 
ATOM      8  N   UNL     1       3.360  -0.205  -3.053  0.00  0.00    -0.224 NA
ATOM      9  C   UNL     1       3.290   0.046  -4.378  0.00  0.00    +0.080 A 
ATOM     10  C   UNL     1       2.242  -0.275  -5.273  0.00  0.00    +0.030 A 
ATOM     11  C   UNL     1       2.333   0.049  -6.601  0.00  0.00    +0.022 A 
ATOM     12  C   UNL     1       3.446   0.700  -7.115  0.00  0.00    +0.042 A 
ATOM     13  C   UNL     1       4.490   1.028  -6.268  0.00  0.00    +0.037 A 
ATOM     14  C   UNL     1       4.407   0.707  -4.936  0.00  0.00    +0.042 A 
ATOM     15  S   UNL     1       5.464   0.923  -3.523  0.00  0.00    -0.052 S 
ATOM     16 CL   UNL     1       3.529   1.097  -8.803  0.00  0.00    -0.084 Cl
ATOM     17  O   UNL     1       6.444   0.206   2.123  0.00  0.00    -0.282 OA
ENDROOT
BRANCH   6  18
ATOM     18  C   UNL     1       2.368   0.070   0.013  0.00  0.00    -0.022 A 
ATOM     19  C   UNL     1       1.170  -0.620   0.029  0.00  0.00    +0.009 A 
ATOM     20  C   UNL     1      -0.025   0.070   0.070  0.00  0.00    +0.046 A 
ATOM     21  C   UNL     1      -0.024   1.457   0.096  0.00  0.00    +0.117 A 
ATOM     22  C   UNL     1       1.180   2.147   0.081  0.00  0.00    +0.046 A 
ATOM     23  C   UNL     1       2.373   1.452   0.040  0.00  0.00    +0.009 A 
BRANCH  21  24
ATOM     24  O   UNL     1      -1.199   2.139   0.132  0.00  0.00    -0.507 OA
ATOM     25  H   UNL     1      -1.196   3.239   0.152  0.00  0.00    +0.292 HD
ENDBRANCH  21  24
ENDBRANCH   6  18
BRANCH   1  26
ATOM     26  C   UNL     1       3.804  -1.174   2.580  0.00  0.00    +0.195 C 
ATOM     27  O   UNL     1       3.524  -0.414   3.489  0.00  0.00    -0.287 OA
BRANCH  26  33
ATOM     28  C   UNL     1       0.557  -6.752   3.817  0.00  0.00    +0.052 C 
ATOM     29  C   UNL     1       1.954  -6.669   4.434  0.00  0.00    +0.175 C 
ATOM     30  C   UNL     1       2.162  -5.307   5.139  0.00  0.00    +0.083 C 
ATOM     31  C   UNL     1       2.798  -4.479   4.038  0.00  0.00    -0.002 A 
ATOM     32  C   UNL     1       2.986  -3.127   3.897  0.00  0.00    +0.019 A 
ATOM     33  C   UNL     1       3.603  -2.627   2.745  0.00  0.00    +0.023 A 
ATOM     34  C   UNL     1       4.033  -3.515   1.754  0.00  0.00    +0.015 A 
ATOM     35  C   UNL     1       3.849  -4.867   1.911  0.00  0.00    +0.046 A 
ATOM     36  C   UNL     1       3.229  -5.369   3.058  0.00  0.00    +0.124 A 
ATOM     37  O   UNL     1       2.963  -6.655   3.410  0.00  0.00    -0.488 OA
ENDBRANCH  26  33
ENDBRANCH   1  26
TORSDOF 4
