REMARK  Name = ZINC18283802
REMARK  9 active torsions:
REMARK  status: ('A' for Active; 'I' for Inactive)
REMARK    1  A    between atoms: C_1  and  C_2
REMARK    2  A    between atoms: C_2  and  C_32
REMARK    3  A    between atoms: C_6  and  C_17
REMARK    4  A    between atoms: C_19  and  O_27
REMARK    5  A    between atoms: C_20  and  O_25
REMARK    6  A    between atoms: C_21  and  O_23
REMARK    7  A    between atoms: O_23  and  C_24
REMARK    8  A    between atoms: O_25  and  C_26
REMARK    9  A    between atoms: O_27  and  C_28
REMARK                            x       y       z     vdW  Elec       q    Type
REMARK                         _______ _______ _______ _____ _____    ______ ____
ROOT
ATOM      1  C   UNL     1      -0.019   1.526   0.010  0.00  0.00    +0.011 C 
ATOM      2  C   UNL     1       0.002  -0.004   0.002  0.00  0.00    -0.023 C 
ATOM      3  C   UNL     1       0.740  -0.502  -1.243  0.00  0.00    +0.058 C 
ATOM      4  C   UNL     1       2.167  -0.011  -1.215  0.00  0.00    +0.017 C 
ATOM      5  C   UNL     1       2.812   0.186  -0.046  0.00  0.00    +0.024 C 
ATOM      6  C   UNL     1       4.238   0.676  -0.021  0.00  0.00    +0.093 C 
ATOM      7  C   UNL     1       4.903   0.482  -1.352  0.00  0.00    +0.067 A 
ATOM      8  C   UNL     1       4.166   0.274  -2.478  0.00  0.00    +0.113 A 
ATOM      9  N   UNL     1       4.803   0.107  -3.684  0.00  0.00    -0.295 N 
ATOM     10  C   UNL     1       6.146   0.144  -3.754  0.00  0.00    +0.328 A 
ATOM     11  O   UNL     1       6.695  -0.005  -4.829  0.00  0.00    -0.247 OA
ATOM     12  N   UNL     1       6.892   0.344  -2.652  0.00  0.00    -0.275 N 
ATOM     13  C   UNL     1       6.306   0.514  -1.450  0.00  0.00    +0.260 A 
ATOM     14  O   UNL     1       6.987   0.695  -0.456  0.00  0.00    -0.267 OA
ATOM     15  N   UNL     1       2.796   0.227  -2.407  0.00  0.00    -0.303 N 
ATOM     16  C   UNL     1       2.173  -0.054   1.183  0.00  0.00    +0.162 C 
ATOM     17  O   UNL     1       2.787   0.116   2.218  0.00  0.00    -0.292 OA
ATOM     18  C   UNL     1       0.743  -0.516   1.242  0.00  0.00    +0.086 C 
ATOM     19  C   UNL     1      -1.432  -0.538   0.002  0.00  0.00    +0.011 C 
ATOM     20  H   UNL     1       2.269   0.364  -3.210  0.00  0.00    +0.153 HD
ATOM     21  H   UNL     1       7.859   0.366  -2.723  0.00  0.00    +0.173 HD
ATOM     22  H   UNL     1       4.282  -0.039  -4.489  0.00  0.00    +0.172 HD
ENDROOT
BRANCH   6  23
ATOM     23  C   UNL     1       4.250   2.142   0.328  0.00  0.00    -0.028 A 
ATOM     24  C   UNL     1       3.589   3.048  -0.480  0.00  0.00    +0.054 A 
ATOM     25  C   UNL     1       3.599   4.398  -0.164  0.00  0.00    +0.165 A 
ATOM     26  C   UNL     1       4.274   4.839   0.968  0.00  0.00    +0.204 A 
ATOM     27  C   UNL     1       4.937   3.925   1.778  0.00  0.00    +0.165 A 
ATOM     28  C   UNL     1       4.918   2.576   1.457  0.00  0.00    +0.054 A 
BRANCH  27  29
ATOM     29  O   UNL     1       5.599   4.352   2.886  0.00  0.00    -0.491 OA
ATOM     30  C   UNL     1       6.258   3.357   3.672  0.00  0.00    +0.277 C 
ENDBRANCH  27  29
BRANCH  26  31
ATOM     31  O   UNL     1       4.286   6.163   1.282  0.00  0.00    -0.488 OA
ATOM     32  C   UNL     1       3.234   6.641   2.123  0.00  0.00    +0.277 C 
ENDBRANCH  26  31
BRANCH  25  33
ATOM     33  O   UNL     1       2.948   5.288  -0.960  0.00  0.00    -0.491 OA
ATOM     34  C   UNL     1       2.276   4.764  -2.106  0.00  0.00    +0.277 C 
ENDBRANCH  25  33
ENDBRANCH   6  23
TORSDOF 4
