REMARK  Name = ZINC43136741
REMARK  8 active torsions:
REMARK  status: ('A' for Active; 'I' for Inactive)
REMARK    1  A    between atoms: C_1  and  N_2
REMARK    2  A    between atoms: C_4  and  C_7
REMARK    3  A    between atoms: C_7  and  C_8
REMARK    4  A    between atoms: C_8  and  N_9
REMARK    5  A    between atoms: N_12  and  C_13
REMARK    6  A    between atoms: C_13  and  C_14
REMARK    7  A    between atoms: C_14  and  C_16
REMARK    8  A    between atoms: C_14  and  N_21
REMARK                            x       y       z     vdW  Elec       q    Type
REMARK                         _______ _______ _______ _____ _____    ______ ____
ROOT
ATOM      1  N   UNL     1       5.805  -4.053  -5.660  0.00  0.00    -0.299 N 
ATOM      2  C   UNL     1       5.182  -4.927  -4.845  0.00  0.00    +0.300 C 
ATOM      3  O   UNL     1       5.011  -4.649  -3.674  0.00  0.00    -0.253 OA
ATOM      4  N   UNL     1       4.749  -6.108  -5.328  0.00  0.00    -0.301 N 
ATOM      5  H   UNL     1       5.942  -4.274  -6.595  0.00  0.00    +0.150 HD
ATOM      6  H   UNL     1       4.886  -6.329  -6.263  0.00  0.00    +0.150 HD
ENDROOT
BRANCH   1   7
ATOM      7  C   UNL     1       6.276  -2.769  -5.136  0.00  0.00    +0.110 C 
BRANCH   7   8
ATOM      8  C   UNL     1       6.942  -1.972  -6.259  0.00  0.00    +0.057 C 
BRANCH   8  12
ATOM      9  C   UNL     1       9.820   1.579  -4.202  0.00  0.00    +0.172 C 
ATOM     10  N   UNL     1       8.685   0.891  -4.823  0.00  0.00    -0.274 N 
ATOM     11  C   UNL     1       8.646  -0.408  -5.185  0.00  0.00    +0.111 A 
ATOM     12  C   UNL     1       7.427  -0.651  -5.719  0.00  0.00    -0.008 A 
ATOM     13  C   UNL     1       6.696   0.541  -5.682  0.00  0.00    +0.138 A 
ATOM     14  N   UNL     1       7.447   1.464  -5.139  0.00  0.00    -0.180 NA
ENDBRANCH   8  12
ENDBRANCH   7   8
ENDBRANCH   1   7
BRANCH   4  15
ATOM     15  C   UNL     1       4.072  -7.058  -4.442  0.00  0.00    +0.098 C 
BRANCH  15  16
ATOM     16  C   UNL     1       3.570  -8.249  -5.259  0.00  0.00    +0.016 C 
BRANCH  16  17
ATOM     17  N   UNL     1       2.736  -7.766  -6.368  0.00  0.00    +0.387 N 
ATOM     18  C   UNL     1       1.585  -7.032  -5.828  0.00  0.00    -0.078 C 
ATOM     19  C   UNL     1       0.757  -6.457  -6.979  0.00  0.00    -0.019 C 
ATOM     20  C   UNL     1       0.262  -7.603  -7.867  0.00  0.00    -0.004 C 
ATOM     21  C   UNL     1       1.467  -8.407  -8.364  0.00  0.00    -0.019 C 
ATOM     22  C   UNL     1       2.269  -8.909  -7.162  0.00  0.00    -0.078 C 
ATOM     23  H   UNL     1       3.280  -7.151  -6.954  0.00  0.00    -0.081 HD
ENDBRANCH  16  17
BRANCH  16  24
ATOM     24  C   UNL     1       4.747  -9.011  -5.811  0.00  0.00    +0.093 A 
ATOM     25  C   UNL     1       5.257 -10.147  -5.303  0.00  0.00    +0.043 A 
ATOM     26  C   UNL     1       6.346 -10.513  -6.128  0.00  0.00    +0.041 A 
ATOM     27  C   UNL     1       6.435  -9.578  -7.091  0.00  0.00    +0.195 A 
ATOM     28  O   UNL     1       5.461  -8.674  -6.898  0.00  0.00    -0.469 OA
ENDBRANCH  16  24
ENDBRANCH  15  16
ENDBRANCH   4  15
TORSDOF 7
