REMARK  Name = ZINC15959874
REMARK  7 active torsions:
REMARK  status: ('A' for Active; 'I' for Inactive)
REMARK    1  A    between atoms: C_4  and  C_7
REMARK    2  A    between atoms: C_7  and  C_8
REMARK    3  A    between atoms: C_8  and  N_9
REMARK    4  A    between atoms: C_14  and  C_31
REMARK    5  A    between atoms: C_31  and  C_32
REMARK    6  A    between atoms: C_35  and  O_39
REMARK    7  A    between atoms: C_36  and  O_38
REMARK                            x       y       z     vdW  Elec       q    Type
REMARK                         _______ _______ _______ _____ _____    ______ ____
ROOT
ATOM      1  N   UNL     1       5.450  -1.678   1.382  0.00  0.00    -0.241 N 
ATOM      2  C   UNL     1       5.532  -3.014   1.369  0.00  0.00    +0.227 C 
ATOM      3  O   UNL     1       4.587  -3.774   1.366  0.00  0.00    -0.275 OA
ATOM      4  C   UNL     1       6.986  -3.428   1.357  0.00  0.00    +0.107 C 
ATOM      5  C   UNL     1       7.317  -4.091   0.004  0.00  0.00    +0.072 C 
ATOM      6  N   UNL     1       7.681  -2.963  -0.895  0.00  0.00    -0.295 NA
ATOM      7  C   UNL     1       8.445  -2.045  -0.030  0.00  0.00    +0.136 C 
ATOM      8  C   UNL     1       7.745  -2.072   1.352  0.00  0.00    +0.122 C 
ATOM      9  C   UNL     1       6.631  -1.049   1.373  0.00  0.00    +0.228 C 
ATOM     10  O   UNL     1       6.784   0.153   1.382  0.00  0.00    -0.275 OA
ATOM     11  C   UNL     1       9.885  -2.459   0.080  0.00  0.00    +0.003 A 
ATOM     12  C   UNL     1      10.512  -3.603   0.521  0.00  0.00    +0.008 A 
ATOM     13  C   UNL     1      11.892  -3.688   0.497  0.00  0.00    +0.000 A 
ATOM     14  C   UNL     1      12.640  -2.623   0.031  0.00  0.00    +0.002 A 
ATOM     15  C   UNL     1      12.017  -1.475  -0.412  0.00  0.00    +0.023 A 
ATOM     16  C   UNL     1      10.627  -1.380  -0.392  0.00  0.00    +0.039 A 
ATOM     17  N   UNL     1       9.778  -0.342  -0.781  0.00  0.00    -0.283 N 
ATOM     18  C   UNL     1       8.480  -0.653  -0.601  0.00  0.00    +0.243 C 
ATOM     19  O   UNL     1       7.524   0.051  -0.851  0.00  0.00    -0.273 OA
ATOM     20  H   UNL     1       8.245  -3.284  -1.667  0.00  0.00    +0.124 HD
ATOM     21  H   UNL     1      10.086   0.505  -1.140  0.00  0.00    +0.155 HD
ENDROOT
BRANCH   1  22
ATOM     22  C   UNL     1       4.171  -0.963   1.399  0.00  0.00    +0.121 C 
BRANCH  22  23
ATOM     23  C   UNL     1       3.711  -0.707  -0.038  0.00  0.00    +0.054 C 
BRANCH  23  27
ATOM     24  C   UNL     1      -0.017   1.378   0.010  0.00  0.00    +0.000 A 
ATOM     25  C   UNL     1       1.171   2.086   0.002  0.00  0.00    +0.000 A 
ATOM     26  C   UNL     1       2.377   1.411  -0.013  0.00  0.00    +0.004 A 
ATOM     27  C   UNL     1       2.396   0.029  -0.020  0.00  0.00    -0.046 A 
ATOM     28  C   UNL     1       1.208  -0.679  -0.012  0.00  0.00    +0.004 A 
ATOM     29  C   UNL     1       0.002  -0.004   0.002  0.00  0.00    +0.000 A 
ENDBRANCH  23  27
ENDBRANCH  22  23
ENDBRANCH   1  22
BRANCH   5  30
ATOM     30  C   UNL     1       6.094  -4.833  -0.539  0.00  0.00    +0.054 C 
BRANCH  30  31
ATOM     31  C   UNL     1       6.473  -5.573  -1.796  0.00  0.00    -0.042 A 
ATOM     32  C   UNL     1       6.359  -4.949  -3.025  0.00  0.00    +0.007 A 
ATOM     33  C   UNL     1       6.705  -5.624  -4.180  0.00  0.00    +0.049 A 
ATOM     34  C   UNL     1       7.167  -6.928  -4.109  0.00  0.00    +0.158 A 
ATOM     35  C   UNL     1       7.283  -7.556  -2.873  0.00  0.00    +0.158 A 
ATOM     36  C   UNL     1       6.939  -6.872  -1.718  0.00  0.00    +0.052 A 
BRANCH  35  37
ATOM     37  O   UNL     1       7.736  -8.835  -2.798  0.00  0.00    -0.503 OA
ATOM     38  H   UNL     1       8.696  -8.908  -2.702  0.00  0.00    +0.292 HD
ENDBRANCH  35  37
BRANCH  34  39
ATOM     39  O   UNL     1       7.508  -7.593  -5.245  0.00  0.00    -0.503 OA
ATOM     40  H   UNL     1       8.434  -7.488  -5.500  0.00  0.00    +0.292 HD
ENDBRANCH  34  39
ENDBRANCH  30  31
ENDBRANCH   5  30
TORSDOF 7
