REMARK  Name = ZINC34388731
REMARK  9 active torsions:
REMARK  status: ('A' for Active; 'I' for Inactive)
REMARK    1  A    between atoms: C_1  and  C_2
REMARK    2  A    between atoms: C_4  and  C_10
REMARK    3  A    between atoms: C_6  and  C_9
REMARK    4  A    between atoms: C_7  and  O_8
REMARK    5  A    between atoms: N_18  and  C_21
REMARK    6  A    between atoms: C_27  and  C_29
REMARK    7  A    between atoms: C_27  and  C_33
REMARK    8  A    between atoms: C_29  and  C_31
REMARK    9  A    between atoms: C_29  and  O_32
REMARK                            x       y       z     vdW  Elec       q    Type
REMARK                         _______ _______ _______ _____ _____    ______ ____
ROOT
ATOM      1  C   UNL     1       0.028  -2.816  -2.516  0.00  0.00    -0.027 C 
ATOM      2  C   UNL     1      -1.334  -3.439  -2.770  0.00  0.00    +0.077 C 
ATOM      3  C   UNL     1      -1.125  -4.787  -1.978  0.00  0.00    +0.088 C 
ATOM      4  C   UNL     1      -2.480  -5.257  -1.838  0.00  0.00    +0.225 C 
ATOM      5  O   UNL     1      -2.865  -6.407  -1.836  0.00  0.00    -0.275 OA
ATOM      6  N   UNL     1      -3.241  -4.122  -1.706  0.00  0.00    -0.239 N 
ATOM      7  C   UNL     1      -2.555  -2.975  -2.039  0.00  0.00    +0.225 C 
ATOM      8  O   UNL     1      -2.866  -1.829  -1.791  0.00  0.00    -0.275 OA
ATOM      9  C   UNL     1       0.181  -5.239  -2.486  0.00  0.00    +0.074 C 
ATOM     10  N   UNL     1       0.989  -3.958  -2.459  0.00  0.00    +0.397 N 
ATOM     11  H   UNL     1       1.603  -3.929  -3.260  0.00  0.00    -0.083 HD
ATOM     12  H   UNL     1       1.532  -3.906  -1.610  0.00  0.00    -0.083 HD
ENDROOT
BRANCH   1  16
ATOM     13  C   UNL     1      -0.309   1.484   0.020  0.00  0.00    +0.047 C 
ATOM     14  C   UNL     1      -0.137  -0.013   0.007  0.00  0.00    -0.009 A 
ATOM     15  C   UNL     1      -0.133  -0.698  -1.193  0.00  0.00    +0.009 A 
ATOM     16  C   UNL     1       0.024  -2.071  -1.206  0.00  0.00    -0.060 A 
ATOM     17  C   UNL     1       0.178  -2.763  -0.019  0.00  0.00    +0.009 A 
ATOM     18  C   UNL     1       0.175  -2.083   1.184  0.00  0.00    -0.009 A 
ATOM     19  C   UNL     1       0.023  -0.704   1.199  0.00  0.00    +0.123 A 
ATOM     20  C   UNL     1       0.343  -2.838   2.477  0.00  0.00    +0.047 C 
BRANCH  19  21
ATOM     21  O   UNL     1       0.025  -0.032   2.380  0.00  0.00    -0.506 OA
ATOM     22  H   UNL     1      -0.850   0.062   2.781  0.00  0.00    +0.292 HD
ENDBRANCH  19  21
ENDBRANCH   1  16
BRANCH   6  23
ATOM     23  C   UNL     1      -4.639  -4.127  -1.270  0.00  0.00    +0.084 C 
ATOM     24  C   UNL     1      -5.518  -3.521  -2.366  0.00  0.00    +0.023 C 
ATOM     25  C   UNL     1      -6.979  -3.527  -1.910  0.00  0.00    +0.002 C 
ATOM     26  C   UNL     1      -7.117  -2.700  -0.630  0.00  0.00    +0.000 C 
ATOM     27  C   UNL     1      -6.238  -3.306   0.466  0.00  0.00    +0.002 C 
ATOM     28  C   UNL     1      -4.777  -3.300   0.010  0.00  0.00    +0.023 C 
ENDBRANCH   6  23
BRANCH   9  29
ATOM     29  C   UNL     1       0.052  -5.782  -3.886  0.00  0.00    +0.349 C 
ATOM     30  O   UNL     1       0.676  -5.268  -4.799  0.00  0.00    -0.248 OA
ATOM     31  O   UNL     1      -0.676  -6.735  -4.106  0.00  0.00    -0.248 OA
ENDBRANCH   9  29
BRANCH   9  32
ATOM     32  C   UNL     1       0.797  -6.282  -1.552  0.00  0.00    +0.112 C 
ATOM     33  C   UNL     1       2.150  -6.730  -2.108  0.00  0.00    +0.037 C 
BRANCH  32  34
ATOM     34  O   UNL     1       0.981  -5.710  -0.255  0.00  0.00    -0.393 OA
ATOM     35  H   UNL     1       1.563  -4.938  -0.245  0.00  0.00    +0.210 HD
ENDBRANCH  32  34
ENDBRANCH   9  32
TORSDOF 6
