REMARK  Name = ZINC39870790
REMARK  10 active torsions:
REMARK  status: ('A' for Active; 'I' for Inactive)
REMARK    1  A    between atoms: C_1  and  C_2
REMARK    2  A    between atoms: C_3  and  C_32
REMARK    3  A    between atoms: N_6  and  C_22
REMARK    4  A    between atoms: C_8  and  N_9
REMARK    5  A    between atoms: N_10  and  C_11
REMARK    6  A    between atoms: C_16  and  C_17
REMARK    7  A    between atoms: C_22  and  C_23
REMARK    8  A    between atoms: C_23  and  C_24
REMARK    9  A    between atoms: C_27  and  O_30
REMARK   10  A    between atoms: O_30  and  C_31
REMARK                            x       y       z     vdW  Elec       q    Type
REMARK                         _______ _______ _______ _____ _____    ______ ____
ROOT
ATOM      1  C   UNL     1      -0.018   1.503   0.010  0.00  0.00    +0.048 C 
ATOM      2  C   UNL     1       0.002  -0.004   0.002  0.00  0.00    +0.005 A 
ATOM      3  C   UNL     1       0.006  -0.705  -1.200  0.00  0.00    +0.121 A 
ATOM      4  C   UNL     1       0.025  -2.123  -1.178  0.00  0.00    +0.272 A 
ATOM      5  O   UNL     1       0.029  -2.745  -2.226  0.00  0.00    -0.266 OA
ATOM      6  N   UNL     1       0.040  -2.786  -0.008  0.00  0.00    -0.273 N 
ATOM      7  C   UNL     1       0.036  -2.123   1.175  0.00  0.00    +0.282 A 
ATOM      8  C   UNL     1       0.023  -0.725   1.208  0.00  0.00    +0.155 A 
ATOM      9  O   UNL     1       0.051  -2.818   2.329  0.00  0.00    -0.265 OA
ENDROOT
BRANCH   8  10
ATOM     10  N   UNL     1       0.026  -0.067   2.400  0.00  0.00    -0.143 NA
ATOM     11  N   UNL     1       0.045  -0.733   3.504  0.00  0.00    -0.149 NA
BRANCH  11  12
ATOM     12  C   UNL     1       0.048  -0.072   4.702  0.00  0.00    +0.098 A 
ATOM     13  C   UNL     1       0.023   1.325   4.733  0.00  0.00    +0.030 A 
ATOM     14  C   UNL     1       0.026   1.984   5.944  0.00  0.00    +0.002 A 
ATOM     15  C   UNL     1       0.053   1.266   7.127  0.00  0.00    +0.001 A 
ATOM     16  C   UNL     1       0.077  -0.117   7.104  0.00  0.00    +0.014 A 
ATOM     17  C   UNL     1       0.069  -0.790   5.900  0.00  0.00    +0.082 A 
BRANCH  17  18
ATOM     18  C   UNL     1       0.088  -2.297   5.877  0.00  0.00    +0.419 C 
ATOM     19  F   UNL     1       0.108  -2.783   7.189  0.00  0.00    -0.166 F 
ATOM     20  F   UNL     1      -1.054  -2.768   5.222  0.00  0.00    -0.166 F 
ATOM     21  F   UNL     1       1.230  -2.738   5.199  0.00  0.00    -0.166 F 
ENDBRANCH  17  18
ENDBRANCH  11  12
ENDBRANCH   8  10
BRANCH   3  22
ATOM     22  C   UNL     1      -0.010  -0.001  -2.447  0.00  0.00    +0.105 C 
ATOM     23  N   UNL     1      -0.022   0.557  -3.437  0.00  0.00    -0.191 NA
ENDBRANCH   3  22
BRANCH   6  24
ATOM     24  C   UNL     1       0.060  -4.251  -0.011  0.00  0.00    +0.133 C 
BRANCH  24  25
ATOM     25  C   UNL     1       1.510  -4.741  -0.019  0.00  0.00    +0.057 C 
BRANCH  25  26
ATOM     26  C   UNL     1       1.531  -6.248  -0.023  0.00  0.00    -0.045 A 
ATOM     27  C   UNL     1       1.540  -6.941   1.174  0.00  0.00    +0.007 A 
ATOM     28  C   UNL     1       1.560  -8.322   1.173  0.00  0.00    +0.046 A 
ATOM     29  C   UNL     1       1.570  -9.014  -0.029  0.00  0.00    +0.120 A 
ATOM     30  C   UNL     1       1.559  -8.316  -1.228  0.00  0.00    +0.046 A 
ATOM     31  C   UNL     1       1.535  -6.935  -1.222  0.00  0.00    +0.007 A 
BRANCH  29  32
ATOM     32  O   UNL     1       1.589 -10.373  -0.032  0.00  0.00    -0.495 OA
ATOM     33  C   UNL     1       1.598 -11.019  -1.307  0.00  0.00    +0.277 C 
ENDBRANCH  29  32
ENDBRANCH  25  26
ENDBRANCH  24  25
ENDBRANCH   6  24
TORSDOF 8
