REMARK  Name = ZINC63823091
REMARK  12 active torsions:
REMARK  status: ('A' for Active; 'I' for Inactive)
REMARK    1  A    between atoms: C_1  and  C_2
REMARK    2  A    between atoms: C_5  and  C_27
REMARK    3  A    between atoms: C_7  and  N_8
REMARK    4  A    between atoms: C_9  and  C_11
REMARK    5  A    between atoms: N_13  and  C_14
REMARK    6  A    between atoms: C_14  and  C_15
REMARK    7  A    between atoms: C_14  and  C_24
REMARK    8  A    between atoms: C_18  and  C_21
REMARK    9  A    between atoms: C_21  and  C_22
REMARK   10  A    between atoms: C_21  and  C_23
REMARK   11  A    between atoms: C_24  and  C_25
REMARK   12  A    between atoms: C_24  and  C_26
REMARK                            x       y       z     vdW  Elec       q    Type
REMARK                         _______ _______ _______ _____ _____    ______ ____
ROOT
ATOM      1  C   UNL     1      -0.167   0.060   4.869  0.00  0.00    +0.300 C 
ATOM      2  O   UNL     1      -0.183   1.274   4.870  0.00  0.00    -0.265 OA
ATOM      3  N   UNL     1      -0.248  -0.615   6.033  0.00  0.00    -0.301 N 
ATOM      4  H   UNL     1      -0.235  -1.585   6.032  0.00  0.00    +0.150 HD
ENDROOT
BRANCH   1   6
ATOM      5  N   UNL     1       0.025  -0.009   2.416  0.00  0.00    -0.277 N 
ATOM      6  C   UNL     1      -0.057  -0.684   3.579  0.00  0.00    +0.303 C 
ATOM      7  O   UNL     1      -0.040  -1.898   3.579  0.00  0.00    -0.265 OA
ATOM      8  H   UNL     1       0.078   0.960   2.420  0.00  0.00    +0.155 HD
BRANCH   5  15
ATOM      9  C   UNL     1      -1.267   1.183   0.183  0.00  0.00    +0.045 C 
ATOM     10  C   UNL     1      -0.587  -0.158   0.086  0.00  0.00    -0.029 A 
ATOM     11  C   UNL     1      -0.576  -0.839  -1.117  0.00  0.00    +0.006 A 
ATOM     12  C   UNL     1       0.044  -2.068  -1.215  0.00  0.00    +0.013 A 
ATOM     13  C   UNL     1       0.664  -2.627  -0.096  0.00  0.00    +0.038 A 
ATOM     14  C   UNL     1       0.655  -1.941   1.117  0.00  0.00    +0.036 A 
ATOM     15  C   UNL     1       0.033  -0.704   1.204  0.00  0.00    +0.037 A 
BRANCH  13  16
ATOM     16  C   UNL     1       1.329  -3.944  -0.198  0.00  0.00    +0.242 C 
ATOM     17  O   UNL     1       1.869  -4.429   0.777  0.00  0.00    -0.270 OA
ATOM     18  N   UNL     1       1.337  -4.606  -1.372  0.00  0.00    -0.325 N 
ATOM     19  H   UNL     1       0.906  -4.219  -2.150  0.00  0.00    +0.145 HD
ATOM     20  H   UNL     1       1.773  -5.470  -1.438  0.00  0.00    +0.145 HD
ENDBRANCH  13  16
ENDBRANCH   5  15
ENDBRANCH   1   6
BRANCH   3  21
ATOM     21  C   UNL     1      -0.357   0.116   7.298  0.00  0.00    +0.106 C 
BRANCH  21  22
ATOM     22  C   UNL     1      -1.028  -0.758   8.327  0.00  0.00    -0.027 A 
ATOM     23  C   UNL     1      -0.717  -2.103   8.399  0.00  0.00    +0.006 A 
ATOM     24  C   UNL     1      -1.332  -2.904   9.343  0.00  0.00    +0.004 A 
ATOM     25  C   UNL     1      -2.258  -2.360  10.214  0.00  0.00    -0.045 A 
ATOM     26  C   UNL     1      -2.568  -1.015  10.142  0.00  0.00    +0.004 A 
ATOM     27  C   UNL     1      -1.949  -0.213   9.201  0.00  0.00    +0.006 A 
BRANCH  25  28
ATOM     28  C   UNL     1      -2.929  -3.234  11.242  0.00  0.00    +0.013 C 
ATOM     29  C   UNL     1      -2.614  -2.707  12.643  0.00  0.00    +0.012 C 
ATOM     30  C   UNL     1      -4.442  -3.215  11.018  0.00  0.00    +0.012 C 
ENDBRANCH  25  28
ENDBRANCH  21  22
BRANCH  21  31
ATOM     31  C   UNL     1       1.041   0.498   7.787  0.00  0.00    +0.008 C 
ATOM     32  C   UNL     1       1.722   1.385   6.743  0.00  0.00    +0.009 C 
ATOM     33  C   UNL     1       0.928   1.261   9.109  0.00  0.00    +0.009 C 
ENDBRANCH  21  31
ENDBRANCH   3  21
TORSDOF 7
