REMARK  Name = ZINC13645344
REMARK  5 active torsions:
REMARK  status: ('A' for Active; 'I' for Inactive)
REMARK    1  A    between atoms: C_1  and  C_2
REMARK    2  A    between atoms: C_6  and  C_7
REMARK    3  A    between atoms: C_18  and  S_23
REMARK    4  A    between atoms: S_23  and  N_26
REMARK    5  A    between atoms: N_26  and  C_27
REMARK                            x       y       z     vdW  Elec       q    Type
REMARK                         _______ _______ _______ _____ _____    ______ ____
ROOT
ATOM      1  C   UNL     1      -0.018   1.503   0.010  0.00  0.00    +0.112 C 
ATOM      2  C   UNL     1      -0.740   1.999   1.267  0.00  0.00    +0.029 C 
ATOM      3  C   UNL     1      -0.183   1.186   2.472  0.00  0.00    +0.033 C 
ATOM      4  C   UNL     1      -0.976  -0.105   2.422  0.00  0.00    -0.030 C 
ATOM      5  C   UNL     1      -2.093   0.068   1.759  0.00  0.00    -0.023 C 
ATOM      6  C   UNL     1      -2.202   1.512   1.260  0.00  0.00    +0.049 C 
ATOM      7  C   UNL     1      -2.841   1.602  -0.089  0.00  0.00    -0.018 A 
ATOM      8  C   UNL     1      -4.216   1.440  -0.187  0.00  0.00    +0.034 A 
ATOM      9  C   UNL     1      -4.846   1.517  -1.413  0.00  0.00    +0.106 A 
ATOM     10  C   UNL     1      -4.112   1.757  -2.560  0.00  0.00    +0.030 A 
ATOM     11  C   UNL     1      -2.744   1.921  -2.475  0.00  0.00    +0.025 A 
ATOM     12  C   UNL     1      -2.110   1.843  -1.242  0.00  0.00    +0.031 A 
ATOM     13  N   UNL     1      -0.732   1.991  -1.174  0.00  0.00    -0.336 N 
ATOM     14  H   UNL     1      -0.255   2.430  -1.896  0.00  0.00    +0.147 HD
ENDROOT
BRANCH   1  20
ATOM     15  C   UNL     1       2.396  -0.301   0.603  0.00  0.00    +0.044 C 
ATOM     16  C   UNL     1       1.034  -0.845   0.255  0.00  0.00    -0.038 A 
ATOM     17  C   UNL     1       0.819  -2.209   0.192  0.00  0.00    +0.011 A 
ATOM     18  C   UNL     1      -0.416  -2.665  -0.131  0.00  0.00    +0.046 A 
ATOM     19  S   UNL     1      -1.325  -1.145  -0.351  0.00  0.00    -0.099 S 
ATOM     20  C   UNL     1       0.002  -0.004   0.002  0.00  0.00    +0.013 A 
ENDBRANCH   1  20
BRANCH   9  21
ATOM     21  S   UNL     1      -6.593   1.308  -1.516  0.00  0.00    +0.059 S 
ATOM     22  O   UNL     1      -6.873   0.883  -2.842  0.00  0.00    -0.153 OA
ATOM     23  O   UNL     1      -6.980   0.554  -0.376  0.00  0.00    -0.153 OA
BRANCH  21  24
ATOM     24  N   UNL     1      -7.276   2.807  -1.346  0.00  0.00    -0.187 NA
ATOM     25  H   UNL     1      -7.831   3.002  -0.575  0.00  0.00    +0.148 HD
BRANCH  24  26
ATOM     26  C   UNL     1      -7.041   3.839  -2.359  0.00  0.00    +0.077 C 
ATOM     27  C   UNL     1      -5.871   4.724  -1.924  0.00  0.00    +0.020 C 
ATOM     28  C   UNL     1      -5.626   5.802  -2.982  0.00  0.00    +0.002 C 
ATOM     29  C   UNL     1      -6.884   6.659  -3.139  0.00  0.00    +0.000 C 
ATOM     30  C   UNL     1      -8.053   5.773  -3.574  0.00  0.00    +0.002 C 
ATOM     31  C   UNL     1      -8.299   4.696  -2.516  0.00  0.00    +0.020 C 
ENDBRANCH  24  26
ENDBRANCH  21  24
ENDBRANCH   9  21
TORSDOF 4
