REMARK  Name = ZINC06813385
REMARK  7 active torsions:
REMARK  status: ('A' for Active; 'I' for Inactive)
REMARK    1  A    between atoms: C_1  and  C_2
REMARK    2  A    between atoms: C_6  and  N_8
REMARK    3  A    between atoms: C_11  and  C_12
REMARK    4  A    between atoms: N_13  and  C_14
REMARK    5  A    between atoms: C_19  and  C_20
REMARK    6  A    between atoms: C_19  and  N_57
REMARK    7  A    between atoms: C_26  and  O_30
REMARK                            x       y       z     vdW  Elec       q    Type
REMARK                         _______ _______ _______ _____ _____    ______ ____
ROOT
ATOM      1  N   UNL     1       1.242  -2.081   0.055  0.00  0.00    -0.192 N 
ATOM      2  C   UNL     1       0.082  -2.765   0.156  0.00  0.00    +0.245 C 
ATOM      3  O   UNL     1      -0.979  -2.186   0.298  0.00  0.00    -0.274 OA
ATOM      4  C   UNL     1       0.143  -4.236   0.087  0.00  0.00    +0.199 C 
ATOM      5  C   UNL     1       1.471  -4.841  -0.086  0.00  0.00    +0.198 C 
ATOM      6  N   UNL     1       2.522  -4.043  -0.170  0.00  0.00    -0.131 NA
ATOM      7  C   UNL     1       2.410  -2.719  -0.108  0.00  0.00    +0.339 C 
ATOM      8  O   UNL     1       3.424  -2.050  -0.199  0.00  0.00    -0.250 OA
ENDROOT
BRANCH   1  14
ATOM      9  C   UNL     1      -0.072   2.225  -1.924  0.00  0.00    +0.044 C 
ATOM     10  C   UNL     1       0.594   1.430  -0.831  0.00  0.00    -0.049 A 
ATOM     11  C   UNL     1       1.187   2.083   0.234  0.00  0.00    +0.003 A 
ATOM     12  C   UNL     1       1.799   1.357   1.240  0.00  0.00    +0.002 A 
ATOM     13  C   UNL     1       1.819  -0.023   1.183  0.00  0.00    +0.024 A 
ATOM     14  C   UNL     1       1.224  -0.681   0.115  0.00  0.00    +0.046 A 
ATOM     15  C   UNL     1       0.610   0.051  -0.893  0.00  0.00    +0.027 A 
ENDBRANCH   1  14
BRANCH   4  16
ATOM     16  C   UNL     1      -1.000  -5.014   0.183  0.00  0.00    +0.100 C 
ATOM     17  N   UNL     1      -2.213  -4.429   0.202  0.00  0.00    -0.291 NA
BRANCH  17  18
ATOM     18  C   UNL     1      -3.413  -5.238   0.425  0.00  0.00    +0.101 C 
ATOM     19  C   UNL     1      -3.889  -5.827  -0.906  0.00  0.00    +0.008 C 
ATOM     20  C   UNL     1      -5.177  -6.621  -0.675  0.00  0.00    -0.076 C 
ATOM     21  C   UNL     1      -5.791  -5.195   1.185  0.00  0.00    -0.076 C 
ATOM     22  C   UNL     1      -4.522  -4.358   1.010  0.00  0.00    +0.008 C 
ATOM     23  N   UNL     1      -6.210  -5.713  -0.136  0.00  0.00    +0.382 N 
ATOM     24  H   UNL     1      -6.329  -4.923  -0.781  0.00  0.00    -0.081 HD
BRANCH  23  25
ATOM     25  C   UNL     1      -7.497  -6.428  -0.011  0.00  0.00    -0.043 C 
BRANCH  25  26
ATOM     26  C   UNL     1      -8.006  -6.753  -1.392  0.00  0.00    -0.064 A 
ATOM     27  C   UNL     1      -8.813  -5.851  -2.061  0.00  0.00    +0.002 A 
ATOM     28  C   UNL     1      -9.277  -6.146  -3.329  0.00  0.00    +0.000 A 
ATOM     29  C   UNL     1      -8.942  -7.348  -3.925  0.00  0.00    +0.000 A 
ATOM     30  C   UNL     1      -8.140  -8.252  -3.254  0.00  0.00    +0.000 A 
ATOM     31  C   UNL     1      -7.672  -7.954  -1.988  0.00  0.00    +0.002 A 
ENDBRANCH  25  26
ENDBRANCH  23  25
ENDBRANCH  17  18
ENDBRANCH   4  16
BRANCH   5  32
ATOM     32  O   UNL     1       1.614  -6.181  -0.157  0.00  0.00    -0.496 OA
ATOM     33  H   UNL     1       2.529  -6.474  -0.272  0.00  0.00    +0.293 HD
ENDBRANCH   5  32
TORSDOF 6
