REMARK  Name = ZINC27754380
REMARK  8 active torsions:
REMARK  status: ('A' for Active; 'I' for Inactive)
REMARK    1  A    between atoms: C_1  and  O_2
REMARK    2  A    between atoms: O_2  and  C_3
REMARK    3  A    between atoms: C_5  and  C_10
REMARK    4  A    between atoms: C_8  and  O_9
REMARK    5  A    between atoms: C_12  and  C_25
REMARK    6  A    between atoms: C_14  and  C_19
REMARK    7  A    between atoms: C_14  and  O_24
REMARK    8  A    between atoms: C_25  and  C_27
REMARK                            x       y       z     vdW  Elec       q    Type
REMARK                         _______ _______ _______ _____ _____    ______ ____
ROOT
ATOM      1  C   UNL     1       3.913   2.821   0.118  0.00  0.00    +0.120 C 
ATOM      2  C   UNL     1       3.952   2.524  -1.385  0.00  0.00    +0.144 C 
ATOM      3  C   UNL     1       5.334   2.912  -1.923  0.00  0.00    +0.178 C 
ATOM      4  N   UNL     1       5.603   4.312  -1.591  0.00  0.00    -0.267 N 
ATOM      5  C   UNL     1       5.071   4.885  -0.501  0.00  0.00    +0.302 C 
ATOM      6  O   UNL     1       5.334   6.048  -0.266  0.00  0.00    -0.253 OA
ATOM      7  N   UNL     1       4.259   4.226   0.339  0.00  0.00    -0.292 N 
ATOM      8  H   UNL     1       6.253   4.916  -2.241  0.00  0.00    +0.153 HD
ATOM      9  H   UNL     1       3.851   4.763   1.208  0.00  0.00    +0.151 HD
ENDROOT
BRANCH   1  12
ATOM     10  C   UNL     1       0.908   1.035   1.551  0.00  0.00    +0.162 A 
ATOM     11  C   UNL     1       2.181   1.282   1.063  0.00  0.00    +0.055 A 
ATOM     12  C   UNL     1       2.528   2.554   0.648  0.00  0.00    -0.023 A 
ATOM     13  C   UNL     1       1.606   3.582   0.719  0.00  0.00    +0.009 A 
ATOM     14  C   UNL     1       0.334   3.342   1.204  0.00  0.00    +0.049 A 
ATOM     15  C   UNL     1      -0.019   2.070   1.622  0.00  0.00    +0.158 A 
BRANCH  10  17
ATOM     16  C   UNL     1       1.569  -1.229   1.858  0.00  0.00    +0.277 C 
ATOM     17  O   UNL     1       0.566  -0.217   1.959  0.00  0.00    -0.491 OA
ENDBRANCH  10  17
BRANCH  15  18
ATOM     18  O   UNL     1      -1.270   1.832   2.101  0.00  0.00    -0.503 OA
ATOM     19  H   UNL     1      -2.002   2.651   2.156  0.00  0.00    +0.292 HD
ENDBRANCH  15  18
ENDBRANCH   1  12
BRANCH   3  20
ATOM     20  C   UNL     1       6.384   2.034  -1.293  0.00  0.00    +0.040 A 
ATOM     21  C   UNL     1       6.869   0.842  -1.720  0.00  0.00    +0.016 A 
ATOM     22  C   UNL     1       7.843   0.208  -0.972  0.00  0.00    +0.008 A 
ATOM     23  C   UNL     1       8.285   0.797   0.166  0.00  0.00    +0.045 A 
ATOM     24  S   UNL     1       7.319   2.298   0.205  0.00  0.00    -0.097 S 
ENDBRANCH   3  20
BRANCH   3  25
ATOM     25  O   UNL     1       5.358   2.743  -3.342  0.00  0.00    -0.366 OA
ATOM     26  H   UNL     1       6.273   2.974  -3.907  0.00  0.00    +0.212 HD
ENDBRANCH   3  25
BRANCH   2  27
ATOM     27  C   UNL     1       2.888   3.327  -2.087  0.00  0.00    +0.245 C 
ATOM     28  O   UNL     1       2.633   4.447  -1.716  0.00  0.00    -0.287 OA
BRANCH  27  29
ATOM     29  C   UNL     1       2.141   2.732  -3.253  0.00  0.00    +0.451 C 
ATOM     30  F   UNL     1       1.207   3.657  -3.731  0.00  0.00    -0.163 F 
ATOM     31  F   UNL     1       3.045   2.413  -4.272  0.00  0.00    -0.163 F 
ATOM     32  F   UNL     1       1.478   1.571  -2.839  0.00  0.00    -0.163 F 
ENDBRANCH  27  29
ENDBRANCH   2  27
TORSDOF 7
