REMARK  Name = ZINC14085995
REMARK  8 active torsions:
REMARK  status: ('A' for Active; 'I' for Inactive)
REMARK    1  A    between atoms: C_1  and  C_2
REMARK    2  A    between atoms: C_2  and  C_3
REMARK    3  A    between atoms: C_6  and  S_9
REMARK    4  A    between atoms: S_9  and  C_10
REMARK    5  A    between atoms: C_10  and  C_12
REMARK    6  A    between atoms: C_10  and  C_13
REMARK    7  A    between atoms: C_19  and  C_25
REMARK    8  A    between atoms: C_20  and  C_24
REMARK                            x       y       z     vdW  Elec       q    Type
REMARK                         _______ _______ _______ _____ _____    ______ ____
ROOT
ATOM      1  C   UNL     1       6.418  -1.545  -2.155  0.00  0.00    +0.124 A 
ATOM      2  N   UNL     1       7.401  -0.796  -1.594  0.00  0.00    -0.309 N 
ATOM      3  H   UNL     1       7.169  -0.127  -0.931  0.00  0.00    +0.170 HD
ATOM      4  C   UNL     1       8.692  -0.962  -1.938  0.00  0.00    +0.260 A 
ATOM      5  O   UNL     1       9.562  -0.282  -1.424  0.00  0.00    -0.267 OA
ATOM      6  C   UNL     1       9.026  -1.953  -2.919  0.00  0.00    +0.075 A 
ATOM      7  C   UNL     1      10.324  -2.320  -3.451  0.00  0.00    -0.026 A 
ATOM      8  C   UNL     1      10.403  -3.290  -4.376  0.00  0.00    -0.008 A 
ATOM      9  S   UNL     1       8.706  -3.788  -4.597  0.00  0.00    -0.073 S 
ATOM     10  C   UNL     1       7.941  -2.679  -3.443  0.00  0.00    +0.116 A 
ATOM     11  N   UNL     1       6.691  -2.459  -3.047  0.00  0.00    -0.225 NA
ATOM     12  C   UNL     1      11.632  -3.830  -5.061  0.00  0.00    +0.052 C 
ATOM     13  C   UNL     1      11.570  -1.618  -2.974  0.00  0.00    +0.045 C 
ENDROOT
BRANCH   1  14
ATOM     14  C   UNL     1       4.987  -1.323  -1.737  0.00  0.00    +0.117 C 
ATOM     15  C   UNL     1       4.620  -2.312  -0.629  0.00  0.00    +0.027 C 
BRANCH  14  16
ATOM     16  S   UNL     1       3.894  -1.577  -3.162  0.00  0.00    -0.076 S 
BRANCH  16  20
ATOM     17  C   UNL     1       0.707  -0.490  -1.238  0.00  0.00    +0.152 A 
ATOM     18  H   UNL     1       1.037  -1.432  -4.190  0.00  0.00    +0.191 HD
ATOM     19  N   UNL     1       2.015  -0.730  -1.339  0.00  0.00    -0.206 NA
ATOM     20  C   UNL     1       2.297  -1.141  -2.558  0.00  0.00    +0.185 A 
ATOM     21  N   UNL     1       1.145  -1.169  -3.262  0.00  0.00    -0.254 N 
ATOM     22  N   UNL     1       0.135  -0.749  -2.382  0.00  0.00    -0.157 NA
BRANCH  17  24
ATOM     23  C   UNL     1      -0.019   1.526   0.010  0.00  0.00    +0.012 C 
ATOM     24  C   UNL     1       0.002  -0.004   0.002  0.00  0.00    +0.075 C 
ENDBRANCH  17  24
ENDBRANCH  16  20
ENDBRANCH  14  16
ENDBRANCH   1  14
TORSDOF 4
