REMARK  Name = ZINC03572672
REMARK  8 active torsions:
REMARK  status: ('A' for Active; 'I' for Inactive)
REMARK    1  A    between atoms: C_1  and  C_2
REMARK    2  A    between atoms: C_2  and  C_3
REMARK    3  A    between atoms: C_2  and  C_4
REMARK    4  A    between atoms: C_2  and  C_5
REMARK    5  A    between atoms: C_11  and  C_19
REMARK    6  A    between atoms: C_19  and  O_21
REMARK    7  A    between atoms: O_21  and  C_22
REMARK    8  A    between atoms: C_22  and  C_23
REMARK                            x       y       z     vdW  Elec       q    Type
REMARK                         _______ _______ _______ _____ _____    ______ ____
ROOT
ATOM      1  C   UNL     1       0.011   1.072   2.506  0.00  0.00    -0.001 C 
ATOM      2  C   UNL     1       1.450   1.600   2.501  0.00  0.00    +0.010 C 
ATOM      3  C   UNL     1       2.232   0.886   3.600  0.00  0.00    +0.056 C 
ATOM      4  C   UNL     1       1.498   0.975   4.916  0.00  0.00    +0.046 A 
ATOM      5  C   UNL     1       0.148   1.292   4.986  0.00  0.00    -0.011 A 
ATOM      6  C   UNL     1      -0.482   1.353   6.229  0.00  0.00    +0.073 A 
ATOM      7  C   UNL     1       0.291   1.090   7.386  0.00  0.00    +0.015 A 
ATOM      8  C   UNL     1      -0.270   1.134   8.669  0.00  0.00    +0.011 A 
ATOM      9  C   UNL     1       0.513   0.876   9.755  0.00  0.00    +0.001 A 
ATOM     10  C   UNL     1       1.863   0.569   9.605  0.00  0.00    +0.002 A 
ATOM     11  C   UNL     1       2.439   0.518   8.373  0.00  0.00    +0.028 A 
ATOM     12  C   UNL     1       1.664   0.778   7.228  0.00  0.00    +0.072 A 
ATOM     13  N   UNL     1       2.197   0.736   6.009  0.00  0.00    -0.251 NA
ATOM     14  C   UNL     1      -0.684   1.585   3.766  0.00  0.00    +0.042 C 
ENDROOT
BRANCH   1  16
ATOM     15  C   UNL     1      -0.013   1.086   0.008  0.00  0.00    +0.011 C 
ATOM     16  C   UNL     1      -0.729   1.579   1.267  0.00  0.00    -0.035 C 
ATOM     17  C   UNL     1      -0.750   3.109   1.275  0.00  0.00    +0.011 C 
ATOM     18  C   UNL     1      -2.164   1.050   1.278  0.00  0.00    +0.011 C 
ENDBRANCH   1  16
BRANCH   6  19
ATOM     19  C   UNL     1      -1.919   1.682   6.335  0.00  0.00    +0.341 C 
ATOM     20  O   UNL     1      -2.269   2.839   6.450  0.00  0.00    -0.245 OA
BRANCH  19  21
ATOM     21  O   UNL     1      -2.839   0.699   6.304  0.00  0.00    -0.452 OA
BRANCH  21  22
ATOM     22  C   UNL     1      -4.231   1.095   6.413  0.00  0.00    +0.328 C 
BRANCH  22  23
ATOM     23  C   UNL     1      -5.108  -0.129   6.359  0.00  0.00    +0.258 C 
ATOM     24  O   UNL     1      -4.609  -1.227   6.241  0.00  0.00    -0.272 OA
ATOM     25  N   UNL     1      -6.448  -0.003   6.443  0.00  0.00    -0.238 N 
ATOM     26  C   UNL     1      -7.232  -1.098   6.395  0.00  0.00    +0.303 C 
ATOM     27  O   UNL     1      -6.732  -2.199   6.277  0.00  0.00    -0.253 OA
ATOM     28  N   UNL     1      -8.571  -0.972   6.479  0.00  0.00    -0.313 N 
ATOM     29  H   UNL     1      -6.847   0.876   6.538  0.00  0.00    +0.159 HD
ATOM     30  H   UNL     1      -8.971  -0.093   6.574  0.00  0.00    +0.146 HD
ATOM     31  H   UNL     1      -9.136  -1.760   6.445  0.00  0.00    +0.146 HD
ENDBRANCH  22  23
ENDBRANCH  21  22
ENDBRANCH  19  21
ENDBRANCH   6  19
TORSDOF 5
