REMARK  Name = ZINC44295848
REMARK  10 active torsions:
REMARK  status: ('A' for Active; 'I' for Inactive)
REMARK    1  A    between atoms: C_1  and  C_2
REMARK    2  A    between atoms: C_2  and  C_3
REMARK    3  A    between atoms: C_2  and  C_4
REMARK    4  A    between atoms: C_2  and  O_5
REMARK    5  A    between atoms: O_5  and  C_6
REMARK    6  A    between atoms: N_8  and  CA_9
REMARK    7  A    between atoms: CA_9  and  C_11
REMARK    8  A    between atoms: CA_9  and  C_21
REMARK    9  A    between atoms: C_11  and  C_12
REMARK   10  A    between atoms: C_17  and  O_18
REMARK                            x       y       z     vdW  Elec       q    Type
REMARK                         _______ _______ _______ _____ _____    ______ ____
ROOT
ATOM      1  CA  UNL     1       4.035  -0.071  -2.601  0.00  0.00    +0.193 C 
ENDROOT
BRANCH   1   4
ATOM      2  C   UNL     1       1.952  -0.085  -1.337  0.00  0.00    +0.401 C 
ATOM      3  O   UNL     1       2.488   0.619  -0.503  0.00  0.00    -0.226 OA
ATOM      4  N   UNL     1       2.641  -0.485  -2.424  0.00  0.00    -0.267 N 
ATOM      5  H   UNL     1       2.213  -1.047  -3.089  0.00  0.00    +0.153 HD
BRANCH   2   6
ATOM      6  O   UNL     1       0.671  -0.465  -1.174  0.00  0.00    -0.445 OA
BRANCH   6   8
ATOM      7  C   UNL     1      -0.019   1.526   0.010  0.00  0.00    +0.055 C 
ATOM      8  C   UNL     1       0.002  -0.004   0.002  0.00  0.00    +0.107 C 
ATOM      9  C   UNL     1       0.742  -0.511   1.242  0.00  0.00    +0.055 C 
ATOM     10  C   UNL     1      -1.433  -0.534   0.013  0.00  0.00    +0.055 C 
ENDBRANCH   6   8
ENDBRANCH   2   6
ENDBRANCH   1   4
BRANCH   1  11
ATOM     11  C   UNL     1       4.939  -1.021  -1.858  0.00  0.00    +0.376 C 
ATOM     12  O   UNL     1       4.611  -2.186  -1.711  0.00  0.00    -0.244 OA
ATOM     13  OXT UNL     1       5.998  -0.624  -1.404  0.00  0.00    -0.244 OA
ENDBRANCH   1  11
BRANCH   1  14
ATOM     14  C   UNL     1       4.388  -0.092  -4.090  0.00  0.00    +0.073 C 
BRANCH  14  15
ATOM     15  C   UNL     1       3.569   0.946  -4.814  0.00  0.00    -0.001 A 
ATOM     16  C   UNL     1       2.381   0.587  -5.423  0.00  0.00    +0.027 A 
ATOM     17  C   UNL     1       1.629   1.539  -6.088  0.00  0.00    +0.043 A 
ATOM     18  C   UNL     1       2.063   2.851  -6.145  0.00  0.00    +0.039 A 
ATOM     19  C   UNL     1       3.251   3.214  -5.538  0.00  0.00    +0.061 A 
ATOM     20  C   UNL     1       4.004   2.261  -4.865  0.00  0.00    +0.134 A 
ATOM     21 BR   UNL     1       3.845   5.007  -5.617  0.00  0.00    -0.046 Br
ATOM     22 CL   UNL     1       0.137   1.086  -6.852  0.00  0.00    -0.083 Cl
BRANCH  20  23
ATOM     23  O   UNL     1       5.170   2.616  -4.263  0.00  0.00    -0.505 OA
ATOM     24  H   UNL     1       5.946   2.545  -4.835  0.00  0.00    +0.292 HD
ENDBRANCH  20  23
ENDBRANCH  14  15
ENDBRANCH   1  14
TORSDOF 7
