REMARK  Name = ZINC42824433
REMARK  4 active torsions:
REMARK  status: ('A' for Active; 'I' for Inactive)
REMARK    1  A    between atoms: C_4  and  C_8
REMARK    2  A    between atoms: C_6  and  N_7
REMARK    3  A    between atoms: N_12  and  C_13
REMARK    4  A    between atoms: C_13  and  C_14
REMARK                            x       y       z     vdW  Elec       q    Type
REMARK                         _______ _______ _______ _____ _____    ______ ____
ROOT
ATOM      1  C   UNL     1       3.950  -0.831   0.103  0.00  0.00    +0.183 A 
ATOM      2  N   UNL     1       4.255  -2.111   0.086  0.00  0.00    -0.108 NA
ATOM      3  N   UNL     1       5.504  -2.272  -0.169  0.00  0.00    -0.023 NA
ATOM      4  N   UNL     1       6.080  -1.131  -0.331  0.00  0.00    -0.044 NA
ATOM      5  N   UNL     1       5.089  -0.147  -0.165  0.00  0.00    -0.223 N 
ENDROOT
BRANCH   1   9
ATOM      6  C   UNL     1       0.108   0.838   0.852  0.00  0.00    +0.024 A 
ATOM      7  C   UNL     1       0.622  -0.122   1.704  0.00  0.00    +0.022 A 
ATOM      8  C   UNL     1       1.869  -0.667   1.466  0.00  0.00    +0.052 A 
ATOM      9  C   UNL     1       2.614  -0.249   0.361  0.00  0.00    +0.041 A 
ATOM     10  C   UNL     1       2.095   0.718  -0.498  0.00  0.00    +0.035 A 
ATOM     11  C   UNL     1       0.843   1.260  -0.250  0.00  0.00    +0.025 A 
ATOM     12 CL   UNL     1       2.509  -1.872   2.539  0.00  0.00    -0.083 Cl
BRANCH  11  13
ATOM     13  N   UNL     1       0.319   2.230  -1.109  0.00  0.00    -0.358 N 
ATOM     14  H   UNL     1      -0.557   2.609  -0.936  0.00  0.00    +0.142 HD
ATOM     15  H   UNL     1       0.831   2.525  -1.878  0.00  0.00    +0.142 HD
ENDBRANCH  11  13
ENDBRANCH   1   9
BRANCH   5  16
ATOM     16  C   UNL     1       5.253   1.306  -0.259  0.00  0.00    +0.179 C 
BRANCH  16  17
ATOM     17  C   UNL     1       5.563   1.875   1.127  0.00  0.00    +0.140 C 
ATOM     18  C   UNL     1       5.653   3.401   1.044  0.00  0.00    +0.033 C 
ATOM     19  C   UNL     1       6.022   3.959   2.422  0.00  0.00    +0.005 C 
ATOM     20  C   UNL     1       7.337   3.323   2.882  0.00  0.00    +0.028 C 
ATOM     21  C   UNL     1       7.182   1.800   2.894  0.00  0.00    +0.160 C 
ATOM     22  O   UNL     1       6.808   1.350   1.591  0.00  0.00    -0.375 OA
ENDBRANCH  16  17
ENDBRANCH   5  16
TORSDOF 4
