REMARK  Name = ZINC13012107
REMARK  14 active torsions:
REMARK  status: ('A' for Active; 'I' for Inactive)
REMARK    1  A    between atoms: C_1  and  C_2
REMARK    2  A    between atoms: C_5  and  S_26
REMARK    3  A    between atoms: C_7  and  N_8
REMARK    4  A    between atoms: C_9  and  C_11
REMARK    5  A    between atoms: C_11  and  O_12
REMARK    6  A    between atoms: O_12  and  C_13
REMARK    7  A    between atoms: C_13  and  C_15
REMARK    8  A    between atoms: C_16  and  C_25
REMARK    9  A    between atoms: C_17  and  C_22
REMARK   10  A    between atoms: C_18  and  C_21
REMARK   11  A    between atoms: C_22  and  C_24
REMARK   12  A    between atoms: S_26  and  N_29
REMARK   13  A    between atoms: N_29  and  C_30
REMARK   14  A    between atoms: N_29  and  C_31
REMARK                            x       y       z     vdW  Elec       q    Type
REMARK                         _______ _______ _______ _____ _____    ______ ____
ROOT
ATOM      1  N   UNL     1       2.356   3.889   0.001  0.00  0.00    -0.282 N 
ATOM      2  C   UNL     1       2.336   5.233  -0.094  0.00  0.00    +0.255 C 
ATOM      3  O   UNL     1       1.278   5.827  -0.081  0.00  0.00    -0.272 OA
ATOM      4  H   UNL     1       3.202   3.420   0.071  0.00  0.00    +0.155 HD
ENDROOT
BRANCH   1  11
ATOM      5  C   UNL     1       2.321   1.325   1.234  0.00  0.00    +0.045 C 
ATOM      6  C   UNL     1       1.094   1.915   0.588  0.00  0.00    -0.029 A 
ATOM      7  C   UNL     1      -0.093   1.208   0.583  0.00  0.00    +0.007 A 
ATOM      8  C   UNL     1      -1.217   1.746  -0.016  0.00  0.00    +0.029 A 
ATOM      9  C   UNL     1      -1.161   2.998  -0.601  0.00  0.00    +0.107 A 
ATOM     10  C   UNL     1       0.022   3.710  -0.599  0.00  0.00    +0.052 A 
ATOM     11  C   UNL     1       1.155   3.170  -0.004  0.00  0.00    +0.038 A 
BRANCH   9  12
ATOM     12  S   UNL     1      -2.599   3.682  -1.355  0.00  0.00    +0.060 S 
ATOM     13  O   UNL     1      -3.716   3.053  -0.745  0.00  0.00    -0.153 OA
ATOM     14  O   UNL     1      -2.425   5.092  -1.356  0.00  0.00    -0.153 OA
BRANCH  12  15
ATOM     15  N   UNL     1      -2.594   3.204  -2.941  0.00  0.00    -0.183 NA
ATOM     16  C   UNL     1      -3.250   1.954  -3.331  0.00  0.00    +0.131 C 
ATOM     17  C   UNL     1      -1.933   4.032  -3.954  0.00  0.00    +0.131 C 
ENDBRANCH  12  15
ENDBRANCH   9  12
ENDBRANCH   1  11
BRANCH   2  18
ATOM     18  C   UNL     1       3.628   5.998  -0.215  0.00  0.00    +0.328 C 
BRANCH  18  19
ATOM     19  O   UNL     1       3.343   7.420  -0.301  0.00  0.00    -0.451 OA
BRANCH  19  20
ATOM     20  C   UNL     1       4.399   8.251  -0.414  0.00  0.00    +0.356 C 
ATOM     21  O   UNL     1       5.528   7.799  -0.441  0.00  0.00    -0.243 OA
BRANCH  20  22
ATOM     22  C   UNL     1       4.186   9.699  -0.506  0.00  0.00    +0.128 A 
ATOM     23  C   UNL     1       5.163  10.643  -0.618  0.00  0.00    -0.008 A 
ATOM     24  C   UNL     1       4.517  11.901  -0.679  0.00  0.00    +0.041 A 
ATOM     25  C   UNL     1       3.155  11.661  -0.592  0.00  0.00    +0.024 A 
ATOM     26  N   UNL     1       2.965  10.337  -0.488  0.00  0.00    -0.352 N 
ATOM     27  H   UNL     1       2.103   9.898  -0.412  0.00  0.00    +0.166 HD
ATOM     28  C   UNL     1       2.072  12.709  -0.609  0.00  0.00    +0.064 C 
ATOM     29  C   UNL     1       6.649  10.395  -0.670  0.00  0.00    +0.047 C 
BRANCH  24  30
ATOM     30  C   UNL     1       5.166  13.210  -0.806  0.00  0.00    +0.162 C 
ATOM     31  O   UNL     1       5.407  13.866   0.185  0.00  0.00    -0.292 OA
ATOM     32  C   UNL     1       5.534  13.740  -2.168  0.00  0.00    +0.091 C 
ENDBRANCH  24  30
ENDBRANCH  20  22
ENDBRANCH  19  20
ENDBRANCH  18  19
ENDBRANCH   2  18
TORSDOF 8
