REMARK  Name = ZINC32655262
REMARK  9 active torsions:
REMARK  status: ('A' for Active; 'I' for Inactive)
REMARK    1  A    between atoms: C_1  and  C_2
REMARK    2  A    between atoms: C_3  and  C_30
REMARK    3  A    between atoms: C_4  and  C_23
REMARK    4  A    between atoms: C_11  and  S_15
REMARK    5  A    between atoms: S_15  and  C_16
REMARK    6  A    between atoms: C_16  and  C_17
REMARK    7  A    between atoms: C_26  and  O_29
REMARK    8  A    between atoms: C_30  and  O_32
REMARK    9  A    between atoms: O_32  and  C_33
REMARK                            x       y       z     vdW  Elec       q    Type
REMARK                         _______ _______ _______ _____ _____    ______ ____
ROOT
ATOM      1  C   UNL     1       9.526  -3.091   2.974  0.00  0.00    +0.061 C 
ATOM      2  C   UNL     1       9.001  -3.246   1.569  0.00  0.00    +0.017 C 
ATOM      3  C   UNL     1       9.822  -3.696   0.606  0.00  0.00    +0.065 C 
ATOM      4  C   UNL     1       9.361  -3.881  -0.810  0.00  0.00    +0.096 C 
ATOM      5  C   UNL     1       8.072  -3.150  -1.056  0.00  0.00    +0.069 A 
ATOM      6  C   UNL     1       7.640  -2.908  -2.365  0.00  0.00    +0.258 A 
ATOM      7  O   UNL     1       8.305  -3.281  -3.318  0.00  0.00    -0.267 OA
ATOM      8  N   UNL     1       6.474  -2.253  -2.553  0.00  0.00    -0.302 N 
ATOM      9  H   UNL     1       6.116  -2.051  -3.573  0.00  0.00    +0.171 HD
ATOM     10  C   UNL     1       5.740  -1.842  -1.482  0.00  0.00    +0.171 A 
ATOM     11  N   UNL     1       6.146  -2.063  -0.248  0.00  0.00    -0.208 NA
ATOM     12  C   UNL     1       7.291  -2.708  -0.002  0.00  0.00    +0.135 A 
ATOM     13  N   UNL     1       7.700  -2.926   1.302  0.00  0.00    -0.302 N 
ATOM     14  H   UNL     1       6.974  -2.840   2.124  0.00  0.00    +0.153 HD
ENDROOT
BRANCH   4  15
ATOM     15  C   UNL     1       9.154  -5.351  -1.075  0.00  0.00    -0.035 A 
ATOM     16  C   UNL     1       8.222  -6.060  -0.340  0.00  0.00    +0.008 A 
ATOM     17  C   UNL     1       8.027  -7.405  -0.584  0.00  0.00    +0.046 A 
ATOM     18  C   UNL     1       8.776  -8.048  -1.560  0.00  0.00    +0.117 A 
ATOM     19  C   UNL     1       9.715  -7.335  -2.292  0.00  0.00    +0.046 A 
ATOM     20  C   UNL     1       9.902  -5.988  -2.047  0.00  0.00    +0.008 A 
BRANCH  18  21
ATOM     21  O   UNL     1       8.591  -9.373  -1.798  0.00  0.00    -0.507 OA
ATOM     22  H   UNL     1       9.185  -9.881  -2.571  0.00  0.00    +0.292 HD
ENDBRANCH  18  21
ENDBRANCH   4  15
BRANCH   3  23
ATOM     23  C   UNL     1      11.161  -4.004   0.936  0.00  0.00    +0.337 C 
ATOM     24  O   UNL     1      11.554  -3.860   2.079  0.00  0.00    -0.245 OA
BRANCH  23  25
ATOM     25  O   UNL     1      12.003  -4.457  -0.016  0.00  0.00    -0.465 OA
ATOM     26  C   UNL     1      13.342  -4.749   0.389  0.00  0.00    +0.280 C 
ENDBRANCH  23  25
ENDBRANCH   3  23
BRANCH  10  27
ATOM     27  S   UNL     1       4.221  -0.993  -1.752  0.00  0.00    -0.083 S 
BRANCH  27  28
ATOM     28  C   UNL     1       3.711  -0.707  -0.039  0.00  0.00    +0.112 C 
BRANCH  28  29
ATOM     29  C   UNL     1       2.396   0.029  -0.022  0.00  0.00    -0.037 A 
ATOM     30  C   UNL     1       1.208  -0.679  -0.014  0.00  0.00    +0.004 A 
ATOM     31  C   UNL     1       0.002  -0.004   0.002  0.00  0.00    +0.000 A 
ATOM     32  C   UNL     1      -0.017   1.378   0.010  0.00  0.00    +0.000 A 
ATOM     33  C   UNL     1       1.171   2.086   0.002  0.00  0.00    +0.000 A 
ATOM     34  C   UNL     1       2.377   1.411  -0.014  0.00  0.00    +0.004 A 
ENDBRANCH  28  29
ENDBRANCH  27  28
ENDBRANCH  10  27
TORSDOF 7
