REMARK  Name = ZINC35451769
REMARK  7 active torsions:
REMARK  status: ('A' for Active; 'I' for Inactive)
REMARK    1  A    between atoms: C_1  and  C_2
REMARK    2  A    between atoms: C_2  and  C_4
REMARK    3  A    between atoms: C_2  and  N_11
REMARK    4  A    between atoms: C_4  and  C_5
REMARK    5  A    between atoms: C_5  and  C_6
REMARK    6  A    between atoms: N_11  and  C_12
REMARK    7  A    between atoms: C_16  and  C_18
REMARK                            x       y       z     vdW  Elec       q    Type
REMARK                         _______ _______ _______ _____ _____    ______ ____
ROOT
ATOM      1  N   UNL     1       0.688  -0.476  -1.203  0.00  0.00    -0.341 N 
ATOM      2  H   UNL     1       1.632  -0.695  -1.170  0.00  0.00    +0.146 HD
ENDROOT
BRANCH   1   3
ATOM      3  C   UNL     1      -0.019  -0.613  -2.401  0.00  0.00    +0.028 A 
ATOM      4  C   UNL     1      -1.371  -0.295  -2.450  0.00  0.00    +0.023 A 
ATOM      5  C   UNL     1      -2.074  -0.428  -3.632  0.00  0.00    +0.003 A 
ATOM      6  C   UNL     1      -1.439  -0.878  -4.772  0.00  0.00    +0.013 A 
ATOM      7  C   UNL     1      -0.081  -1.200  -4.733  0.00  0.00    +0.040 A 
ATOM      8  C   UNL     1       0.630  -1.060  -3.541  0.00  0.00    +0.036 A 
BRANCH   7   9
ATOM      9  C   UNL     1       0.602  -1.682  -5.952  0.00  0.00    +0.248 A 
ATOM     10  N   UNL     1       1.865  -2.023  -6.053  0.00  0.00    -0.108 NA
ATOM     11  N   UNL     1       2.109  -2.393  -7.261  0.00  0.00    -0.116 NA
ATOM     12  C   UNL     1       1.020  -2.304  -7.973  0.00  0.00    +0.332 A 
ATOM     13  O   UNL     1       0.042  -1.858  -7.166  0.00  0.00    -0.423 OA
ENDBRANCH   7   9
ENDBRANCH   1   3
BRANCH   1  15
ATOM     14  C   UNL     1      -0.019   1.526   0.010  0.00  0.00    +0.028 C 
ATOM     15  C   UNL     1       0.002  -0.004   0.002  0.00  0.00    +0.068 C 
BRANCH  15  16
ATOM     16  C   UNL     1       0.742  -0.511   1.242  0.00  0.00    +0.029 C 
BRANCH  16  17
ATOM     17  C   UNL     1       0.655  -2.037   1.299  0.00  0.00    +0.076 C 
BRANCH  17  18
ATOM     18  C   UNL     1       1.384  -2.537   2.519  0.00  0.00    +0.105 A 
ATOM     19  C   UNL     1       0.842  -2.728   3.736  0.00  0.00    +0.044 A 
ATOM     20  C   UNL     1       1.877  -3.200   4.575  0.00  0.00    +0.041 A 
ATOM     21  C   UNL     1       2.990  -3.269   3.822  0.00  0.00    +0.195 A 
ATOM     22  O   UNL     1       2.684  -2.871   2.576  0.00  0.00    -0.468 OA
ENDBRANCH  17  18
ENDBRANCH  16  17
ENDBRANCH  15  16
ENDBRANCH   1  15
TORSDOF 6
