REMARK  Name = ZINC67042807
REMARK  7 active torsions:
REMARK  status: ('A' for Active; 'I' for Inactive)
REMARK    1  A    between atoms: C_4  and  N_23
REMARK    2  A    between atoms: C_6  and  C_7
REMARK    3  A    between atoms: C_7  and  N_8
REMARK    4  A    between atoms: N_11  and  N_12
REMARK    5  A    between atoms: C_13  and  C_15
REMARK    6  A    between atoms: C_15  and  C_16
REMARK    7  A    between atoms: C_16  and  C_17
REMARK                            x       y       z     vdW  Elec       q    Type
REMARK                         _______ _______ _______ _____ _____    ______ ____
ROOT
ATOM      1  N   UNL     1      -1.712  -1.040  -1.368  0.00  0.00    -0.294 N 
ATOM      2  C   UNL     1      -2.844  -1.732  -1.607  0.00  0.00    +0.316 C 
ATOM      3  O   UNL     1      -3.509  -2.150  -0.678  0.00  0.00    -0.251 OA
ATOM      4  N   UNL     1      -3.240  -1.960  -2.875  0.00  0.00    -0.218 N 
ATOM      5  H   UNL     1      -1.183  -0.707  -2.109  0.00  0.00    +0.151 HD
ATOM      6  H   UNL     1      -4.054  -2.457  -3.046  0.00  0.00    +0.174 HD
ENDROOT
BRANCH   4   7
ATOM      7  N   UNL     1      -2.474  -1.478  -3.945  0.00  0.00    -0.233 N 
ATOM      8  C   UNL     1      -2.870  -1.706  -5.213  0.00  0.00    +0.229 C 
ATOM      9  O   UNL     1      -3.889  -2.328  -5.428  0.00  0.00    -0.274 OA
ATOM     10  H   UNL     1      -1.660  -0.980  -3.773  0.00  0.00    +0.173 HD
BRANCH   8  11
ATOM     11  C   UNL     1      -2.047  -1.188  -6.364  0.00  0.00    +0.097 C 
BRANCH  11  12
ATOM     12  C   UNL     1      -2.712  -1.581  -7.684  0.00  0.00    +0.013 C 
BRANCH  12  13
ATOM     13  C   UNL     1      -1.876  -1.055  -8.853  0.00  0.00    -0.011 C 
ATOM     14  C   UNL     1      -1.882   0.475  -8.836  0.00  0.00    +0.003 C 
ATOM     15  C   UNL     1      -1.046   1.002 -10.004  0.00  0.00    +0.000 C 
ATOM     16  C   UNL     1      -1.642   0.504 -11.323  0.00  0.00    +0.000 C 
ATOM     17  C   UNL     1      -1.636  -1.026 -11.339  0.00  0.00    +0.000 C 
ATOM     18  C   UNL     1      -2.472  -1.552 -10.171  0.00  0.00    +0.003 C 
ENDBRANCH  12  13
ENDBRANCH  11  12
ENDBRANCH   8  11
ENDBRANCH   4   7
BRANCH   1  19
ATOM     19  C   UNL     1      -1.282  -0.792   0.011  0.00  0.00    +0.141 C 
BRANCH  19  25
ATOM     20  C   UNL     1      -0.017   1.384   0.010  0.00  0.00    +0.023 A 
ATOM     21  C   UNL     1       1.178   2.077   0.002  0.00  0.00    +0.084 A 
ATOM     22  N   UNL     1       2.331   1.436  -0.013  0.00  0.00    -0.350 N 
ATOM     23  C   UNL     1       2.391   0.113  -0.021  0.00  0.00    +0.099 A 
ATOM     24  C   UNL     1       1.226  -0.648  -0.014  0.00  0.00    +0.047 A 
ATOM     25  C   UNL     1       0.002  -0.004   0.002  0.00  0.00    -0.026 A 
ATOM     26  H   UNL     1       3.156   1.947  -0.018  0.00  0.00    +0.166 HD
BRANCH  23  27
ATOM     27  N   UNL     1       3.628  -0.520  -0.036  0.00  0.00    -0.317 N 
ATOM     28  C   UNL     1       3.846  -1.974  -0.053  0.00  0.00    +0.106 C 
ATOM     29  C   UNL     1       5.371  -2.209  -0.040  0.00  0.00    +0.020 C 
ATOM     30  C   UNL     1       5.921  -0.886   0.554  0.00  0.00    +0.020 C 
ATOM     31  C   UNL     1       4.939   0.154  -0.045  0.00  0.00    +0.106 C 
ENDBRANCH  23  27
ENDBRANCH  19  25
ENDBRANCH   1  19
TORSDOF 7
