REMARK  Name = ZINC61642600
REMARK  7 active torsions:
REMARK  status: ('A' for Active; 'I' for Inactive)
REMARK    1  A    between atoms: C_1  and  N_2
REMARK    2  A    between atoms: N_2  and  C_3
REMARK    3  A    between atoms: N_2  and  C_4
REMARK    4  A    between atoms: C_4  and  C_5
REMARK    5  A    between atoms: N_10  and  S_11
REMARK    6  A    between atoms: S_11  and  C_14
REMARK    7  A    between atoms: C_17  and  N_21
REMARK                            x       y       z     vdW  Elec       q    Type
REMARK                         _______ _______ _______ _____ _____    ______ ____
ROOT
ATOM      1  S   UNL     1      -2.497  -0.229   0.820  0.00  0.00    +0.064 S 
ATOM      2  O   UNL     1      -1.686   0.112  -0.296  0.00  0.00    -0.153 OA
ATOM      3  O   UNL     1      -3.494  -1.240   0.757  0.00  0.00    -0.153 OA
ENDROOT
BRANCH   1   4
ATOM      4  C   UNL     1      -3.311   1.250   1.322  0.00  0.00    +0.142 A 
ATOM      5  C   UNL     1      -4.465   1.180   2.083  0.00  0.00    +0.070 A 
ATOM      6  C   UNL     1      -5.106   2.339   2.478  0.00  0.00    +0.044 A 
ATOM      7  C   UNL     1      -4.591   3.576   2.110  0.00  0.00    +0.027 A 
ATOM      8  C   UNL     1      -3.433   3.643   1.347  0.00  0.00    +0.044 A 
ATOM      9  C   UNL     1      -2.793   2.481   0.959  0.00  0.00    +0.070 A 
ATOM     10 CL   UNL     1      -1.342   2.565   0.010  0.00  0.00    -0.081 Cl
ATOM     11 CL   UNL     1      -5.108  -0.366   2.542  0.00  0.00    -0.081 Cl
BRANCH   7  12
ATOM     12  N   UNL     1      -5.237   4.749   2.507  0.00  0.00    -0.358 N 
ATOM     13  H   UNL     1      -6.046   4.700   3.040  0.00  0.00    +0.142 HD
ATOM     14  H   UNL     1      -4.876   5.612   2.250  0.00  0.00    +0.142 HD
ENDBRANCH   7  12
ENDBRANCH   1   4
BRANCH   1  19
ATOM     15  C   UNL     1      -0.093  -0.161   2.219  0.00  0.00    +0.063 C 
ATOM     16  C   UNL     1       0.471  -0.809   3.501  0.00  0.00    +0.020 C 
ATOM     17  C   UNL     1      -0.809  -1.199   4.285  0.00  0.00    +0.019 C 
ATOM     18  C   UNL     1      -1.766  -1.604   3.137  0.00  0.00    +0.110 C 
ATOM     19  N   UNL     1      -1.465  -0.658   2.042  0.00  0.00    -0.175 NA
BRANCH  15  20
ATOM     20  C   UNL     1       0.764  -0.559   1.015  0.00  0.00    -0.059 C 
BRANCH  20  22
ATOM     21  C   UNL     1       2.829  -0.408   2.227  0.00  0.00    -0.097 C 
ATOM     22  N   UNL     1       2.063   0.123   1.091  0.00  0.00    +0.377 N 
ATOM     23  C   UNL     1       2.810  -0.105  -0.153  0.00  0.00    -0.097 C 
ATOM     24  H   UNL     1       1.916   1.113   1.219  0.00  0.00    -0.083 HD
ENDBRANCH  20  22
ENDBRANCH  15  20
ENDBRANCH   1  19
TORSDOF 5
