REMARK  Name = ZINC23751670
REMARK  10 active torsions:
REMARK  status: ('A' for Active; 'I' for Inactive)
REMARK    1  A    between atoms: C_1  and  C_2
REMARK    2  A    between atoms: C_2  and  C_24
REMARK    3  A    between atoms: N_5  and  C_9
REMARK    4  A    between atoms: C_9  and  C_10
REMARK    5  A    between atoms: N_12  and  C_13
REMARK    6  A    between atoms: C_15  and  C_20
REMARK    7  A    between atoms: C_18  and  O_19
REMARK    8  A    between atoms: C_20  and  C_21
REMARK    9  A    between atoms: C_20  and  C_22
REMARK   10  A    between atoms: C_20  and  C_23
REMARK                            x       y       z     vdW  Elec       q    Type
REMARK                         _______ _______ _______ _____ _____    ______ ____
ROOT
ATOM      1  C   UNL     1      -2.482   0.988   0.131  0.00  0.00    +0.214 C 
ENDROOT
BRANCH   1   6
ATOM      2  C   UNL     1      -4.908   4.815  -1.114  0.00  0.00    +0.047 C 
ATOM      3  C   UNL     1      -5.200   3.432  -0.527  0.00  0.00    +0.135 C 
ATOM      4  C   UNL     1      -4.168   2.425  -0.996  0.00  0.00    +0.251 C 
ATOM      5  O   UNL     1      -3.941   2.088  -2.138  0.00  0.00    -0.272 OA
ATOM      6  N   UNL     1      -3.557   1.983   0.120  0.00  0.00    -0.215 N 
ATOM      7  C   UNL     1      -4.056   2.561   1.219  0.00  0.00    +0.310 C 
ATOM      8  O   UNL     1      -3.668   2.321   2.345  0.00  0.00    -0.252 OA
ATOM      9  N   UNL     1      -5.034   3.441   0.936  0.00  0.00    -0.281 N 
ATOM     10  H   UNL     1      -5.662   4.097   1.557  0.00  0.00    +0.152 HD
BRANCH   3  11
ATOM     11  C   UNL     1      -6.589   2.982  -0.900  0.00  0.00    -0.015 A 
ATOM     12  C   UNL     1      -6.785   2.217  -2.036  0.00  0.00    +0.009 A 
ATOM     13  C   UNL     1      -8.057   1.799  -2.376  0.00  0.00    +0.039 A 
ATOM     14  C   UNL     1      -9.137   2.155  -1.586  0.00  0.00    +0.123 A 
ATOM     15  C   UNL     1      -8.940   2.925  -0.452  0.00  0.00    +0.039 A 
ATOM     16  C   UNL     1      -7.666   3.337  -0.111  0.00  0.00    +0.009 A 
ATOM     17  F   UNL     1     -10.382   1.752  -1.921  0.00  0.00    -0.205 F 
ENDBRANCH   3  11
ENDBRANCH   1   6
BRANCH   1  18
ATOM     18  C   UNL     1      -1.150   1.686   0.018  0.00  0.00    +0.235 C 
ATOM     19  O   UNL     1      -1.104   2.895  -0.063  0.00  0.00    -0.274 OA
ATOM     20  N   UNL     1      -0.011   0.966   0.007  0.00  0.00    -0.281 N 
ATOM     21  H   UNL     1      -0.055  -0.133  -0.009  0.00  0.00    +0.155 HD
BRANCH  20  22
ATOM     22  C   UNL     1       1.230   1.617   0.017  0.00  0.00    +0.076 A 
ATOM     23  C   UNL     1       1.338   2.898   0.539  0.00  0.00    +0.031 A 
ATOM     24  C   UNL     1       2.564   3.536   0.553  0.00  0.00    -0.040 A 
ATOM     25  C   UNL     1       3.682   2.906   0.037  0.00  0.00    +0.008 A 
ATOM     26  C   UNL     1       3.580   1.632  -0.490  0.00  0.00    +0.047 A 
ATOM     27  C   UNL     1       2.356   0.983  -0.502  0.00  0.00    +0.138 A 
BRANCH  24  28
ATOM     28  C   UNL     1       2.682   4.925   1.127  0.00  0.00    -0.013 C 
ATOM     29  C   UNL     1       4.132   5.401   1.015  0.00  0.00    +0.015 C 
ATOM     30  C   UNL     1       1.771   5.876   0.349  0.00  0.00    +0.015 C 
ATOM     31  C   UNL     1       2.263   4.906   2.598  0.00  0.00    +0.015 C 
ENDBRANCH  24  28
BRANCH  27  32
ATOM     32  O   UNL     1       2.254  -0.270  -1.021  0.00  0.00    -0.505 OA
ATOM     33  H   UNL     1       3.144  -0.769  -1.431  0.00  0.00    +0.292 HD
ENDBRANCH  27  32
ENDBRANCH  20  22
ENDBRANCH   1  18
TORSDOF 6
