REMARK  Name = ZINC20717259
REMARK  7 active torsions:
REMARK  status: ('A' for Active; 'I' for Inactive)
REMARK    1  A    between atoms: C_1  and  C_2
REMARK    2  A    between atoms: C_2  and  O_3
REMARK    3  A    between atoms: O_3  and  C_4
REMARK    4  A    between atoms: C_7  and  C_10
REMARK    5  A    between atoms: C_20  and  N_28
REMARK    6  A    between atoms: C_23  and  O_26
REMARK    7  A    between atoms: O_26  and  C_27
REMARK                            x       y       z     vdW  Elec       q    Type
REMARK                         _______ _______ _______ _____ _____    ______ ____
ROOT
ATOM      1  C   UNL     1       2.550  -1.653  -0.538  0.00  0.00    +0.105 C 
ATOM      2  C   UNL     1       1.661  -0.472  -0.209  0.00  0.00    +0.029 C 
ATOM      3  C   UNL     1       0.453  -0.208  -1.115  0.00  0.00    +0.033 C 
ATOM      4  C   UNL     1       0.289   1.307  -0.969  0.00  0.00    -0.030 C 
ATOM      5  C   UNL     1       1.455   1.861  -0.655  0.00  0.00    -0.023 C 
ATOM      6  C   UNL     1       2.484   0.794  -0.603  0.00  0.00    +0.051 C 
ATOM      7  C   UNL     1       3.663   0.834   0.284  0.00  0.00    +0.014 A 
ATOM      8  C   UNL     1       4.228   2.034   0.667  0.00  0.00    +0.132 A 
ATOM      9  C   UNL     1       5.340   2.058   1.485  0.00  0.00    +0.037 A 
ATOM     10  C   UNL     1       5.892   0.868   1.926  0.00  0.00    +0.050 A 
ATOM     11  C   UNL     1       5.329  -0.337   1.556  0.00  0.00    +0.141 A 
ATOM     12  C   UNL     1       4.197  -0.375   0.733  0.00  0.00    +0.076 A 
ATOM     13  N   UNL     1       3.671  -1.629   0.414  0.00  0.00    -0.334 N 
ATOM     14  H   UNL     1       4.054  -2.569   0.838  0.00  0.00    +0.147 HD
ENDROOT
BRANCH   1  18
ATOM     15  C   UNL     1       0.354  -5.294  -0.109  0.00  0.00    +0.121 A 
ATOM     16  C   UNL     1       0.549  -4.745  -1.368  0.00  0.00    +0.046 A 
ATOM     17  C   UNL     1       1.259  -3.567  -1.504  0.00  0.00    +0.009 A 
ATOM     18  C   UNL     1       1.775  -2.937  -0.387  0.00  0.00    -0.027 A 
ATOM     19  C   UNL     1       1.587  -3.486   0.868  0.00  0.00    +0.009 A 
ATOM     20  C   UNL     1       0.873  -4.660   1.010  0.00  0.00    +0.046 A 
BRANCH  15  21
ATOM     21  O   UNL     1      -0.344  -6.452   0.027  0.00  0.00    -0.492 OA
BRANCH  21  23
ATOM     22  C   UNL     1      -1.311  -8.260   1.307  0.00  0.00    +0.048 C 
ATOM     23  C   UNL     1      -0.505  -6.960   1.353  0.00  0.00    +0.225 C 
ENDBRANCH  21  23
ENDBRANCH  15  21
ENDBRANCH   1  18
BRANCH   8  24
ATOM     24  N   UNL     1       3.636   3.306   0.196  0.00  0.00    +0.057 N 
ATOM     25  O   UNL     1       3.400   3.467  -0.988  0.00  0.00    -0.126 OA
ATOM     26  O   UNL     1       3.384   4.192   0.993  0.00  0.00    -0.126 OA
ENDBRANCH   8  24
BRANCH  11  27
ATOM     27  O   UNL     1       5.880  -1.500   1.997  0.00  0.00    -0.493 OA
ATOM     28  C   UNL     1       7.033  -1.395   2.834  0.00  0.00    +0.277 C 
ENDBRANCH  11  27
TORSDOF 5
