REMARK  Name = ZINC13464789
REMARK  4 active torsions:
REMARK  status: ('A' for Active; 'I' for Inactive)
REMARK    1  A    between atoms: C_6  and  S_7
REMARK    2  A    between atoms: S_7  and  N_10
REMARK    3  A    between atoms: N_10  and  C_11
REMARK    4  A    between atoms: C_12  and  C_19
REMARK                            x       y       z     vdW  Elec       q    Type
REMARK                         _______ _______ _______ _____ _____    ______ ____
ROOT
ATOM      1  S   UNL     1       3.763  -0.794  -0.082  0.00  0.00    +0.073 S 
ATOM      2  O   UNL     1       4.696   0.151   0.422  0.00  0.00    -0.150 OA
ATOM      3  O   UNL     1       3.494  -2.025   0.575  0.00  0.00    -0.150 OA
ENDROOT
BRANCH   1   9
ATOM      4  C   UNL     1       1.046  -0.675  -0.307  0.00  0.00    +0.032 A 
ATOM      5  C   UNL     1      -0.166  -0.018  -0.420  0.00  0.00    +0.051 A 
ATOM      6  C   UNL     1      -0.204   1.367  -0.452  0.00  0.00    +0.162 A 
ATOM      7  C   UNL     1       0.978   2.094  -0.367  0.00  0.00    +0.164 A 
ATOM      8  C   UNL     1       2.189   1.429  -0.254  0.00  0.00    +0.078 A 
ATOM      9  C   UNL     1       2.221   0.047  -0.225  0.00  0.00    +0.112 A 
ATOM     10  O   UNL     1       0.962   3.455  -0.388  0.00  0.00    -0.485 OA
ATOM     11  C   UNL     1      -0.232   4.077  -0.877  0.00  0.00    +0.270 C 
ATOM     12  C   UNL     1      -1.436   3.388  -0.221  0.00  0.00    +0.270 C 
ATOM     13  O   UNL     1      -1.403   2.000  -0.572  0.00  0.00    -0.485 OA
ENDBRANCH   1   9
BRANCH   1  14
ATOM     14  N   UNL     1       4.256  -1.175  -1.616  0.00  0.00    -0.214 N 
ATOM     15  H   UNL     1       4.299  -2.103  -1.896  0.00  0.00    +0.174 HD
BRANCH  14  16
ATOM     16  C   UNL     1       4.610  -0.165  -2.503  0.00  0.00    +0.076 A 
ATOM     17  C   UNL     1       3.783   0.134  -3.597  0.00  0.00    +0.088 A 
ATOM     18  C   UNL     1       4.148   1.156  -4.479  0.00  0.00    +0.032 A 
ATOM     19  C   UNL     1       5.318   1.855  -4.275  0.00  0.00    +0.020 A 
ATOM     20  C   UNL     1       6.135   1.553  -3.196  0.00  0.00    +0.032 A 
ATOM     21  C   UNL     1       5.787   0.550  -2.314  0.00  0.00    +0.042 A 
ATOM     22 BR   UNL     1       6.910   0.149  -0.847  0.00  0.00    -0.048 Br
ATOM     23 BR   UNL     1       5.812   3.232  -5.473  0.00  0.00    -0.050 Br
BRANCH  17  24
ATOM     24  C   UNL     1       2.536  -0.620  -3.812  0.00  0.00    +0.388 C 
ATOM     25  O   UNL     1       2.271  -1.571  -3.103  0.00  0.00    -0.241 OA
ATOM     26  O   UNL     1       1.689  -0.256  -4.795  0.00  0.00    -0.241 OA
ENDBRANCH  17  24
ENDBRANCH  14  16
ENDBRANCH   1  14
TORSDOF 4
