REMARK  Name = ZINC39325839
REMARK  10 active torsions:
REMARK  status: ('A' for Active; 'I' for Inactive)
REMARK    1  A    between atoms: C_1  and  C_2
REMARK    2  A    between atoms: C_2  and  C_3
REMARK    3  A    between atoms: C_3  and  C_4
REMARK    4  A    between atoms: C_4  and  C_5
REMARK    5  A    between atoms: C_7  and  C_19
REMARK    6  A    between atoms: C_9  and  C_17
REMARK    7  A    between atoms: C_10  and  N_16
REMARK    8  A    between atoms: C_22  and  O_27
REMARK    9  A    between atoms: C_23  and  O_25
REMARK   10  A    between atoms: O_25  and  C_26
REMARK                            x       y       z     vdW  Elec       q    Type
REMARK                         _______ _______ _______ _____ _____    ______ ____
ROOT
ATOM      1  C   UNL     1       1.492  -2.540   2.454  0.00  0.00    +0.069 C 
ATOM      2  C   UNL     1       0.916  -2.897   3.576  0.00  0.00    +0.030 C 
ATOM      3  C   UNL     1      -0.497  -2.822   4.086  0.00  0.00    +0.098 C 
ATOM      4  C   UNL     1      -0.386  -2.366   5.529  0.00  0.00    +0.097 C 
ATOM      5  C   UNL     1       0.805  -2.286   6.158  0.00  0.00    +0.195 C 
ATOM      6  O   UNL     1       2.013  -2.554   5.629  0.00  0.00    -0.448 OA
ATOM      7  C   UNL     1       2.055  -3.390   4.470  0.00  0.00    +0.343 C 
ATOM      8  N   UNL     1       3.232  -3.124   3.637  0.00  0.00    -0.138 NA
ATOM      9  N   UNL     1       2.838  -2.690   2.547  0.00  0.00    -0.155 NA
ENDROOT
BRANCH   3  10
ATOM     10  C   UNL     1      -1.149  -4.179   4.015  0.00  0.00    -0.031 A 
ATOM     11  C   UNL     1      -0.612  -5.240   4.720  0.00  0.00    +0.008 A 
ATOM     12  C   UNL     1      -1.206  -6.487   4.657  0.00  0.00    +0.049 A 
ATOM     13  C   UNL     1      -2.343  -6.675   3.888  0.00  0.00    +0.158 A 
ATOM     14  C   UNL     1      -2.884  -5.607   3.180  0.00  0.00    +0.162 A 
ATOM     15  C   UNL     1      -2.287  -4.359   3.250  0.00  0.00    +0.054 A 
BRANCH  14  16
ATOM     16  O   UNL     1      -4.000  -5.786   2.424  0.00  0.00    -0.491 OA
ATOM     17  C   UNL     1      -4.500  -4.645   1.723  0.00  0.00    +0.277 C 
ENDBRANCH  14  16
BRANCH  13  18
ATOM     18  O   UNL     1      -2.929  -7.901   3.826  0.00  0.00    -0.503 OA
ATOM     19  H   UNL     1      -3.602  -8.050   4.503  0.00  0.00    +0.292 HD
ENDBRANCH  13  18
ENDBRANCH   3  10
BRANCH   5  20
ATOM     20  N   UNL     1       0.783  -1.889   7.471  0.00  0.00    -0.329 N 
ATOM     21  H   UNL     1      -0.062  -1.683   7.901  0.00  0.00    +0.145 HD
ATOM     22  H   UNL     1       1.611  -1.815   7.970  0.00  0.00    +0.145 HD
ENDBRANCH   5  20
BRANCH   4  23
ATOM     23  C   UNL     1      -1.576  -2.010   6.242  0.00  0.00    +0.101 C 
ATOM     24  N   UNL     1      -2.520  -1.728   6.807  0.00  0.00    -0.191 NA
ENDBRANCH   4  23
BRANCH   1  25
ATOM     25  C   UNL     1       0.763  -2.041   1.233  0.00  0.00    +0.057 C 
BRANCH  25  26
ATOM     26  C   UNL     1       0.742  -0.511   1.242  0.00  0.00    +0.006 C 
BRANCH  26  28
ATOM     27  C   UNL     1      -0.019   1.526   0.010  0.00  0.00    +0.004 C 
ATOM     28  C   UNL     1       0.002  -0.004   0.002  0.00  0.00    -0.003 C 
ENDBRANCH  26  28
ENDBRANCH  25  26
ENDBRANCH   1  25
TORSDOF 8
