REMARK  Name = ZINC37055313
REMARK  6 active torsions:
REMARK  status: ('A' for Active; 'I' for Inactive)
REMARK    1  A    between atoms: C_1  and  O_2
REMARK    2  A    between atoms: O_2  and  C_3
REMARK    3  A    between atoms: C_6  and  N_9
REMARK    4  A    between atoms: N_9  and  S_10
REMARK    5  A    between atoms: S_10  and  C_13
REMARK    6  A    between atoms: C_16  and  N_20
REMARK                            x       y       z     vdW  Elec       q    Type
REMARK                         _______ _______ _______ _____ _____    ______ ____
ROOT
ATOM      1  S   UNL     1      -6.252  -1.536   0.046  0.00  0.00    +0.094 S 
ATOM      2  O   UNL     1      -6.264  -0.853   1.292  0.00  0.00    -0.148 OA
ATOM      3  O   UNL     1      -6.282  -0.850  -1.198  0.00  0.00    -0.148 OA
ENDROOT
BRANCH   1   4
ATOM      4  C   UNL     1      -7.637  -2.624   0.054  0.00  0.00    +0.138 A 
ATOM      5  C   UNL     1      -8.185  -3.054  -1.142  0.00  0.00    +0.047 A 
ATOM      6  C   UNL     1      -9.272  -3.907  -1.139  0.00  0.00    +0.040 A 
ATOM      7  C   UNL     1      -9.814  -4.334   0.067  0.00  0.00    +0.027 A 
ATOM      8  C   UNL     1      -9.262  -3.902   1.266  0.00  0.00    +0.040 A 
ATOM      9  C   UNL     1      -8.172  -3.053   1.256  0.00  0.00    +0.047 A 
ATOM     10 BR   UNL     1      -7.414  -2.469   2.888  0.00  0.00    -0.048 Br
ATOM     11 BR   UNL     1      -7.446  -2.471  -2.782  0.00  0.00    -0.048 Br
BRANCH   7  12
ATOM     12  N   UNL     1     -10.913  -5.197   0.073  0.00  0.00    -0.358 N 
ATOM     13  H   UNL     1     -11.298  -5.498  -0.764  0.00  0.00    +0.142 HD
ATOM     14  H   UNL     1     -11.291  -5.494   0.916  0.00  0.00    +0.142 HD
ENDBRANCH   7  12
ENDBRANCH   1   4
BRANCH   1  15
ATOM     15  N   UNL     1      -4.889  -2.477   0.035  0.00  0.00    -0.096 NA
BRANCH  15  19
ATOM     16  C   UNL     1      -1.199  -0.637   0.010  0.00  0.00    +0.214 A 
ATOM     17  C   UNL     1      -1.244  -2.025   0.009  0.00  0.00    +0.069 A 
ATOM     18  C   UNL     1      -2.472  -2.661   0.017  0.00  0.00    +0.033 A 
ATOM     19  C   UNL     1      -3.625  -1.877   0.026  0.00  0.00    +0.093 A 
ATOM     20  C   UNL     1      -3.502  -0.496   0.027  0.00  0.00    +0.141 A 
ATOM     21  N   UNL     1      -2.313   0.076   0.025  0.00  0.00    -0.219 NA
BRANCH  16  23
ATOM     22  C   UNL     1      -0.017   1.425   0.010  0.00  0.00    +0.279 C 
ATOM     23  O   UNL     1       0.002  -0.004   0.002  0.00  0.00    -0.480 OA
ENDBRANCH  16  23
ENDBRANCH  15  19
ENDBRANCH   1  15
TORSDOF 5
