REMARK  Name = ZINC31913079
REMARK  8 active torsions:
REMARK  status: ('A' for Active; 'I' for Inactive)
REMARK    1  A    between atoms: C_1  and  C_2
REMARK    2  A    between atoms: C_9  and  C_20
REMARK    3  A    between atoms: C_10  and  C_11
REMARK    4  A    between atoms: C_11  and  C_13
REMARK    5  A    between atoms: C_11  and  N_19
REMARK    6  A    between atoms: C_20  and  C_21
REMARK    7  A    between atoms: C_20  and  C_22
REMARK    8  A    between atoms: C_20  and  C_23
REMARK                            x       y       z     vdW  Elec       q    Type
REMARK                         _______ _______ _______ _____ _____    ______ ____
ROOT
ATOM      1  C   UNL     1      -2.980  -2.041   6.676  0.00  0.00    +0.044 C 
ATOM      2  C   UNL     1      -2.214  -1.686   5.428  0.00  0.00    -0.046 A 
ATOM      3  C   UNL     1      -2.885  -1.145   4.319  0.00  0.00    +0.021 A 
ATOM      4  C   UNL     1      -2.202  -0.825   3.200  0.00  0.00    +0.093 A 
ATOM      5  N   UNL     1      -0.853  -1.021   3.129  0.00  0.00    -0.303 N 
ATOM      6  C   UNL     1      -0.171  -1.547   4.196  0.00  0.00    +0.116 A 
ATOM      7  C   UNL     1      -0.870  -1.886   5.371  0.00  0.00    +0.048 A 
ATOM      8  N   UNL     1       1.110  -1.630   3.863  0.00  0.00    -0.343 N 
ATOM      9  C   UNL     1       1.269  -1.180   2.616  0.00  0.00    +0.045 A 
ATOM     10  C   UNL     1       0.066  -0.790   2.141  0.00  0.00    +0.066 A 
ATOM     11  H   UNL     1       1.841  -2.026   4.584  0.00  0.00    +0.167 HD
ENDROOT
BRANCH   9  12
ATOM     12  C   UNL     1       2.574  -1.115   1.865  0.00  0.00    +0.004 C 
ATOM     13  C   UNL     1       2.869   0.337   1.481  0.00  0.00    +0.017 C 
ATOM     14  C   UNL     1       3.700  -1.647   2.753  0.00  0.00    +0.017 C 
ATOM     15  C   UNL     1       2.476  -1.968   0.599  0.00  0.00    +0.017 C 
ENDBRANCH   9  12
BRANCH  10  16
ATOM     16  C   UNL     1      -0.214  -0.216   0.776  0.00  0.00    +0.131 C 
BRANCH  16  17
ATOM     17  C   UNL     1      -0.470   1.264   0.897  0.00  0.00    -0.022 A 
ATOM     18  C   UNL     1      -1.650   1.738   1.450  0.00  0.00    +0.025 A 
ATOM     19  C   UNL     1      -1.848   3.102   1.548  0.00  0.00    +0.111 A 
ATOM     20  N   UNL     1      -0.934   3.949   1.116  0.00  0.00    -0.263 NA
ATOM     21  C   UNL     1       0.197   3.535   0.581  0.00  0.00    +0.111 A 
ATOM     22  C   UNL     1       0.467   2.185   0.454  0.00  0.00    +0.025 A 
ENDBRANCH  16  17
BRANCH  16  23
ATOM     23  N   UNL     1      -1.396  -0.872   0.202  0.00  0.00    -0.319 NA
ATOM     24  H   UNL     1      -1.600  -0.452  -0.794  0.00  0.00    +0.119 HD
ATOM     25  H   UNL     1      -1.209  -1.952   0.113  0.00  0.00    +0.119 HD
ENDBRANCH  16  23
ENDBRANCH  10  16
TORSDOF 4
