REMARK  Name = ZINC09194836
REMARK  5 active torsions:
REMARK  status: ('A' for Active; 'I' for Inactive)
REMARK    1  A    between atoms: C_4  and  N_26
REMARK    2  A    between atoms: C_5  and  C_7
REMARK    3  A    between atoms: C_10  and  C_12
REMARK    4  A    between atoms: N_14  and  C_15
REMARK    5  A    between atoms: C_16  and  C_23
REMARK                            x       y       z     vdW  Elec       q    Type
REMARK                         _______ _______ _______ _____ _____    ______ ____
ROOT
ATOM      1  C   UNL     1       2.193   6.802   1.249  0.00  0.00    +0.284 C 
ATOM      2  O   UNL     1       1.885   7.928   0.904  0.00  0.00    -0.266 OA
ATOM      3  N   UNL     1       3.062   6.622   2.263  0.00  0.00    -0.273 N 
ATOM      4  H   UNL     1       3.308   5.725   2.538  0.00  0.00    +0.156 HD
ENDROOT
BRANCH   3   5
ATOM      5  C   UNL     1       3.605   7.719   2.912  0.00  0.00    +0.085 A 
ATOM      6  C   UNL     1       4.500   7.737   3.969  0.00  0.00    +0.068 A 
ATOM      7  C   UNL     1       4.925   9.043   4.474  0.00  0.00    -0.023 A 
ATOM      8  C   UNL     1       4.379  10.101   3.849  0.00  0.00    -0.004 A 
ATOM      9  S   UNL     1       3.323   9.399   2.606  0.00  0.00    -0.077 S 
ATOM     10  C   UNL     1       4.860  11.406   4.426  0.00  0.00    +0.043 C 
ATOM     11  C   UNL     1       6.126  11.033   5.227  0.00  0.00    +0.010 C 
ATOM     12  C   UNL     1       5.856   9.555   5.573  0.00  0.00    +0.037 C 
BRANCH   6  13
ATOM     13  C   UNL     1       5.008   6.494   4.556  0.00  0.00    +0.244 C 
ATOM     14  O   UNL     1       6.023   5.984   4.118  0.00  0.00    -0.270 OA
ATOM     15  N   UNL     1       4.351   5.915   5.580  0.00  0.00    -0.325 N 
ATOM     16  H   UNL     1       3.543   6.321   5.929  0.00  0.00    +0.145 HD
ATOM     17  H   UNL     1       4.688   5.092   5.969  0.00  0.00    +0.145 HD
ENDBRANCH   6  13
ENDBRANCH   3   5
BRANCH   1  21
ATOM     18  C   UNL     1       1.173   3.563   0.009  0.00  0.00    +0.138 A 
ATOM     19  C   UNL     1       0.445   4.358  -0.830  0.00  0.00    +0.051 A 
ATOM     20  C   UNL     1       0.724   5.684  -0.485  0.00  0.00    +0.055 A 
ATOM     21  C   UNL     1       1.619   5.643   0.562  0.00  0.00    +0.190 A 
ATOM     22  O   UNL     1       1.872   4.348   0.847  0.00  0.00    -0.450 OA
BRANCH  18  27
ATOM     23  C   UNL     1       0.002  -0.004   0.002  0.00  0.00    +0.001 A 
ATOM     24  C   UNL     1       1.208  -0.683  -0.014  0.00  0.00    +0.002 A 
ATOM     25  C   UNL     1       2.402   0.016  -0.021  0.00  0.00    +0.033 A 
ATOM     26  C   UNL     1       2.398   1.395  -0.013  0.00  0.00    +0.137 A 
ATOM     27  C   UNL     1       1.185   2.086   0.002  0.00  0.00    +0.047 A 
ATOM     28  C   UNL     1      -0.017   1.375   0.010  0.00  0.00    +0.014 A 
BRANCH  26  29
ATOM     29  N   UNL     1       3.677   2.141  -0.020  0.00  0.00    +0.057 N 
ATOM     30  O   UNL     1       4.734   1.536  -0.034  0.00  0.00    -0.126 OA
ATOM     31  O   UNL     1       3.672   3.359  -0.013  0.00  0.00    -0.126 OA
ENDBRANCH  26  29
ENDBRANCH  18  27
ENDBRANCH   1  21
TORSDOF 5
