REMARK  Name = ZINC33937818
REMARK  3 active torsions:
REMARK  status: ('A' for Active; 'I' for Inactive)
REMARK    1  A    between atoms: C_4  and  O_24
REMARK    2  A    between atoms: C_5  and  C_7
REMARK    3  A    between atoms: N_14  and  C_17
REMARK                            x       y       z     vdW  Elec       q    Type
REMARK                         _______ _______ _______ _____ _____    ______ ____
ROOT
ATOM      1  C   UNL     1       1.196  -2.268   1.082  0.00  0.00    +0.030 C 
ATOM      2  C   UNL     1       0.048  -2.903   0.636  0.00  0.00    +0.102 C 
ATOM      3  C   UNL     1       0.085  -4.275   0.105  0.00  0.00    +0.274 C 
ATOM      4  O   UNL     1       1.247  -4.959   0.038  0.00  0.00    -0.268 OA
ATOM      5  N   UNL     1      -1.046  -4.822  -0.303  0.00  0.00    -0.153 NA
ATOM      6  C   UNL     1      -2.206  -4.173  -0.249  0.00  0.00    +0.171 C 
ATOM      7  S   UNL     1      -3.611  -4.979  -0.806  0.00  0.00    -0.016 S 
ATOM      8  N   UNL     1      -2.337  -2.923   0.218  0.00  0.00    -0.216 N 
ATOM      9  C   UNL     1      -1.269  -2.236   0.678  0.00  0.00    +0.262 C 
ATOM     10  O   UNL     1      -1.387  -1.103   1.107  0.00  0.00    -0.269 OA
ENDROOT
BRANCH   8  11
ATOM     11  C   UNL     1      -3.602  -2.322   0.236  0.00  0.00    +0.044 A 
ATOM     12  C   UNL     1      -4.070  -1.653  -0.887  0.00  0.00    +0.024 A 
ATOM     13  C   UNL     1      -5.318  -1.062  -0.868  0.00  0.00    +0.003 A 
ATOM     14  C   UNL     1      -6.102  -1.135   0.269  0.00  0.00    +0.015 A 
ATOM     15  C   UNL     1      -5.639  -1.801   1.390  0.00  0.00    +0.020 A 
ATOM     16  C   UNL     1      -4.393  -2.400   1.374  0.00  0.00    +0.039 A 
ATOM     17 BR   UNL     1      -6.714  -1.899   2.942  0.00  0.00    -0.050 Br
ENDBRANCH   8  11
BRANCH   1  22
ATOM     18  C   UNL     1       0.073   0.296   3.505  0.00  0.00    +0.001 A 
ATOM     19  C   UNL     1       0.908   1.355   3.176  0.00  0.00    +0.004 A 
ATOM     20  C   UNL     1       1.837   1.227   2.162  0.00  0.00    +0.046 A 
ATOM     21  C   UNL     1       1.943   0.035   1.462  0.00  0.00    +0.124 A 
ATOM     22  C   UNL     1       1.099  -1.043   1.790  0.00  0.00    +0.017 A 
ATOM     23  C   UNL     1       0.160  -0.896   2.824  0.00  0.00    +0.011 A 
BRANCH  21  24
ATOM     24  O   UNL     1       2.854  -0.091   0.465  0.00  0.00    -0.506 OA
ATOM     25  H   UNL     1       3.715  -0.417   0.759  0.00  0.00    +0.292 HD
ENDBRANCH  21  24
ENDBRANCH   1  22
TORSDOF 3
