REMARK  Name = ZINC43410632
REMARK  6 active torsions:
REMARK  status: ('A' for Active; 'I' for Inactive)
REMARK    1  A    between atoms: C_1  and  N_2
REMARK    2  A    between atoms: N_2  and  C_3
REMARK    3  A    between atoms: C_3  and  C_4
REMARK    4  A    between atoms: C_4  and  O_5
REMARK    5  A    between atoms: C_7  and  C_16
REMARK    6  A    between atoms: N_17  and  O_18
REMARK                            x       y       z     vdW  Elec       q    Type
REMARK                         _______ _______ _______ _____ _____    ______ ____
ROOT
ATOM      1  C   UNL     1      -1.280   0.406   0.596  0.00  0.00    +0.131 C 
ATOM      2  N   UNL     1      -0.006  -0.005   0.001  0.00  0.00    -0.315 N 
ATOM      3  C   UNL     1       0.004  -0.780  -1.147  0.00  0.00    +0.132 A 
ATOM      4  C   UNL     1       0.048  -0.163  -2.408  0.00  0.00    +0.058 A 
ATOM      5  C   UNL     1       0.053  -0.971  -3.544  0.00  0.00    +0.020 A 
ATOM      6  C   UNL     1       0.017  -2.352  -3.386  0.00  0.00    -0.025 A 
ATOM      7  C   UNL     1      -0.018  -2.889  -2.119  0.00  0.00    +0.047 A 
ATOM      8  N   UNL     1      -0.021  -2.096  -1.053  0.00  0.00    -0.236 NA
ATOM      9  C   UNL     1      -0.039  -4.376  -1.874  0.00  0.00    +0.056 C 
ATOM     10  C   UNL     1      -0.462  -5.123  -3.137  0.00  0.00    +0.006 C 
ATOM     11  C   UNL     1       0.410  -4.638  -4.302  0.00  0.00    +0.005 C 
ATOM     12  C   UNL     1       0.016  -3.200  -4.631  0.00  0.00    +0.037 C 
ENDROOT
BRANCH   4  13
ATOM     13  C   UNL     1       0.088   1.310  -2.527  0.00  0.00    +0.166 C 
ATOM     14  N   UNL     1       0.190   2.048  -1.459  0.00  0.00    -0.071 NA
ATOM     15  N   UNL     1       0.017   1.906  -3.776  0.00  0.00    -0.340 N 
ATOM     16  H   UNL     1      -0.059   1.356  -4.571  0.00  0.00    +0.144 HD
ATOM     17  H   UNL     1       0.043   2.872  -3.854  0.00  0.00    +0.144 HD
BRANCH  14  18
ATOM     18  O   UNL     1       0.339   3.450  -1.579  0.00  0.00    -0.408 OA
ATOM     19  H   UNL     1       0.407   3.913  -0.732  0.00  0.00    +0.328 HD
ENDBRANCH  14  18
ENDBRANCH   4  13
BRANCH   2  20
ATOM     20  C   UNL     1       1.257   0.404   0.621  0.00  0.00    +0.134 C 
BRANCH  20  21
ATOM     21  C   UNL     1       1.688  -0.649   1.643  0.00  0.00    +0.174 C 
BRANCH  21  22
ATOM     22  O   UNL     1       1.977  -1.876   0.970  0.00  0.00    -0.393 OA
ATOM     23  H   UNL     1       2.257  -2.591   1.558  0.00  0.00    +0.209 HD
ENDBRANCH  21  22
ENDBRANCH  20  21
ENDBRANCH   2  20
TORSDOF 5
