REMARK  Name = ZINC57463276
REMARK  3 active torsions:
REMARK  status: ('A' for Active; 'I' for Inactive)
REMARK    1  A    between atoms: C_1  and  C_2
REMARK    2  A    between atoms: N_8  and  C_9
REMARK    3  A    between atoms: C_14  and  N_15
REMARK                            x       y       z     vdW  Elec       q    Type
REMARK                         _______ _______ _______ _____ _____    ______ ____
ROOT
ATOM      1  C   UNL     1       1.138   0.397   2.187  0.00  0.00    +0.051 A 
ATOM      2  C   UNL     1       0.302   0.685   3.255  0.00  0.00    +0.030 A 
ATOM      3  C   UNL     1       0.715   1.563   4.240  0.00  0.00    -0.024 A 
ATOM      4  C   UNL     1       1.967   2.158   4.163  0.00  0.00    +0.038 A 
ATOM      5  C   UNL     1       2.808   1.872   3.096  0.00  0.00    +0.048 A 
ATOM      6  C   UNL     1       2.399   0.988   2.110  0.00  0.00    +0.048 A 
ATOM      7  N   UNL     1       2.380   3.046   5.164  0.00  0.00    -0.285 N 
ATOM      8  C   UNL     1       1.769   3.055   6.362  0.00  0.00    +0.218 C 
ATOM      9  O   UNL     1       2.129   3.841   7.213  0.00  0.00    -0.275 OA
ATOM     10  C   UNL     1       0.643   2.102   6.659  0.00  0.00    +0.101 C 
ATOM     11  C   UNL     1      -0.194   1.877   5.400  0.00  0.00    +0.046 C 
ATOM     12  H   UNL     1       3.111   3.660   4.992  0.00  0.00    +0.155 HD
ENDROOT
BRANCH   1  19
ATOM     13  C   UNL     1      -0.019   1.526   0.010  0.00  0.00    +0.028 C 
ATOM     14  C   UNL     1       0.002  -0.004   0.002  0.00  0.00    +0.070 C 
ATOM     15  C   UNL     1       0.725  -0.501  -1.254  0.00  0.00    +0.022 C 
ATOM     16  C   UNL     1       0.865  -2.023  -1.188  0.00  0.00    +0.003 C 
ATOM     17  C   UNL     1       1.701  -2.408   0.034  0.00  0.00    +0.019 C 
ATOM     18  C   UNL     1       0.989  -1.933   1.305  0.00  0.00    +0.105 C 
ATOM     19  N   UNL     1       0.718  -0.493   1.188  0.00  0.00    -0.326 N 
ENDBRANCH   1  19
BRANCH   6  20
ATOM     20  N   UNL     1       3.247   0.693   1.036  0.00  0.00    -0.356 N 
ATOM     21  H   UNL     1       2.958   0.078   0.345  0.00  0.00    +0.142 HD
ATOM     22  H   UNL     1       4.124   1.105   0.984  0.00  0.00    +0.142 HD
ENDBRANCH   6  20
TORSDOF 2
