REMARK  Name = ZINC65404525
REMARK  2 active torsions:
REMARK  status: ('A' for Active; 'I' for Inactive)
REMARK    1  A    between atoms: C_1  and  C_2
REMARK    2  A    between atoms: C_5  and  C_8
REMARK                            x       y       z     vdW  Elec       q    Type
REMARK                         _______ _______ _______ _____ _____    ______ ____
ROOT
ATOM      1  C   UNL     1      -1.191  -2.918   1.183  0.00  0.00    -0.010 C 
ATOM      2  C   UNL     1      -1.026  -4.029   1.909  0.00  0.00    +0.011 C 
ATOM      3  C   UNL     1      -2.236  -4.797   2.352  0.00  0.00    +0.158 C 
ATOM      4  C   UNL     1      -3.386  -3.814   2.468  0.00  0.00    -0.018 C 
ATOM      5  C   UNL     1      -3.939  -4.048   3.670  0.00  0.00    +0.025 C 
ATOM      6  C   UNL     1      -3.141  -4.971   4.382  0.00  0.00    +0.106 C 
ATOM      7  N   UNL     1      -2.132  -5.399   3.674  0.00  0.00    -0.279 NA
ATOM      8  C   UNL     1      -3.617  -2.809   1.509  0.00  0.00    +0.006 C 
ATOM      9  C   UNL     1      -2.503  -2.377   0.845  0.00  0.00    +0.007 C 
ENDROOT
BRANCH   1  14
ATOM     10  C   UNL     1      -0.018   1.503   0.010  0.00  0.00    +0.084 C 
ATOM     11  C   UNL     1       0.002  -0.004   0.002  0.00  0.00    +0.111 C 
ATOM     12  N   UNL     1       0.007  -0.715  -1.065  0.00  0.00    -0.175 NA
ATOM     13  N   UNL     1       0.027  -2.084  -0.773  0.00  0.00    -0.243 N 
ATOM     14  C   UNL     1       0.035  -2.188   0.697  0.00  0.00    +0.204 C 
ATOM     15  N   UNL     1       0.024  -0.785   1.147  0.00  0.00    -0.309 N 
ATOM     16  H   UNL     1       0.034  -2.817  -1.409  0.00  0.00    +0.170 HD
ATOM     17  H   UNL     1       0.029  -0.470   2.065  0.00  0.00    +0.149 HD
ENDBRANCH   1  14
TORSDOF 1
