REMARK  Name = ZINC35426878
REMARK  4 active torsions:
REMARK  status: ('A' for Active; 'I' for Inactive)
REMARK    1  A    between atoms: C_3  and  S_9
REMARK    2  A    between atoms: S_9  and  N_12
REMARK    3  A    between atoms: N_12  and  C_13
REMARK    4  A    between atoms: C_16  and  C_18
REMARK                            x       y       z     vdW  Elec       q    Type
REMARK                         _______ _______ _______ _____ _____    ______ ____
ROOT
ATOM      1  S   UNL     1       4.020   2.357  -0.073  0.00  0.00    +0.074 S 
ATOM      2  O   UNL     1       5.007   1.873  -0.974  0.00  0.00    -0.150 OA
ATOM      3  O   UNL     1       3.552   3.698  -0.105  0.00  0.00    -0.150 OA
ENDROOT
BRANCH   1   6
ATOM      4  C   UNL     1       1.508  -0.497  -1.374  0.00  0.00    +0.017 A 
ATOM      5  C   UNL     1       2.617   0.313  -1.216  0.00  0.00    +0.031 A 
ATOM      6  C   UNL     1       2.605   1.325  -0.275  0.00  0.00    +0.127 A 
ATOM      7  C   UNL     1       1.483   1.529   0.508  0.00  0.00    +0.069 A 
ATOM      8  C   UNL     1       0.373   0.719   0.350  0.00  0.00    +0.037 A 
ATOM      9  C   UNL     1       0.386  -0.294  -0.591  0.00  0.00    +0.019 A 
ATOM     10 BR   UNL     1      -1.131  -1.403  -0.808  0.00  0.00    -0.050 Br
ATOM     11 CL   UNL     1       1.469   2.801   1.690  0.00  0.00    -0.081 Cl
ENDBRANCH   1   6
BRANCH   1  12
ATOM     12  N   UNL     1       4.603   2.095   1.454  0.00  0.00    -0.210 N 
ATOM     13  H   UNL     1       4.579   2.807   2.112  0.00  0.00    +0.174 HD
BRANCH  12  14
ATOM     14  C   UNL     1       5.125   0.859   1.792  0.00  0.00    +0.086 A 
ATOM     15  C   UNL     1       6.292   0.590   2.476  0.00  0.00    +0.033 A 
ATOM     16  C   UNL     1       6.629  -0.715   2.709  0.00  0.00    +0.025 A 
ATOM     17  C   UNL     1       5.740  -1.670   2.222  0.00  0.00    +0.102 A 
ATOM     18  S   UNL     1       4.479  -0.658   1.471  0.00  0.00    -0.066 S 
BRANCH  17  19
ATOM     19  C   UNL     1       5.816  -3.075   2.307  0.00  0.00    +0.393 C 
ATOM     20  O   UNL     1       6.848  -3.651   2.922  0.00  0.00    -0.240 OA
ATOM     21  O   UNL     1       4.854  -3.827   1.772  0.00  0.00    -0.240 OA
ENDBRANCH  17  19
ENDBRANCH  12  14
ENDBRANCH   1  12
TORSDOF 4
