REMARK  Name = ZINC03886579
REMARK  2 active torsions:
REMARK  status: ('A' for Active; 'I' for Inactive)
REMARK    1  A    between atoms: N_9  and  N_13
REMARK    2  A    between atoms: C_14  and  C_16
REMARK                            x       y       z     vdW  Elec       q    Type
REMARK                         _______ _______ _______ _____ _____    ______ ____
ROOT
ATOM      1  C   UNL     1      -0.019   1.526   0.010  0.00  0.00    +0.000 C 
ATOM      2  C   UNL     1       1.416   2.058  -0.000  0.00  0.00    +0.003 C 
ATOM      3  C   UNL     1       2.129   1.573  -1.265  0.00  0.00    +0.035 C 
ATOM      4  C   UNL     1       2.134   0.048  -1.295  0.00  0.00    +0.114 C 
ATOM      5  C   UNL     1       0.710  -0.496  -1.263  0.00  0.00    +0.035 C 
ATOM      6  C   UNL     1       0.002  -0.004   0.002  0.00  0.00    +0.003 C 
ATOM      7  C   UNL     1       2.864  -0.454  -2.519  0.00  0.00    +0.263 C 
ATOM      8  O   UNL     1       2.573  -0.256  -3.679  0.00  0.00    -0.271 OA
ATOM      9  N   UNL     1       3.907  -1.169  -2.049  0.00  0.00    -0.137 N 
ATOM     10  C   UNL     1       3.931  -1.183  -0.710  0.00  0.00    +0.326 C 
ATOM     11  O   UNL     1       4.776  -1.762  -0.056  0.00  0.00    -0.251 OA
ATOM     12  N   UNL     1       2.914  -0.485  -0.171  0.00  0.00    -0.284 N 
ATOM     13  H   UNL     1       2.732  -0.359   0.774  0.00  0.00    +0.151 HD
ENDROOT
BRANCH   9  14
ATOM     14  N   UNL     1       4.848  -1.815  -2.860  0.00  0.00    -0.223 N 
ATOM     15  C   UNL     1       6.083  -1.296  -3.006  0.00  0.00    +0.244 C 
ATOM     16  O   UNL     1       6.380  -0.268  -2.435  0.00  0.00    -0.273 OA
ATOM     17  H   UNL     1       4.611  -2.638  -3.317  0.00  0.00    +0.174 HD
BRANCH  15  18
ATOM     18  C   UNL     1       7.095  -1.992  -3.879  0.00  0.00    +0.205 C 
ATOM     19 CL   UNL     1       8.638  -1.059  -3.871  0.00  0.00    -0.116 Cl
ENDBRANCH  15  18
ENDBRANCH   9  14
TORSDOF 2
