REMARK  Name = ZINC09059008
REMARK  10 active torsions:
REMARK  status: ('A' for Active; 'I' for Inactive)
REMARK    1  A    between atoms: C_1  and  C_2
REMARK    2  A    between atoms: C_2  and  C_4
REMARK    3  A    between atoms: C_2  and  N_12
REMARK    4  A    between atoms: C_4  and  C_5
REMARK    5  A    between atoms: C_5  and  C_6
REMARK    6  A    between atoms: C_15  and  C_21
REMARK    7  A    between atoms: C_16  and  O_20
REMARK    8  A    between atoms: C_18  and  O_19
REMARK    9  A    between atoms: C_27  and  O_33
REMARK   10  A    between atoms: O_33  and  C_34
REMARK                            x       y       z     vdW  Elec       q    Type
REMARK                         _______ _______ _______ _____ _____    ______ ____
ROOT
ATOM      1  N   UNL     1      -2.649  -0.728   3.219  0.00  0.00    -0.260 N 
ATOM      2  C   UNL     1      -2.499   0.317   2.379  0.00  0.00    +0.262 A 
ATOM      3  O   UNL     1      -2.178   1.415   2.805  0.00  0.00    -0.267 OA
ATOM      4  C   UNL     1      -2.724   0.121   1.011  0.00  0.00    +0.070 A 
ATOM      5  C   UNL     1      -3.081  -1.141   0.570  0.00  0.00    +0.224 A 
ATOM      6  N   UNL     1      -3.209  -2.139   1.451  0.00  0.00    -0.161 NA
ATOM      7  C   UNL     1      -3.002  -1.947   2.734  0.00  0.00    +0.302 A 
ENDROOT
BRANCH   4   8
ATOM      8  C   UNL     1      -2.574   1.261   0.036  0.00  0.00    +0.018 C 
ATOM      9  C   UNL     1      -1.138   1.734   0.016  0.00  0.00    +0.011 A 
ATOM     10  C   UNL     1      -0.796   3.038   0.025  0.00  0.00    -0.022 A 
ATOM     11  C   UNL     1       0.660   3.109   0.013  0.00  0.00    +0.006 A 
ATOM     12  C   UNL     1       1.587   4.154   0.010  0.00  0.00    +0.056 A 
ATOM     13  C   UNL     1       2.938   3.870  -0.005  0.00  0.00    +0.121 A 
ATOM     14  C   UNL     1       3.377   2.549  -0.017  0.00  0.00    +0.047 A 
ATOM     15  C   UNL     1       2.474   1.510  -0.014  0.00  0.00    +0.030 A 
ATOM     16  C   UNL     1       1.108   1.774   0.001  0.00  0.00    +0.047 A 
ATOM     17  N   UNL     1      -0.011   0.966   0.007  0.00  0.00    -0.359 N 
ATOM     18  H   UNL     1       0.002  -0.004   0.002  0.00  0.00    +0.166 HD
ATOM     19  C   UNL     1      -1.795   4.167   0.037  0.00  0.00    +0.018 C 
ATOM     20  C   UNL     1      -3.164   3.588  -0.348  0.00  0.00    -0.076 C 
ATOM     21  N   UNL     1      -3.438   2.384   0.463  0.00  0.00    +0.388 N 
ATOM     22  H   UNL     1      -3.256   2.594   1.451  0.00  0.00    -0.084 HD
ATOM     23  H   UNL     1      -4.422   2.115   0.346  0.00  0.00    -0.084 HD
BRANCH  13  24
ATOM     24  O   UNL     1       3.843   4.885  -0.007  0.00  0.00    -0.495 OA
ATOM     25  C   UNL     1       5.225   4.521  -0.022  0.00  0.00    +0.277 C 
ENDBRANCH  13  24
ENDBRANCH   4   8
BRANCH   1  27
ATOM     26  C   UNL     1      -3.706  -0.896   5.418  0.00  0.00    +0.031 C 
ATOM     27  C   UNL     1      -2.425  -0.550   4.656  0.00  0.00    +0.092 C 
BRANCH  27  28
ATOM     28  C   UNL     1      -1.294  -1.473   5.114  0.00  0.00    +0.030 C 
BRANCH  28  29
ATOM     29  C   UNL     1       0.014  -1.047   4.445  0.00  0.00    +0.037 C 
BRANCH  29  30
ATOM     30  C   UNL     1       1.128  -1.956   4.896  0.00  0.00    -0.047 A 
ATOM     31  C   UNL     1       1.872  -1.634   6.016  0.00  0.00    +0.003 A 
ATOM     32  C   UNL     1       2.891  -2.470   6.433  0.00  0.00    +0.000 A 
ATOM     33  C   UNL     1       3.173  -3.623   5.723  0.00  0.00    +0.000 A 
ATOM     34  C   UNL     1       2.432  -3.942   4.600  0.00  0.00    +0.000 A 
ATOM     35  C   UNL     1       1.410  -3.109   4.187  0.00  0.00    +0.003 A 
ENDBRANCH  29  30
ENDBRANCH  28  29
ENDBRANCH  27  28
ENDBRANCH   1  27
BRANCH   7  36
ATOM     36  O   UNL     1      -3.142  -2.982   3.587  0.00  0.00    -0.479 OA
ATOM     37  H   UNL     1      -3.394  -3.834   3.206  0.00  0.00    +0.295 HD
ENDBRANCH   7  36
BRANCH   5  38
ATOM     38  O   UNL     1      -3.300  -1.364  -0.747  0.00  0.00    -0.492 OA
ATOM     39  H   UNL     1      -3.544  -2.276  -0.956  0.00  0.00    +0.294 HD
ENDBRANCH   5  38
TORSDOF 8
