REMARK  Name = ZINC35590892
REMARK  11 active torsions:
REMARK  status: ('A' for Active; 'I' for Inactive)
REMARK    1  A    between atoms: C_1  and  C_2
REMARK    2  A    between atoms: N_4  and  C_5
REMARK    3  A    between atoms: C_7  and  O_39
REMARK    4  A    between atoms: C_9  and  O_38
REMARK    5  A    between atoms: C_11  and  C_36
REMARK    6  A    between atoms: C_14  and  N_16
REMARK    7  A    between atoms: N_19  and  C_30
REMARK    8  A    between atoms: C_20  and  C_22
REMARK    9  A    between atoms: C_22  and  O_23
REMARK   10  A    between atoms: O_23  and  C_24
REMARK   11  A    between atoms: C_36  and  O_37
REMARK                            x       y       z     vdW  Elec       q    Type
REMARK                         _______ _______ _______ _____ _____    ______ ____
ROOT
ATOM      1  N   UNL     1      -1.929  -2.059  -2.797  0.00  0.00    -0.209 N 
ATOM      2  C   UNL     1      -3.008  -2.795  -3.138  0.00  0.00    +0.185 A 
ATOM      3  S   UNL     1      -2.991  -4.388  -3.764  0.00  0.00    -0.011 S 
ATOM      4  N   UNL     1      -4.101  -2.045  -2.894  0.00  0.00    -0.272 N 
ATOM      5  C   UNL     1      -3.690  -0.831  -2.396  0.00  0.00    +0.174 A 
ATOM      6  N   UNL     1      -2.398  -0.825  -2.326  0.00  0.00    -0.149 NA
ENDROOT
BRANCH   1  12
ATOM      7  C   UNL     1       0.208  -2.097  -1.607  0.00  0.00    +0.155 C 
ATOM      8  C   UNL     1       1.685  -2.481  -1.740  0.00  0.00    +0.170 C 
ATOM      9  C   UNL     1       2.274  -1.786  -2.971  0.00  0.00    +0.176 C 
ATOM     10  C   UNL     1       1.459  -2.177  -4.207  0.00  0.00    +0.177 C 
ATOM     11  O   UNL     1       0.090  -1.819  -4.005  0.00  0.00    -0.345 OA
ATOM     12  C   UNL     1      -0.528  -2.476  -2.895  0.00  0.00    +0.262 C 
BRANCH   7  16
ATOM     13  C   UNL     1       0.086   1.333   0.088  0.00  0.00    +0.109 C 
ATOM     14  C   UNL     1       0.202  -0.152  -0.139  0.00  0.00    +0.210 C 
ATOM     15  O   UNL     1       0.389  -0.896   0.799  0.00  0.00    -0.276 OA
ATOM     16  N   UNL     1       0.096  -0.653  -1.386  0.00  0.00    -0.306 N 
ATOM     17  H   UNL     1      -0.054  -0.057  -2.137  0.00  0.00    +0.149 HD
ENDBRANCH   7  16
BRANCH   9  18
ATOM     18  O   UNL     1       2.221  -0.369  -2.791  0.00  0.00    -0.387 OA
ATOM     19  H   UNL     1       2.578   0.136  -3.534  0.00  0.00    +0.210 HD
ENDBRANCH   9  18
BRANCH   8  20
ATOM     20  O   UNL     1       2.394  -2.067  -0.570  0.00  0.00    -0.387 OA
ATOM     21  H   UNL     1       3.337  -2.279  -0.585  0.00  0.00    +0.210 HD
ENDBRANCH   8  20
BRANCH  10  22
ATOM     22  C   UNL     1       2.005  -1.439  -5.431  0.00  0.00    +0.190 C 
BRANCH  22  23
ATOM     23  O   UNL     1       1.321  -1.891  -6.602  0.00  0.00    -0.392 OA
ATOM     24  H   UNL     1       1.616  -1.465  -7.419  0.00  0.00    +0.210 HD
ENDBRANCH  22  23
ENDBRANCH  10  22
ENDBRANCH   1  12
BRANCH   4  25
ATOM     25  C   UNL     1      -5.429  -2.435  -3.111  0.00  0.00    +0.050 A 
ATOM     26  C   UNL     1      -5.990  -3.448  -2.345  0.00  0.00    +0.026 A 
ATOM     27  C   UNL     1      -7.300  -3.831  -2.562  0.00  0.00    +0.002 A 
ATOM     28  C   UNL     1      -8.051  -3.207  -3.540  0.00  0.00    +0.000 A 
ATOM     29  C   UNL     1      -7.495  -2.198  -4.305  0.00  0.00    +0.002 A 
ATOM     30  C   UNL     1      -6.188  -1.806  -4.089  0.00  0.00    +0.026 A 
ENDBRANCH   4  25
BRANCH   5  31
ATOM     31  C   UNL     1      -4.596   0.304  -1.992  0.00  0.00    +0.305 C 
BRANCH  31  32
ATOM     32  O   UNL     1      -3.807   1.396  -1.515  0.00  0.00    -0.484 OA
BRANCH  32  33
ATOM     33  C   UNL     1      -4.475   2.507  -1.108  0.00  0.00    +0.121 A 
ATOM     34  C   UNL     1      -5.861   2.544  -1.161  0.00  0.00    +0.045 A 
ATOM     35  C   UNL     1      -6.537   3.674  -0.745  0.00  0.00    +0.004 A 
ATOM     36  C   UNL     1      -5.834   4.769  -0.278  0.00  0.00    +0.000 A 
ATOM     37  C   UNL     1      -4.453   4.736  -0.225  0.00  0.00    +0.004 A 
ATOM     38  C   UNL     1      -3.772   3.605  -0.633  0.00  0.00    +0.045 A 
ENDBRANCH  32  33
ENDBRANCH  31  32
ENDBRANCH   5  31
TORSDOF 10
