REMARK  Name = ZINC40049921
REMARK  6 active torsions:
REMARK  status: ('A' for Active; 'I' for Inactive)
REMARK    1  A    between atoms: C_1  and  C_2
REMARK    2  A    between atoms: C_5  and  S_8
REMARK    3  A    between atoms: S_8  and  N_11
REMARK    4  A    between atoms: C_15  and  C_17
REMARK    5  A    between atoms: N_19  and  C_20
REMARK    6  A    between atoms: C_20  and  C_21
REMARK                            x       y       z     vdW  Elec       q    Type
REMARK                         _______ _______ _______ _____ _____    ______ ____
ROOT
ATOM      1  C   UNL     1       1.893  -6.379   1.960  0.00  0.00    +0.232 C 
ATOM      2  O   UNL     1       0.880  -6.930   1.584  0.00  0.00    -0.274 OA
ATOM      3  N   UNL     1       2.494  -6.779   3.098  0.00  0.00    -0.310 N 
ATOM      4  H   UNL     1       3.304  -6.338   3.399  0.00  0.00    +0.149 HD
ENDROOT
BRANCH   1   9
ATOM      5  N   UNL     1       1.651  -4.999  -0.034  0.00  0.00    -0.165 NA
ATOM      6  C   UNL     1       2.470  -5.230  -1.238  0.00  0.00    +0.110 C 
ATOM      7  C   UNL     1       3.932  -5.027  -0.768  0.00  0.00    +0.019 C 
ATOM      8  C   UNL     1       3.888  -5.637   0.658  0.00  0.00    +0.031 C 
ATOM      9  C   UNL     1       2.479  -5.249   1.155  0.00  0.00    +0.165 C 
BRANCH   5  10
ATOM     10  S   UNL     1       0.063  -4.530  -0.023  0.00  0.00    +0.062 S 
ATOM     11  O   UNL     1      -0.476  -4.950   1.223  0.00  0.00    -0.153 OA
ATOM     12  O   UNL     1      -0.490  -4.937  -1.267  0.00  0.00    -0.153 OA
BRANCH  10  17
ATOM     13  C   UNL     1      -0.018   1.503   0.010  0.00  0.00    +0.044 C 
ATOM     14  C   UNL     1       0.002  -0.004   0.002  0.00  0.00    -0.050 A 
ATOM     15  C   UNL     1       0.006  -0.689  -1.199  0.00  0.00    +0.005 A 
ATOM     16  C   UNL     1       0.025  -2.071  -1.206  0.00  0.00    +0.029 A 
ATOM     17  C   UNL     1       0.040  -2.768  -0.013  0.00  0.00    +0.106 A 
ATOM     18  C   UNL     1       0.037  -2.084   1.188  0.00  0.00    +0.029 A 
ATOM     19  C   UNL     1       0.023  -0.702   1.195  0.00  0.00    +0.005 A 
ENDBRANCH  10  17
ENDBRANCH   5  10
ENDBRANCH   1   9
BRANCH   3  20
ATOM     20  C   UNL     1       1.924  -7.878   3.881  0.00  0.00    +0.139 C 
BRANCH  20  21
ATOM     21  C   UNL     1       2.780  -8.125   5.097  0.00  0.00    -0.026 A 
ATOM     22  C   UNL     1       3.841  -9.019   5.048  0.00  0.00    +0.023 A 
ATOM     23  C   UNL     1       4.606  -9.223   6.178  0.00  0.00    +0.084 A 
ATOM     24  N   UNL     1       4.341  -8.581   7.300  0.00  0.00    -0.350 N 
ATOM     25  C   UNL     1       3.338  -7.721   7.387  0.00  0.00    +0.099 A 
ATOM     26  C   UNL     1       2.529  -7.463   6.285  0.00  0.00    +0.047 A 
ATOM     27  N   UNL     1       3.094  -7.067   8.589  0.00  0.00    -0.317 N 
ATOM     28  C   UNL     1       2.016  -6.097   8.833  0.00  0.00    +0.106 C 
ATOM     29  C   UNL     1       2.152  -5.619  10.294  0.00  0.00    +0.020 C 
ATOM     30  C   UNL     1       3.639  -5.921  10.621  0.00  0.00    +0.020 C 
ATOM     31  C   UNL     1       3.868  -7.236   9.832  0.00  0.00    +0.106 C 
ATOM     32  H   UNL     1       4.894  -8.743   8.080  0.00  0.00    +0.166 HD
ENDBRANCH  20  21
ENDBRANCH   3  20
TORSDOF 5
