REMARK  Name = ZINC27607501
REMARK  9 active torsions:
REMARK  status: ('A' for Active; 'I' for Inactive)
REMARK    1  A    between atoms: C_3  and  C_6
REMARK    2  A    between atoms: C_6  and  C_8
REMARK    3  A    between atoms: C_6  and  N_28
REMARK    4  A    between atoms: C_8  and  N_9
REMARK    5  A    between atoms: C_10  and  C_12
REMARK    6  A    between atoms: C_12  and  N_13
REMARK    7  A    between atoms: C_14  and  C_16
REMARK    8  A    between atoms: C_16  and  N_17
REMARK    9  A    between atoms: C_18  and  C_20
REMARK                            x       y       z     vdW  Elec       q    Type
REMARK                         _______ _______ _______ _____ _____    ______ ____
ROOT
ATOM      1  C   UNL     1       3.680   0.551   3.209  0.00  0.00    +0.200 C 
ENDROOT
BRANCH   1   3
ATOM      2  N   UNL     1       1.918   0.951   1.520  0.00  0.00    -0.315 N 
ATOM      3  C   UNL     1       3.211   1.080   1.879  0.00  0.00    +0.230 C 
ATOM      4  O   UNL     1       3.997   1.623   1.131  0.00  0.00    -0.274 OA
ATOM      5  H   UNL     1       1.206   0.458   2.198  0.00  0.00    +0.149 HD
BRANCH   2   6
ATOM      6  C   UNL     1       1.462   1.465   0.226  0.00  0.00    +0.094 C 
BRANCH   6   7
ATOM      7  C   UNL     1      -0.060   1.339   0.135  0.00  0.00    -0.013 C 
BRANCH   7   8
ATOM      8  N   UNL     1      -0.684   2.193   1.155  0.00  0.00    +0.386 N 
ATOM      9  C   UNL     1      -2.149   2.298   0.937  0.00  0.00    -0.078 C 
ATOM     10  C   UNL     1      -2.682   2.748   2.321  0.00  0.00    -0.020 C 
ATOM     11  C   UNL     1      -1.784   1.967   3.307  0.00  0.00    -0.020 C 
ATOM     12  C   UNL     1      -0.517   1.614   2.506  0.00  0.00    -0.078 C 
ATOM     13  H   UNL     1      -0.187   3.171   1.071  0.00  0.00    -0.081 HD
ENDBRANCH   7   8
BRANCH   7  16
ATOM     14  C   UNL     1      -1.338   1.636  -3.441  0.00  0.00    +0.008 A 
ATOM     15  C   UNL     1      -0.961   1.014  -2.265  0.00  0.00    +0.009 A 
ATOM     16  C   UNL     1      -0.519   1.773  -1.233  0.00  0.00    -0.022 A 
ATOM     17  S   UNL     1      -0.615   3.419  -1.917  0.00  0.00    -0.103 S 
ATOM     18  C   UNL     1      -1.244   2.985  -3.530  0.00  0.00    +0.045 A 
ENDBRANCH   7  16
ENDBRANCH   6   7
ENDBRANCH   2   6
ENDBRANCH   1   3
BRANCH   1  19
ATOM     19  N   UNL     1       5.114   0.813   3.361  0.00  0.00    -0.305 N 
ATOM     20  C   UNL     1       5.755   0.425   4.481  0.00  0.00    +0.231 C 
ATOM     21  O   UNL     1       5.145  -0.141   5.363  0.00  0.00    -0.274 OA
ATOM     22  H   UNL     1       5.667   1.327   2.561  0.00  0.00    +0.149 HD
BRANCH  20  23
ATOM     23  C   UNL     1       7.229   0.695   4.637  0.00  0.00    +0.200 C 
BRANCH  23  24
ATOM     24  N   UNL     1       7.686   0.180   5.931  0.00  0.00    -0.303 N 
ATOM     25  C   UNL     1       8.978   0.310   6.289  0.00  0.00    +0.246 C 
ATOM     26  O   UNL     1       9.766   0.854   5.540  0.00  0.00    -0.270 OA
ATOM     27  H   UNL     1       6.973  -0.312   6.609  0.00  0.00    +0.150 HD
BRANCH  25  28
ATOM     28  C   UNL     1       9.438  -0.209   7.594  0.00  0.00    +0.055 A 
ATOM     29  C   UNL     1       8.536  -0.835   8.457  0.00  0.00    +0.016 A 
ATOM     30  C   UNL     1       8.972  -1.317   9.673  0.00  0.00    +0.021 A 
ATOM     31  C   UNL     1      10.301  -1.183  10.040  0.00  0.00    +0.042 A 
ATOM     32  C   UNL     1      11.201  -0.565   9.189  0.00  0.00    +0.040 A 
ATOM     33  C   UNL     1      10.779  -0.081   7.966  0.00  0.00    +0.054 A 
ATOM     34 CL   UNL     1      11.910   0.688   6.897  0.00  0.00    -0.083 Cl
ATOM     35 CL   UNL     1      10.841  -1.793  11.573  0.00  0.00    -0.083 Cl
ENDBRANCH  25  28
ENDBRANCH  23  24
ENDBRANCH  20  23
ENDBRANCH   1  19
TORSDOF 9
