REMARK  Name = ZINC40000460
REMARK  9 active torsions:
REMARK  status: ('A' for Active; 'I' for Inactive)
REMARK    1  A    between atoms: C_1  and  C_2
REMARK    2  A    between atoms: C_2  and  S_3
REMARK    3  A    between atoms: S_3  and  C_4
REMARK    4  A    between atoms: C_10  and  C_28
REMARK    5  A    between atoms: C_12  and  C_17
REMARK    6  A    between atoms: C_17  and  C_19
REMARK    7  A    between atoms: C_32  and  O_34
REMARK    8  A    between atoms: O_34  and  C_35
REMARK    9  A    between atoms: C_35  and  C_36
REMARK                            x       y       z     vdW  Elec       q    Type
REMARK                         _______ _______ _______ _____ _____    ______ ____
ROOT
ATOM      1  C   UNL     1       0.647  -2.313  -1.518  0.00  0.00    +0.160 A 
ATOM      2  N   UNL     1       0.155  -3.062  -0.541  0.00  0.00    -0.133 NA
ATOM      3  N   UNL     1       0.238  -4.321  -0.560  0.00  0.00    -0.125 NA
ATOM      4  C   UNL     1       0.819  -4.970  -1.557  0.00  0.00    +0.192 A 
ATOM      5  S   UNL     1       1.297  -3.590  -2.592  0.00  0.00    -0.024 S 
ATOM      6  N   UNL     1       1.001  -6.335  -1.748  0.00  0.00    -0.230 N 
ATOM      7  C   UNL     1       0.558  -7.401  -0.841  0.00  0.00    +0.152 C 
ATOM      8  C   UNL     1       0.985  -8.701  -1.480  0.00  0.00    +0.080 C 
ATOM      9  C   UNL     1       1.608  -8.380  -2.639  0.00  0.00    +0.250 C 
ATOM     10  C   UNL     1       1.609  -6.913  -2.800  0.00  0.00    +0.293 C 
ATOM     11  O   UNL     1       2.089  -6.315  -3.742  0.00  0.00    -0.266 OA
ATOM     12  O   UNL     1       2.142  -9.264  -3.514  0.00  0.00    -0.282 OA
ENDROOT
BRANCH   7  13
ATOM     13  C   UNL     1       1.218  -7.243   0.505  0.00  0.00    -0.019 A 
ATOM     14  C   UNL     1       2.568  -6.957   0.584  0.00  0.00    +0.006 A 
ATOM     15  C   UNL     1       3.176  -6.811   1.817  0.00  0.00    +0.004 A 
ATOM     16  C   UNL     1       2.435  -6.952   2.974  0.00  0.00    +0.045 A 
ATOM     17  C   UNL     1       1.080  -7.239   2.898  0.00  0.00    +0.121 A 
ATOM     18  C   UNL     1       0.471  -7.378   1.660  0.00  0.00    +0.051 A 
BRANCH  17  19
ATOM     19  O   UNL     1       0.349  -7.377   4.036  0.00  0.00    -0.488 OA
BRANCH  19  20
ATOM     20  C   UNL     1       1.041  -7.215   5.276  0.00  0.00    +0.256 C 
BRANCH  20  21
ATOM     21  C   UNL     1       0.076  -7.402   6.418  0.00  0.00    +0.006 C 
ATOM     22  C   UNL     1       0.415  -8.137   7.448  0.00  0.00    +0.007 C 
ENDBRANCH  20  21
ENDBRANCH  19  20
ENDBRANCH  17  19
ENDBRANCH   7  13
BRANCH   8  23
ATOM     23  C   UNL     1       0.767 -10.050  -0.950  0.00  0.00    +0.230 C 
ATOM     24  O   UNL     1       1.717 -10.731  -0.607  0.00  0.00    -0.283 OA
BRANCH  23  25
ATOM     25  C   UNL     1      -0.598 -10.581  -0.830  0.00  0.00    +0.176 A 
ATOM     26  C   UNL     1      -0.928 -11.773  -0.264  0.00  0.00    +0.061 A 
ATOM     27  C   UNL     1      -2.382 -11.881  -0.367  0.00  0.00    +0.021 A 
ATOM     28  C   UNL     1      -3.317 -12.845   0.019  0.00  0.00    +0.011 A 
ATOM     29  C   UNL     1      -4.645 -12.638  -0.229  0.00  0.00    +0.001 A 
ATOM     30  C   UNL     1      -5.070 -11.477  -0.861  0.00  0.00    +0.004 A 
ATOM     31  C   UNL     1      -4.164 -10.514  -1.249  0.00  0.00    +0.047 A 
ATOM     32  C   UNL     1      -2.808 -10.702  -1.008  0.00  0.00    +0.136 A 
ATOM     33  O   UNL     1      -1.714  -9.956  -1.260  0.00  0.00    -0.452 OA
ENDBRANCH  23  25
ENDBRANCH   8  23
BRANCH   1  34
ATOM     34  S   UNL     1       0.651  -0.561  -1.709  0.00  0.00    -0.097 S 
BRANCH  34  36
ATOM     35  C   UNL     1      -0.251   1.573  -0.256  0.00  0.00    +0.016 C 
ATOM     36  C   UNL     1      -0.186   0.045  -0.218  0.00  0.00    +0.073 C 
ENDBRANCH  34  36
ENDBRANCH   1  34
TORSDOF 8
