REMARK  Name = ZINC02125669
REMARK  6 active torsions:
REMARK  status: ('A' for Active; 'I' for Inactive)
REMARK    1  A    between atoms: C_1  and  C_2
REMARK    2  A    between atoms: C_2  and  O_3
REMARK    3  A    between atoms: O_3  and  C_4
REMARK    4  A    between atoms: C_6  and  C_11
REMARK    5  A    between atoms: C_9  and  O_10
REMARK    6  A    between atoms: CA_24  and  C_26
REMARK                            x       y       z     vdW  Elec       q    Type
REMARK                         _______ _______ _______ _____ _____    ______ ____
ROOT
ATOM      1  C   UNL     1      -0.000  -0.011  -0.020  0.00  0.00    +0.008 C 
ATOM      2  C   UNL     1      -0.285  -0.527  -1.411  0.00  0.00    +0.010 A 
ATOM      3  C   UNL     1      -1.122  -1.561  -1.657  0.00  0.00    -0.021 A 
ATOM      4  C   UNL     1      -1.143  -1.762  -3.089  0.00  0.00    +0.003 A 
ATOM      5  C   UNL     1      -1.817  -2.670  -3.912  0.00  0.00    +0.010 A 
ATOM      6  C   UNL     1      -1.594  -2.567  -5.263  0.00  0.00    +0.001 A 
ATOM      7  C   UNL     1      -0.743  -1.614  -5.799  0.00  0.00    +0.002 A 
ATOM      8  C   UNL     1      -0.063  -0.704  -5.008  0.00  0.00    +0.026 A 
ATOM      9  C   UNL     1      -0.270  -0.784  -3.633  0.00  0.00    +0.047 A 
ATOM     10  N   UNL     1       0.230  -0.058  -2.589  0.00  0.00    -0.359 N 
ATOM     11  H   UNL     1       0.855   0.679  -2.671  0.00  0.00    +0.166 HD
ATOM     12  C   UNL     1      -1.857  -2.311  -0.575  0.00  0.00    +0.033 C 
ATOM     13  CA  UNL     1      -1.197  -1.974   0.769  0.00  0.00    +0.049 C 
ATOM     14  N   UNL     1      -1.051  -0.509   0.895  0.00  0.00    +0.396 N 
ATOM     15  H1  UNL     1      -1.943  -0.059   0.662  0.00  0.00    -0.083 HD
ATOM     16  H2  UNL     1      -0.793  -0.278   1.862  0.00  0.00    -0.083 HD
ENDROOT
BRANCH   1  19
ATOM     17  C   UNL     1       1.152   3.586  -0.049  0.00  0.00    +0.162 A 
ATOM     18  C   UNL     1       1.169   2.201  -0.044  0.00  0.00    +0.051 A 
ATOM     19  C   UNL     1      -0.020   1.495  -0.025  0.00  0.00    -0.052 A 
ATOM     20  C   UNL     1      -1.227   2.169  -0.017  0.00  0.00    +0.006 A 
ATOM     21  C   UNL     1      -1.250   3.552  -0.015  0.00  0.00    +0.049 A 
ATOM     22  C   UNL     1      -0.062   4.265  -0.034  0.00  0.00    +0.158 A 
BRANCH  22  23
ATOM     23  O   UNL     1      -0.084   5.624  -0.039  0.00  0.00    -0.503 OA
ATOM     24  H   UNL     1      -0.102   6.014  -0.923  0.00  0.00    +0.292 HD
ENDBRANCH  22  23
BRANCH  17  25
ATOM     25  O   UNL     1       2.321   4.282  -0.067  0.00  0.00    -0.489 OA
BRANCH  25  27
ATOM     26  C   UNL     1       4.730   4.467  -0.102  0.00  0.00    +0.048 C 
ATOM     27  C   UNL     1       3.530   3.519  -0.082  0.00  0.00    +0.226 C 
ENDBRANCH  25  27
ENDBRANCH  17  25
ENDBRANCH   1  19
BRANCH  13  28
ATOM     28  C   UNL     1       0.158  -2.629   0.841  0.00  0.00    +0.343 C 
ATOM     29  O   UNL     1       0.336  -3.707   0.325  0.00  0.00    -0.248 OA
ATOM     30  OXT UNL     1       1.167  -2.016   1.479  0.00  0.00    -0.248 OA
ENDBRANCH  13  28
TORSDOF 5
