REMARK  Name = ZINC00309637
REMARK  5 active torsions:
REMARK  status: ('A' for Active; 'I' for Inactive)
REMARK    1  A    between atoms: C_1  and  O_2
REMARK    2  A    between atoms: O_2  and  C_3
REMARK    3  A    between atoms: C_6  and  C_9
REMARK    4  A    between atoms: C_22  and  N_26
REMARK    5  A    between atoms: C_23  and  C_24
REMARK                            x       y       z     vdW  Elec       q    Type
REMARK                         _______ _______ _______ _____ _____    ______ ____
ROOT
ATOM      1  C   UNL     1       2.478   1.378  -0.014  0.00  0.00    +0.098 C 
ATOM      2  C   UNL     1       1.141   2.074   0.002  0.00  0.00    +0.010 A 
ATOM      3  C   UNL     1       1.107   3.470   0.009  0.00  0.00    +0.009 A 
ATOM      4  C   UNL     1      -0.072   4.148   0.023  0.00  0.00    +0.010 A 
ATOM      5  C   UNL     1      -1.282   3.437   0.031  0.00  0.00    +0.004 A 
ATOM      6  C   UNL     1      -2.524   4.101   0.043  0.00  0.00    +0.011 A 
ATOM      7  C   UNL     1      -3.659   3.342   0.032  0.00  0.00    +0.020 A 
ATOM      8  C   UNL     1      -3.566   1.952   0.028  0.00  0.00    +0.111 A 
ATOM      9  N   UNL     1      -2.408   1.338   0.022  0.00  0.00    -0.251 NA
ATOM     10  C   UNL     1      -1.260   2.022   0.019  0.00  0.00    +0.113 A 
ATOM     11  C   UNL     1      -0.016   1.351   0.009  0.00  0.00    +0.160 A 
ATOM     12  O   UNL     1       0.002  -0.004   0.002  0.00  0.00    -0.439 OA
ATOM     13  C   UNL     1       1.110  -0.663   0.381  0.00  0.00    +0.199 C 
ATOM     14  C   UNL     1       2.323  -0.059   0.396  0.00  0.00    +0.098 C 
ENDROOT
BRANCH   1  18
ATOM     15  C   UNL     1       4.117   1.555  -3.957  0.00  0.00    +0.120 A 
ATOM     16  C   UNL     1       4.795   2.137  -2.896  0.00  0.00    +0.046 A 
ATOM     17  C   UNL     1       4.263   2.078  -1.622  0.00  0.00    +0.008 A 
ATOM     18  C   UNL     1       3.055   1.441  -1.405  0.00  0.00    -0.034 A 
ATOM     19  C   UNL     1       2.380   0.855  -2.460  0.00  0.00    +0.008 A 
ATOM     20  C   UNL     1       2.905   0.916  -3.736  0.00  0.00    +0.046 A 
BRANCH  15  22
ATOM     21  C   UNL     1       3.885   0.990  -6.255  0.00  0.00    +0.277 C 
ATOM     22  O   UNL     1       4.638   1.611  -5.210  0.00  0.00    -0.495 OA
ENDBRANCH  15  22
ENDBRANCH   1  18
BRANCH  13  23
ATOM     23  N   UNL     1       1.011  -1.978   0.762  0.00  0.00    -0.328 N 
ATOM     24  H   UNL     1       0.148  -2.421   0.756  0.00  0.00    +0.145 HD
ATOM     25  H   UNL     1       1.803  -2.464   1.038  0.00  0.00    +0.145 HD
ENDBRANCH  13  23
BRANCH  14  26
ATOM     26  C   UNL     1       3.475  -0.802   0.809  0.00  0.00    +0.101 C 
ATOM     27  N   UNL     1       4.389  -1.391   1.137  0.00  0.00    -0.191 NA
ENDBRANCH  14  26
TORSDOF 4
