REMARK  Name = ZINC08838513
REMARK  5 active torsions:
REMARK  status: ('A' for Active; 'I' for Inactive)
REMARK    1  A    between atoms: C_6  and  N_7
REMARK    2  A    between atoms: C_9  and  C_14
REMARK    3  A    between atoms: C_14  and  N_15
REMARK    4  A    between atoms: N_15  and  S_16
REMARK    5  A    between atoms: S_16  and  N_19
REMARK                            x       y       z     vdW  Elec       q    Type
REMARK                         _______ _______ _______ _____ _____    ______ ____
ROOT
ATOM      1  N   UNL     1      -0.148  -1.299  -1.977  0.00  0.00    -0.234 N 
ATOM      2  C   UNL     1       0.826  -0.527  -1.191  0.00  0.00    +0.163 C 
ATOM      3  C   UNL     1       0.002  -0.004   0.002  0.00  0.00    +0.211 C 
ATOM      4  O   UNL     1      -1.335  -0.532  -0.235  0.00  0.00    -0.444 OA
ATOM      5  C   UNL     1      -1.339  -1.248  -1.365  0.00  0.00    +0.408 C 
ATOM      6  O   UNL     1      -2.330  -1.802  -1.796  0.00  0.00    -0.226 OA
ENDROOT
BRANCH   1  12
ATOM      7  C   UNL     1       1.404  -1.950  -3.710  0.00  0.00    +0.025 A 
ATOM      8  C   UNL     1       1.673  -2.624  -4.886  0.00  0.00    +0.023 A 
ATOM      9  C   UNL     1       0.665  -3.318  -5.532  0.00  0.00    +0.059 A 
ATOM     10  C   UNL     1      -0.613  -3.343  -5.000  0.00  0.00    +0.061 A 
ATOM     11  C   UNL     1      -0.885  -2.675  -3.821  0.00  0.00    +0.045 A 
ATOM     12  C   UNL     1       0.125  -1.978  -3.171  0.00  0.00    +0.041 A 
ATOM     13 CL   UNL     1      -1.875  -4.215  -5.814  0.00  0.00    -0.082 Cl
ATOM     14 CL   UNL     1       1.004  -4.158  -7.013  0.00  0.00    -0.082 Cl
ENDBRANCH   1  12
BRANCH   3  15
ATOM     15  C   UNL     1      -0.019   1.526   0.010  0.00  0.00    +0.153 C 
BRANCH  15  16
ATOM     16  N   UNL     1      -0.704   1.998   1.216  0.00  0.00    -0.176 NA
ATOM     17  H   UNL     1      -1.243   1.385   1.739  0.00  0.00    +0.149 HD
BRANCH  16  18
ATOM     18  S   UNL     1      -0.559   3.580   1.685  0.00  0.00    +0.097 S 
ATOM     19  O   UNL     1      -1.350   3.730   2.856  0.00  0.00    -0.141 OA
ATOM     20  O   UNL     1       0.828   3.886   1.658  0.00  0.00    -0.141 OA
BRANCH  18  21
ATOM     21  N   UNL     1      -1.271   4.506   0.511  0.00  0.00    -0.162 NA
ATOM     22  C   UNL     1      -0.492   5.013  -0.630  0.00  0.00    +0.138 C 
ATOM     23  C   UNL     1      -1.247   4.659  -1.921  0.00  0.00    +0.177 C 
ATOM     24  O   UNL     1      -2.596   5.122  -1.818  0.00  0.00    -0.377 OA
ATOM     25  C   UNL     1      -3.346   4.509  -0.767  0.00  0.00    +0.177 C 
ATOM     26  C   UNL     1      -2.700   4.851   0.580  0.00  0.00    +0.138 C 
ENDBRANCH  18  21
ENDBRANCH  16  18
ENDBRANCH  15  16
ENDBRANCH   3  15
TORSDOF 5
