REMARK  Name = ZINC12053344
REMARK  9 active torsions:
REMARK  status: ('A' for Active; 'I' for Inactive)
REMARK    1  A    between atoms: C_1  and  N_2
REMARK    2  A    between atoms: N_2  and  C_3
REMARK    3  A    between atoms: C_3  and  C_4
REMARK    4  A    between atoms: C_9  and  C_11
REMARK    5  A    between atoms: C_11  and  C_12
REMARK    6  A    between atoms: C_19  and  C_20
REMARK    7  A    between atoms: C_19  and  N_60
REMARK    8  A    between atoms: C_20  and  C_21
REMARK    9  A    between atoms: C_20  and  C_27
REMARK                            x       y       z     vdW  Elec       q    Type
REMARK                         _______ _______ _______ _____ _____    ______ ____
ROOT
ATOM      1  C   UNL     1      -0.315   2.058  -0.697  0.00  0.00    +0.028 C 
ATOM      2  C   UNL     1      -0.701   0.606  -0.654  0.00  0.00    +0.200 C 
ATOM      3  O   UNL     1      -1.865   0.320  -0.467  0.00  0.00    -0.278 OA
ATOM      4  N   UNL     1       0.184  -0.383  -0.814  0.00  0.00    -0.318 N 
ATOM      5  C   UNL     1       1.612  -0.146  -1.009  0.00  0.00    +0.085 C 
ATOM      6  C   UNL     1       1.849   1.300  -1.446  0.00  0.00    -0.059 C 
ATOM      7  H   UNL     1      -0.136  -1.298  -0.799  0.00  0.00    +0.149 HD
ATOM      8  N   UNL     1       1.141   2.186  -0.499  0.00  0.00    +0.389 N 
ATOM      9  H   UNL     1       1.375   1.906   0.461  0.00  0.00    -0.081 HD
ENDROOT
BRANCH   1  10
ATOM     10  C   UNL     1      -1.038   2.809   0.423  0.00  0.00    +0.090 C 
BRANCH  10  13
ATOM     11  C   UNL     1      -2.860   3.840   2.333  0.00  0.00    +0.132 C 
ATOM     12  N   UNL     1      -3.372   3.316   1.064  0.00  0.00    -0.299 N 
ATOM     13  C   UNL     1      -2.519   2.822   0.145  0.00  0.00    +0.215 C 
ATOM     14  O   UNL     1      -2.943   2.388  -0.905  0.00  0.00    -0.276 OA
BRANCH  12  15
ATOM     15  C   UNL     1      -4.812   3.329   0.794  0.00  0.00    +0.166 C 
BRANCH  15  16
ATOM     16  C   UNL     1      -5.426   2.042   1.284  0.00  0.00    +0.101 A 
ATOM     17  C   UNL     1      -6.040   1.820   2.538  0.00  0.00    +0.069 A 
ATOM     18  C   UNL     1      -6.426   0.523   2.488  0.00  0.00    +0.230 A 
ATOM     19  O   UNL     1      -6.044   0.059   1.290  0.00  0.00    -0.363 OA
ATOM     20  N   UNL     1      -5.492   0.914   0.637  0.00  0.00    -0.082 NA
ENDBRANCH  15  16
ENDBRANCH  12  15
ENDBRANCH  10  13
ENDBRANCH   1  10
BRANCH   8  21
ATOM     21  C   UNL     1       1.559   3.591  -0.708  0.00  0.00    -0.065 C 
BRANCH  21  22
ATOM     22  C   UNL     1       2.972   3.775  -0.150  0.00  0.00    +0.032 C 
BRANCH  22  23
ATOM     23  C   UNL     1       3.453   5.171  -0.452  0.00  0.00    -0.042 A 
ATOM     24  C   UNL     1       4.684   5.364  -1.049  0.00  0.00    +0.004 A 
ATOM     25  C   UNL     1       5.123   6.644  -1.330  0.00  0.00    +0.000 A 
ATOM     26  C   UNL     1       4.335   7.732  -1.004  0.00  0.00    +0.000 A 
ATOM     27  C   UNL     1       3.106   7.539  -0.402  0.00  0.00    +0.000 A 
ATOM     28  C   UNL     1       2.665   6.259  -0.125  0.00  0.00    +0.004 A 
ENDBRANCH  22  23
BRANCH  22  29
ATOM     29  C   UNL     1       2.955   3.560   1.341  0.00  0.00    -0.042 A 
ATOM     30  C   UNL     1       2.051   4.249   2.129  0.00  0.00    +0.004 A 
ATOM     31  C   UNL     1       2.033   4.049   3.496  0.00  0.00    +0.000 A 
ATOM     32  C   UNL     1       2.925   3.167   4.078  0.00  0.00    +0.000 A 
ATOM     33  C   UNL     1       3.832   2.483   3.291  0.00  0.00    +0.000 A 
ATOM     34  C   UNL     1       3.848   2.679   1.923  0.00  0.00    +0.004 A 
ENDBRANCH  22  29
ENDBRANCH  21  22
ENDBRANCH   8  21
TORSDOF 8
