REMARK  Name = ZINC13564460
REMARK  15 active torsions:
REMARK  status: ('A' for Active; 'I' for Inactive)
REMARK    1  A    between atoms: C_1  and  C_2
REMARK    2  A    between atoms: C_2  and  C_3
REMARK    3  A    between atoms: C_2  and  C_4
REMARK    4  A    between atoms: C_2  and  N_5
REMARK    5  A    between atoms: C_6  and  C_8
REMARK    6  A    between atoms: C_8  and  C_10
REMARK    7  A    between atoms: C_8  and  N_16
REMARK    8  A    between atoms: N_16  and  C_17
REMARK    9  A    between atoms: C_20  and  O_25
REMARK   10  A    between atoms: C_21  and  O_23
REMARK   11  A    between atoms: O_23  and  C_24
REMARK   12  A    between atoms: O_25  and  C_26
REMARK   13  A    between atoms: C_27  and  C_29
REMARK   14  A    between atoms: C_29  and  N_30
REMARK   15  A    between atoms: C_31  and  C_33
REMARK                            x       y       z     vdW  Elec       q    Type
REMARK                         _______ _______ _______ _____ _____    ______ ____
ROOT
ATOM      1  N   UNL     1      -1.319   3.338  -0.785  0.00  0.00    -0.254 N 
ATOM      2  C   UNL     1      -1.982   3.423  -1.955  0.00  0.00    +0.238 C 
ATOM      3  O   UNL     1      -1.669   4.265  -2.770  0.00  0.00    -0.274 OA
ENDROOT
BRANCH   1   4
ATOM      4  C   UNL     1      -0.334   4.282  -0.468  0.00  0.00    +0.041 A 
ATOM      5  C   UNL     1       1.003   3.909  -0.439  0.00  0.00    +0.027 A 
ATOM      6  C   UNL     1       1.975   4.839  -0.126  0.00  0.00    +0.051 A 
ATOM      7  C   UNL     1       1.618   6.147   0.160  0.00  0.00    +0.162 A 
ATOM      8  C   UNL     1       0.279   6.525   0.132  0.00  0.00    +0.163 A 
ATOM      9  C   UNL     1      -0.695   5.593  -0.188  0.00  0.00    +0.073 A 
BRANCH   8  10
ATOM     10  O   UNL     1      -0.072   7.808   0.412  0.00  0.00    -0.491 OA
ATOM     11  C   UNL     1      -1.465   8.125   0.364  0.00  0.00    +0.277 C 
ENDBRANCH   8  10
BRANCH   7  12
ATOM     12  O   UNL     1       2.577   7.062   0.468  0.00  0.00    -0.491 OA
ATOM     13  C   UNL     1       3.931   6.605   0.478  0.00  0.00    +0.277 C 
ENDBRANCH   7  12
ENDBRANCH   1   4
BRANCH   1  14
ATOM     14  C   UNL     1      -1.627   2.257   0.154  0.00  0.00    +0.197 C 
BRANCH  14  15
ATOM     15  C   UNL     1      -0.666   2.310   1.314  0.00  0.00    -0.018 A 
ATOM     16  C   UNL     1      -0.561   3.462   2.072  0.00  0.00    +0.006 A 
ATOM     17  C   UNL     1       0.326   3.514   3.131  0.00  0.00    +0.000 A 
ATOM     18  C   UNL     1       1.105   2.413   3.434  0.00  0.00    +0.000 A 
ATOM     19  C   UNL     1       0.999   1.261   2.678  0.00  0.00    +0.000 A 
ATOM     20  C   UNL     1       0.113   1.210   1.617  0.00  0.00    +0.006 A 
ENDBRANCH  14  15
BRANCH  14  22
ATOM     21  N   UNL     1      -3.684   1.368   1.203  0.00  0.00    -0.309 N 
ATOM     22  C   UNL     1      -3.037   2.419   0.662  0.00  0.00    +0.239 C 
ATOM     23  O   UNL     1      -3.589   3.496   0.584  0.00  0.00    -0.273 OA
ATOM     24  H   UNL     1      -3.242   0.507   1.265  0.00  0.00    +0.149 HD
BRANCH  21  26
ATOM     25  C   UNL     1      -5.962   1.967   0.546  0.00  0.00    +0.031 C 
ATOM     26  C   UNL     1      -5.054   1.526   1.696  0.00  0.00    +0.026 C 
ATOM     27  C   UNL     1      -5.552   0.192   2.256  0.00  0.00    +0.031 C 
ATOM     28  C   UNL     1      -5.080   2.584   2.801  0.00  0.00    +0.031 C 
ENDBRANCH  21  26
ENDBRANCH  14  22
ENDBRANCH   1  14
BRANCH   2  29
ATOM     29  C   UNL     1      -3.114   2.472  -2.251  0.00  0.00    +0.201 C 
BRANCH  29  30
ATOM     30  N   UNL     1      -3.667   2.768  -3.575  0.00  0.00    -0.302 N 
ATOM     31  C   UNL     1      -4.695   2.040  -4.054  0.00  0.00    +0.251 C 
ATOM     32  O   UNL     1      -5.163   1.137  -3.387  0.00  0.00    -0.270 OA
ATOM     33  H   UNL     1      -3.293   3.489  -4.107  0.00  0.00    +0.150 HD
BRANCH  31  34
ATOM     34  C   UNL     1      -5.248   2.337  -5.379  0.00  0.00    +0.074 A 
ATOM     35  C   UNL     1      -6.287   1.713  -6.051  0.00  0.00    +0.021 A 
ATOM     36  C   UNL     1      -6.609   2.198  -7.294  0.00  0.00    +0.008 A 
ATOM     37  C   UNL     1      -5.901   3.240  -7.802  0.00  0.00    +0.046 A 
ATOM     38  S   UNL     1      -4.755   3.589  -6.549  0.00  0.00    -0.092 S 
ENDBRANCH  31  34
ENDBRANCH  29  30
ENDBRANCH   2  29
TORSDOF 10
