REMARK  Name = ZINC40716466
REMARK  4 active torsions:
REMARK  status: ('A' for Active; 'I' for Inactive)
REMARK    1  A    between atoms: C_1  and  N_2
REMARK    2  A    between atoms: C_6  and  N_9
REMARK    3  A    between atoms: N_12  and  C_13
REMARK    4  A    between atoms: C_18  and  C_19
REMARK                            x       y       z     vdW  Elec       q    Type
REMARK                         _______ _______ _______ _____ _____    ______ ____
ROOT
ATOM      1  N   UNL     1       1.543  -2.479   2.340  0.00  0.00    -0.298 N 
ATOM      2  C   UNL     1       2.166  -3.674   2.311  0.00  0.00    +0.304 C 
ATOM      3  O   UNL     1       2.141  -4.348   1.299  0.00  0.00    -0.253 OA
ATOM      4  N   UNL     1       2.817  -4.122   3.403  0.00  0.00    -0.269 N 
ATOM      5  H   UNL     1       1.563  -1.942   3.147  0.00  0.00    +0.150 HD
ATOM      6  H   UNL     1       2.892  -3.557   4.188  0.00  0.00    +0.156 HD
ENDROOT
BRANCH   1  12
ATOM      7  C   UNL     1       0.051   1.493   0.005  0.00  0.00    -0.096 C 
ATOM      8  N   UNL     1       0.051   0.024   0.003  0.00  0.00    +0.379 N 
ATOM      9  C   UNL     1      -1.333  -0.465   0.014  0.00  0.00    -0.079 C 
ATOM     10  C   UNL     1      -1.339  -1.992  -0.070  0.00  0.00    -0.017 C 
ATOM     11  C   UNL     1      -0.584  -2.567   1.132  0.00  0.00    +0.018 C 
ATOM     12  C   UNL     1       0.836  -1.993   1.153  0.00  0.00    +0.058 C 
ATOM     13  C   UNL     1       0.761  -0.465   1.191  0.00  0.00    -0.057 C 
ATOM     14  H   UNL     1       0.517  -0.310  -0.827  0.00  0.00    -0.082 HD
ENDBRANCH   1  12
BRANCH   4  15
ATOM     15  C   UNL     1       3.381  -5.394   3.404  0.00  0.00    +0.050 A 
ATOM     16  C   UNL     1       3.939  -5.910   2.243  0.00  0.00    +0.039 A 
ATOM     17  C   UNL     1       4.499  -7.173   2.247  0.00  0.00    +0.020 A 
ATOM     18  C   UNL     1       4.507  -7.934   3.407  0.00  0.00    +0.016 A 
ATOM     19  C   UNL     1       3.958  -7.439   4.568  0.00  0.00    +0.018 A 
ATOM     20  C   UNL     1       3.393  -6.159   4.582  0.00  0.00    +0.084 A 
ATOM     21 BR   UNL     1       5.257  -7.869   0.660  0.00  0.00    -0.050 Br
BRANCH  20  22
ATOM     22  C   UNL     1       2.811  -5.621   5.820  0.00  0.00    +0.388 C 
ATOM     23  O   UNL     1       2.910  -6.248   6.866  0.00  0.00    -0.241 OA
ATOM     24  O   UNL     1       2.227  -4.546   5.805  0.00  0.00    -0.241 OA
ENDBRANCH  20  22
ENDBRANCH   4  15
TORSDOF 3
