REMARK  Name = ZINC13639888
REMARK  8 active torsions:
REMARK  status: ('A' for Active; 'I' for Inactive)
REMARK    1  A    between atoms: C_1  and  C_2
REMARK    2  A    between atoms: C_5  and  N_9
REMARK    3  A    between atoms: C_6  and  C_8
REMARK    4  A    between atoms: N_9  and  S_10
REMARK    5  A    between atoms: S_10  and  C_13
REMARK    6  A    between atoms: C_26  and  C_29
REMARK    7  A    between atoms: C_32  and  O_36
REMARK    8  A    between atoms: C_34  and  O_35
REMARK                            x       y       z     vdW  Elec       q    Type
REMARK                         _______ _______ _______ _____ _____    ______ ____
ROOT
ATOM      1  C   UNL     1       3.642   3.683  -0.173  0.00  0.00    +0.109 A 
ATOM      2  C   UNL     1       2.385   4.260  -0.204  0.00  0.00    +0.030 A 
ATOM      3  C   UNL     1       1.259   3.466  -0.262  0.00  0.00    +0.025 A 
ATOM      4  C   UNL     1       1.377   2.082  -0.291  0.00  0.00    +0.031 A 
ATOM      5  C   UNL     1       2.651   1.504  -0.247  0.00  0.00    -0.018 A 
ATOM      6  C   UNL     1       3.770   2.307  -0.195  0.00  0.00    +0.034 A 
ATOM      7  C   UNL     1       2.732   0.028  -0.257  0.00  0.00    +0.049 C 
ATOM      8  C   UNL     1       3.919  -0.720  -0.773  0.00  0.00    -0.023 C 
ATOM      9  C   UNL     1       3.514  -1.866  -1.308  0.00  0.00    -0.030 C 
ATOM     10  C   UNL     1       1.992  -1.984  -1.202  0.00  0.00    +0.033 C 
ATOM     11  C   UNL     1       1.572  -0.509  -1.147  0.00  0.00    +0.029 C 
ATOM     12  C   UNL     1       0.297  -0.180  -0.391  0.00  0.00    +0.108 C 
ATOM     13  N   UNL     1       0.220   1.297  -0.366  0.00  0.00    -0.336 N 
ATOM     14  H   UNL     1      -0.648   1.729  -0.406  0.00  0.00    +0.147 HD
ENDROOT
BRANCH  12  15
ATOM     15  C   UNL     1      -0.899  -0.752  -1.108  0.00  0.00    +0.015 A 
ATOM     16  C   UNL     1      -1.572   0.010  -2.045  0.00  0.00    +0.012 A 
ATOM     17  C   UNL     1      -2.668  -0.511  -2.704  0.00  0.00    +0.046 A 
ATOM     18  C   UNL     1      -3.097  -1.802  -2.427  0.00  0.00    +0.120 A 
ATOM     19  C   UNL     1      -2.424  -2.568  -1.488  0.00  0.00    +0.091 A 
ATOM     20  C   UNL     1      -1.321  -2.045  -0.832  0.00  0.00    +0.125 A 
BRANCH  20  21
ATOM     21  O   UNL     1      -0.656  -2.795   0.085  0.00  0.00    -0.506 OA
ATOM     22  H   UNL     1      -0.992  -2.704   0.987  0.00  0.00    +0.292 HD
ENDBRANCH  20  21
BRANCH  18  23
ATOM     23  O   UNL     1      -4.176  -2.314  -3.075  0.00  0.00    -0.507 OA
ATOM     24  H   UNL     1      -3.959  -2.774  -3.898  0.00  0.00    +0.292 HD
ENDBRANCH  18  23
ENDBRANCH  12  15
BRANCH   1  25
ATOM     25  S   UNL     1       5.078   4.701  -0.105  0.00  0.00    +0.072 S 
ATOM     26  O   UNL     1       6.147   3.930  -0.635  0.00  0.00    -0.150 OA
ATOM     27  O   UNL     1       4.707   5.963  -0.644  0.00  0.00    -0.150 OA
BRANCH  25  28
ATOM     28  N   UNL     1       5.424   4.954   1.494  0.00  0.00    -0.216 N 
ATOM     29  H   UNL     1       5.429   5.855   1.853  0.00  0.00    +0.174 HD
BRANCH  28  34
ATOM     30  C   UNL     1       6.579   0.548   4.873  0.00  0.00    +0.044 C 
ATOM     31  C   UNL     1       6.273   1.719   3.976  0.00  0.00    -0.050 A 
ATOM     32  C   UNL     1       6.694   1.707   2.658  0.00  0.00    +0.005 A 
ATOM     33  C   UNL     1       6.410   2.776   1.831  0.00  0.00    +0.025 A 
ATOM     34  C   UNL     1       5.709   3.869   2.327  0.00  0.00    +0.051 A 
ATOM     35  C   UNL     1       5.288   3.878   3.651  0.00  0.00    -0.028 A 
ATOM     36  C   UNL     1       5.572   2.803   4.471  0.00  0.00    +0.008 A 
ATOM     37  C   UNL     1       4.523   5.058   4.191  0.00  0.00    +0.046 C 
ENDBRANCH  28  34
ENDBRANCH  25  28
ENDBRANCH   1  25
TORSDOF 6
