REMARK  Name = ZINC51147800
REMARK  4 active torsions:
REMARK  status: ('A' for Active; 'I' for Inactive)
REMARK    1  A    between atoms: C_1  and  C_2
REMARK    2  A    between atoms: N_6  and  C_14
REMARK    3  A    between atoms: C_14  and  C_15
REMARK    4  A    between atoms: N_21  and  N_22
REMARK                            x       y       z     vdW  Elec       q    Type
REMARK                         _______ _______ _______ _____ _____    ______ ____
ROOT
ATOM      1  C   UNL     1      -0.410   1.480  -0.462  0.00  0.00    +0.062 C 
ATOM      2  C   UNL     1      -0.387  -0.049  -0.501  0.00  0.00    +0.256 C 
ATOM      3  C   UNL     1       0.527  -0.509  -1.608  0.00  0.00    +0.261 C 
ATOM      4  O   UNL     1       0.084  -0.713  -2.719  0.00  0.00    -0.271 OA
ATOM      5  N   UNL     1       1.842  -0.694  -1.358  0.00  0.00    -0.261 N 
ATOM      6  C   UNL     1       2.321  -0.486  -0.057  0.00  0.00    +0.079 A 
ATOM      7  C   UNL     1       3.679  -0.349   0.183  0.00  0.00    +0.027 A 
ATOM      8  C   UNL     1       4.131  -0.146   1.474  0.00  0.00    +0.002 A 
ATOM      9  C   UNL     1       3.233  -0.080   2.523  0.00  0.00    +0.004 A 
ATOM     10  C   UNL     1       1.877  -0.216   2.290  0.00  0.00    +0.047 A 
ATOM     11  C   UNL     1       1.416  -0.418   1.001  0.00  0.00    +0.143 A 
ATOM     12  O   UNL     1       0.087  -0.550   0.752  0.00  0.00    -0.478 OA
ENDROOT
BRANCH   5  13
ATOM     13  C   UNL     1       2.752  -1.105  -2.430  0.00  0.00    +0.150 C 
BRANCH  13  14
ATOM     14  C   UNL     1       2.915  -2.603  -2.403  0.00  0.00    -0.011 A 
ATOM     15  C   UNL     1       3.983  -3.180  -1.728  0.00  0.00    +0.010 A 
ATOM     16  C   UNL     1       4.096  -4.558  -1.727  0.00  0.00    +0.045 A 
ATOM     17  C   UNL     1       3.143  -5.316  -2.400  0.00  0.00    +0.132 A 
ATOM     18  N   UNL     1       2.139  -4.728  -3.033  0.00  0.00    -0.239 NA
ATOM     19  C   UNL     1       2.003  -3.415  -3.045  0.00  0.00    +0.118 A 
ATOM     20  N   UNL     1       3.245  -6.702  -2.409  0.00  0.00    -0.268 N 
ATOM     21  H   UNL     1       3.978  -7.137  -1.947  0.00  0.00    +0.167 HD
BRANCH  20  22
ATOM     22  N   UNL     1       2.312  -7.452  -3.067  0.00  0.00    -0.255 NA
ATOM     23  H   UNL     1       2.244  -7.175  -4.035  0.00  0.00    +0.140 HD
ATOM     24  H   UNL     1       2.516  -8.436  -2.986  0.00  0.00    +0.140 HD
ENDBRANCH  20  22
ENDBRANCH  13  14
ENDBRANCH   5  13
TORSDOF 3
