REMARK  Name = ZINC39856113
REMARK  9 active torsions:
REMARK  status: ('A' for Active; 'I' for Inactive)
REMARK    1  A    between atoms: C_1  and  C_2
REMARK    2  A    between atoms: C_6  and  C_7
REMARK    3  A    between atoms: N_9  and  C_10
REMARK    4  A    between atoms: C_10  and  C_11
REMARK    5  A    between atoms: C_21  and  C_29
REMARK    6  A    between atoms: C_21  and  C_30
REMARK    7  A    between atoms: N_24  and  N_25
REMARK    8  A    between atoms: N_25  and  C_26
REMARK    9  A    between atoms: C_26  and  N_28
REMARK                            x       y       z     vdW  Elec       q    Type
REMARK                         _______ _______ _______ _____ _____    ______ ____
ROOT
ATOM      1  C   UNL     1      -0.018   1.503   0.010  0.00  0.00    +0.048 C 
ATOM      2  C   UNL     1       0.002  -0.004   0.002  0.00  0.00    +0.009 A 
ATOM      3  C   UNL     1       0.009  -0.838  -1.123  0.00  0.00    +0.042 A 
ATOM      4  C   UNL     1       0.027  -2.137  -0.673  0.00  0.00    +0.116 A 
ATOM      5  O   UNL     1       0.035  -2.112   0.658  0.00  0.00    -0.454 OA
ATOM      6  C   UNL     1       0.024  -0.830   1.091  0.00  0.00    +0.193 A 
ATOM      7  C   UNL     1       0.034  -3.326  -1.600  0.00  0.00    +0.081 C 
ATOM      8  C   UNL     1      -0.491  -2.903  -2.974  0.00  0.00    -0.023 C 
ATOM      9  C   UNL     1       0.279  -1.685  -3.495  0.00  0.00    +0.064 C 
ATOM     10  C   UNL     1       0.000  -0.512  -2.566  0.00  0.00    +0.070 C 
ATOM     11  N   UNL     1      -0.229   0.686  -3.008  0.00  0.00    -0.185 NA
ATOM     12  C   UNL     1      -1.976  -2.549  -2.860  0.00  0.00    +0.011 C 
ATOM     13  C   UNL     1      -0.324  -4.063  -3.957  0.00  0.00    +0.011 C 
ENDROOT
BRANCH   6  14
ATOM     14  C   UNL     1       0.031  -0.400   2.494  0.00  0.00    +0.280 C 
ATOM     15  O   UNL     1       0.016   0.786   2.766  0.00  0.00    -0.267 OA
ATOM     16  N   UNL     1       0.053  -1.317   3.480  0.00  0.00    -0.305 N 
ATOM     17  H   UNL     1       0.065  -2.263   3.263  0.00  0.00    +0.149 HD
BRANCH  16  18
ATOM     18  C   UNL     1       0.060  -0.887   4.881  0.00  0.00    +0.140 C 
BRANCH  18  19
ATOM     19  C   UNL     1       0.086  -2.098   5.778  0.00  0.00    -0.027 A 
ATOM     20  C   UNL     1      -1.100  -2.673   6.195  0.00  0.00    +0.009 A 
ATOM     21  C   UNL     1      -1.082  -3.783   7.018  0.00  0.00    +0.050 A 
ATOM     22  C   UNL     1       0.127  -4.323   7.426  0.00  0.00    +0.166 A 
ATOM     23  C   UNL     1       1.322  -3.744   7.006  0.00  0.00    +0.167 A 
ATOM     24  C   UNL     1       1.296  -2.635   6.177  0.00  0.00    +0.054 A 
ATOM     25  O   UNL     1       2.360  -4.452   7.539  0.00  0.00    -0.453 OA
ATOM     26  C   UNL     1       1.791  -5.219   8.616  0.00  0.00    +0.466 C 
ATOM     27  O   UNL     1       0.417  -5.394   8.222  0.00  0.00    -0.453 OA
ENDBRANCH  18  19
ENDBRANCH  16  18
ENDBRANCH   6  14
BRANCH  11  28
ATOM     28  N   UNL     1      -0.224   0.938  -4.386  0.00  0.00    -0.218 N 
ATOM     29  H   UNL     1      -0.050   0.216  -5.010  0.00  0.00    +0.176 HD
BRANCH  28  30
ATOM     30  C   UNL     1      -0.462   2.183  -4.844  0.00  0.00    +0.147 C 
ATOM     31  S   UNL     1      -0.456   2.490  -6.529  0.00  0.00    -0.017 S 
BRANCH  30  32
ATOM     32  N   UNL     1      -0.704   3.186  -3.977  0.00  0.00    -0.339 N 
ATOM     33  H   UNL     1      -0.707   3.011  -3.023  0.00  0.00    +0.144 HD
ATOM     34  H   UNL     1      -0.875   4.082  -4.307  0.00  0.00    +0.144 HD
ENDBRANCH  30  32
ENDBRANCH  28  30
ENDBRANCH  11  28
TORSDOF 6
