REMARK  Name = ZINC17361094
REMARK  9 active torsions:
REMARK  status: ('A' for Active; 'I' for Inactive)
REMARK    1  A    between atoms: C_1  and  C_2
REMARK    2  A    between atoms: C_2  and  C_3
REMARK    3  A    between atoms: C_2  and  C_4
REMARK    4  A    between atoms: C_2  and  C_5
REMARK    5  A    between atoms: C_8  and  O_24
REMARK    6  A    between atoms: C_9  and  N_11
REMARK    7  A    between atoms: C_12  and  C_14
REMARK    8  A    between atoms: C_14  and  N_15
REMARK    9  A    between atoms: C_16  and  C_18
REMARK                            x       y       z     vdW  Elec       q    Type
REMARK                         _______ _______ _______ _____ _____    ______ ____
ROOT
ATOM      1  N   UNL     1       1.143   1.898   0.001  0.00  0.00    -0.281 N 
ATOM      2  C   UNL     1       0.067   1.341   0.591  0.00  0.00    +0.234 C 
ATOM      3  O   UNL     1       0.160   0.252   1.116  0.00  0.00    -0.274 OA
ATOM      4  H   UNL     1       1.055   2.739  -0.475  0.00  0.00    +0.155 HD
ENDROOT
BRANCH   1   9
ATOM      5  C   UNL     1       3.700  -0.744   0.137  0.00  0.00    -0.040 A 
ATOM      6  C   UNL     1       4.856   0.009   0.225  0.00  0.00    +0.008 A 
ATOM      7  C   UNL     1       4.786   1.390   0.239  0.00  0.00    +0.047 A 
ATOM      8  C   UNL     1       3.556   2.023   0.165  0.00  0.00    +0.138 A 
ATOM      9  C   UNL     1       2.391   1.264   0.076  0.00  0.00    +0.076 A 
ATOM     10  C   UNL     1       2.468  -0.121   0.068  0.00  0.00    +0.031 A 
BRANCH   5  12
ATOM     11  C   UNL     1       5.248  -2.680   0.216  0.00  0.00    +0.015 C 
ATOM     12  C   UNL     1       3.783  -2.249   0.123  0.00  0.00    -0.013 C 
ATOM     13  C   UNL     1       3.008  -2.814   1.316  0.00  0.00    +0.015 C 
ATOM     14  C   UNL     1       3.176  -2.780  -1.177  0.00  0.00    +0.015 C 
ENDBRANCH   5  12
BRANCH   8  15
ATOM     15  O   UNL     1       3.486   3.381   0.179  0.00  0.00    -0.505 OA
ATOM     16  H   UNL     1       3.406   3.761   1.065  0.00  0.00    +0.292 HD
ENDBRANCH   8  15
ENDBRANCH   1   9
BRANCH   2  17
ATOM     17  C   UNL     1      -1.253   2.068   0.592  0.00  0.00    +0.200 C 
BRANCH  17  18
ATOM     18  N   UNL     1      -2.257   1.256   1.283  0.00  0.00    -0.300 N 
ATOM     19  C   UNL     1      -3.520   1.708   1.407  0.00  0.00    +0.280 C 
ATOM     20  O   UNL     1      -3.827   2.791   0.944  0.00  0.00    -0.267 OA
ATOM     21  H   UNL     1      -2.013   0.393   1.652  0.00  0.00    +0.150 HD
BRANCH  19  22
ATOM     22  C   UNL     1      -4.525   0.896   2.099  0.00  0.00    +0.191 A 
ATOM     23  C   UNL     1      -5.833   1.236   2.299  0.00  0.00    +0.056 A 
ATOM     24  C   UNL     1      -6.424   0.172   2.997  0.00  0.00    +0.058 A 
ATOM     25  C   UNL     1      -5.461  -0.756   3.198  0.00  0.00    +0.171 A 
ATOM     26  O   UNL     1      -4.318  -0.316   2.656  0.00  0.00    -0.444 OA
ATOM     27 BR   UNL     1      -5.691  -2.405   4.097  0.00  0.00    -0.008 Br
ENDBRANCH  19  22
ENDBRANCH  17  18
ENDBRANCH   2  17
TORSDOF 6
