REMARK  Name = ZINC13130331
REMARK  3 active torsions:
REMARK  status: ('A' for Active; 'I' for Inactive)
REMARK    1  A    between atoms: C_3  and  C_6
REMARK    2  A    between atoms: C_9  and  C_20
REMARK    3  A    between atoms: C_14  and  C_16
REMARK                            x       y       z     vdW  Elec       q    Type
REMARK                         _______ _______ _______ _____ _____    ______ ____
ROOT
ATOM      1  C   UNL     1       3.599   0.625  -0.029  0.00  0.00    +0.140 C 
ATOM      2  C   UNL     1       4.121   0.346   1.384  0.00  0.00    +0.066 C 
ATOM      3  C   UNL     1       3.526  -0.964   1.912  0.00  0.00    +0.215 C 
ATOM      4  N   UNL     1       3.711  -2.010   0.902  0.00  0.00    -0.238 N 
ATOM      5  C   UNL     1       3.963  -1.755  -0.416  0.00  0.00    +0.119 A 
ATOM      6  C   UNL     1       4.081  -2.934  -1.058  0.00  0.00    +0.078 A 
ATOM      7  C   UNL     1       3.893  -3.960  -0.103  0.00  0.00    +0.149 A 
ATOM      8  N   UNL     1       3.671  -3.394   1.071  0.00  0.00    -0.164 NA
ATOM      9  N   UNL     1       4.061  -0.453  -0.926  0.00  0.00    -0.319 N 
ATOM     10  H   UNL     1       4.412  -0.269  -1.812  0.00  0.00    +0.148 HD
ENDROOT
BRANCH   1  13
ATOM     11  C   UNL     1      -0.016   1.341   0.009  0.00  0.00    +0.041 A 
ATOM     12  C   UNL     1       1.331   1.769  -0.001  0.00  0.00    +0.046 A 
ATOM     13  C   UNL     1       2.092   0.660  -0.014  0.00  0.00    +0.125 A 
ATOM     14  O   UNL     1       1.282  -0.411  -0.012  0.00  0.00    -0.466 OA
ATOM     15  C   UNL     1       0.002  -0.004   0.002  0.00  0.00    +0.195 A 
ENDBRANCH   1  13
BRANCH   7  16
ATOM     16  C   UNL     1       3.938  -5.412  -0.370  0.00  0.00    +0.262 C 
ATOM     17  O   UNL     1       4.152  -5.816  -1.497  0.00  0.00    -0.269 OA
ATOM     18  N   UNL     1       3.742  -6.288   0.634  0.00  0.00    -0.324 N 
ATOM     19  H   UNL     1       3.571  -5.966   1.533  0.00  0.00    +0.145 HD
ATOM     20  H   UNL     1       3.771  -7.242   0.459  0.00  0.00    +0.145 HD
ENDBRANCH   7  16
BRANCH   3  21
ATOM     21  C   UNL     1       4.236  -1.366   3.205  0.00  0.00    +0.412 C 
ATOM     22  F   UNL     1       4.067  -0.360   4.162  0.00  0.00    -0.168 F 
ATOM     23  F   UNL     1       3.691  -2.562   3.685  0.00  0.00    -0.168 F 
ATOM     24  F   UNL     1       5.601  -1.544   2.952  0.00  0.00    -0.168 F 
ENDBRANCH   3  21
TORSDOF 3
