REMARK  Name = ZINC37581642
REMARK  6 active torsions:
REMARK  status: ('A' for Active; 'I' for Inactive)
REMARK    1  A    between atoms: C_1  and  C_2
REMARK    2  A    between atoms: N_8  and  S_9
REMARK    3  A    between atoms: S_9  and  C_12
REMARK    4  A    between atoms: C_17  and  C_18
REMARK    5  A    between atoms: C_19  and  C_20
REMARK    6  A    between atoms: C_20  and  N_21
REMARK                            x       y       z     vdW  Elec       q    Type
REMARK                         _______ _______ _______ _____ _____    ______ ____
ROOT
ATOM      1  C   UNL     1       0.047   0.243   5.101  0.00  0.00    +0.128 A 
ATOM      2  C   UNL     1      -1.026   0.311   5.967  0.00  0.00    +0.030 A 
ATOM      3  C   UNL     1      -1.030   1.235   6.997  0.00  0.00    +0.002 A 
ATOM      4  C   UNL     1       0.040   2.096   7.166  0.00  0.00    +0.001 A 
ATOM      5  C   UNL     1       1.118   2.038   6.308  0.00  0.00    +0.019 A 
ATOM      6  C   UNL     1       1.131   1.105   5.270  0.00  0.00    +0.052 A 
ENDROOT
BRANCH   1   7
ATOM      7  S   UNL     1       0.051  -0.934   3.791  0.00  0.00    +0.102 S 
ATOM      8  O   UNL     1      -1.185  -1.632   3.868  0.00  0.00    -0.146 OA
ATOM      9  O   UNL     1       1.306  -1.599   3.845  0.00  0.00    -0.146 OA
BRANCH   7  17
ATOM     10  C   UNL     1      -0.018   1.503   0.010  0.00  0.00    +0.047 C 
ATOM     11  C   UNL     1       0.002  -0.004   0.002  0.00  0.00    -0.007 A 
ATOM     12  C   UNL     1       0.006  -0.684  -1.174  0.00  0.00    +0.008 A 
ATOM     13  C   UNL     1       0.025  -2.090  -1.165  0.00  0.00    +0.018 A 
ATOM     14  C   UNL     1       0.041  -2.765   0.004  0.00  0.00    +0.084 A 
ATOM     15  N   UNL     1       0.037  -2.099   1.193  0.00  0.00    -0.345 N 
ATOM     16  C   UNL     1       0.023  -0.726   1.219  0.00  0.00    +0.155 A 
ATOM     17  N   UNL     1       0.026  -0.085   2.369  0.00  0.00    -0.111 NA
ATOM     18  H   UNL     1       0.047  -2.598   2.025  0.00  0.00    +0.167 HD
ENDBRANCH   7  17
ENDBRANCH   1   7
BRANCH   6  19
ATOM     19  C   UNL     1       2.250   1.035   4.379  0.00  0.00    -0.066 C 
ATOM     20  C   UNL     1       3.168   0.979   3.649  0.00  0.00    -0.117 C 
BRANCH  20  21
ATOM     21  C   UNL     1       4.318   0.907   2.733  0.00  0.00    +0.005 C 
BRANCH  21  22
ATOM     22  N   UNL     1       5.317   1.912   3.123  0.00  0.00    +0.385 N 
ATOM     23  H   UNL     1       4.905   2.832   3.075  0.00  0.00    -0.089 HD
ATOM     24  H   UNL     1       5.626   1.730   4.066  0.00  0.00    -0.089 HD
ATOM     25  H   UNL     1       6.105   1.863   2.495  0.00  0.00    -0.089 HD
ENDBRANCH  21  22
ENDBRANCH  20  21
ENDBRANCH   6  19
TORSDOF 5
