REMARK  Name = ZINC59016865
REMARK  10 active torsions:
REMARK  status: ('A' for Active; 'I' for Inactive)
REMARK    1  A    between atoms: C_1  and  O_2
REMARK    2  A    between atoms: O_2  and  C_3
REMARK    3  A    between atoms: C_7  and  C_10
REMARK    4  A    between atoms: C_8  and  O_9
REMARK    5  A    between atoms: N_11  and  N_12
REMARK    6  A    between atoms: C_15  and  S_18
REMARK    7  A    between atoms: S_18  and  C_19
REMARK    8  A    between atoms: C_19  and  C_20
REMARK    9  A    between atoms: N_22  and  C_23
REMARK   10  A    between atoms: C_24  and  C_31
REMARK                            x       y       z     vdW  Elec       q    Type
REMARK                         _______ _______ _______ _____ _____    ______ ____
ROOT
ATOM      1  N   UNL     1       0.933  -6.219   1.356  0.00  0.00    -0.205 N 
ATOM      2  C   UNL     1       0.362  -6.984   0.356  0.00  0.00    +0.232 A 
ATOM      3  N   UNL     1      -0.265  -6.525  -0.707  0.00  0.00    -0.186 NA
ATOM      4  C   UNL     1      -0.686  -7.548  -1.458  0.00  0.00    +0.211 A 
ATOM      5  N   UNL     1      -0.331  -8.673  -0.883  0.00  0.00    -0.144 NA
ATOM      6  N   UNL     1       0.356  -8.332   0.294  0.00  0.00    -0.245 N 
ATOM      7  H   UNL     1       1.380  -6.650   2.101  0.00  0.00    +0.177 HD
ATOM      8  H   UNL     1       0.747  -8.945   0.936  0.00  0.00    +0.192 HD
ENDROOT
BRANCH   1  10
ATOM      9  C   UNL     1       1.402  -4.103   2.234  0.00  0.00    +0.142 C 
ATOM     10  N   UNL     1       0.866  -4.821   1.294  0.00  0.00    -0.187 NA
BRANCH   9  15
ATOM     11  C   UNL     1       0.626  -0.619   1.042  0.00  0.00    +0.162 A 
ATOM     12  C   UNL     1       1.202   0.139   2.051  0.00  0.00    +0.049 A 
ATOM     13  C   UNL     1       1.838  -0.480   3.113  0.00  0.00    +0.004 A 
ATOM     14  C   UNL     1       1.907  -1.856   3.178  0.00  0.00    +0.013 A 
ATOM     15  C   UNL     1       1.331  -2.632   2.168  0.00  0.00    +0.040 A 
ATOM     16  C   UNL     1       0.682  -2.006   1.097  0.00  0.00    +0.167 A 
BRANCH  11  18
ATOM     17  C   UNL     1      -0.017   1.425   0.010  0.00  0.00    +0.277 C 
ATOM     18  O   UNL     1       0.002  -0.004   0.002  0.00  0.00    -0.491 OA
ENDBRANCH  11  18
BRANCH  16  19
ATOM     19  O   UNL     1       0.114  -2.752   0.113  0.00  0.00    -0.503 OA
ATOM     20  H   UNL     1       0.710  -2.954  -0.621  0.00  0.00    +0.292 HD
ENDBRANCH  16  19
ENDBRANCH   9  15
ENDBRANCH   1  10
BRANCH   4  21
ATOM     21  S   UNL     1      -1.573  -7.409  -2.974  0.00  0.00    -0.075 S 
BRANCH  21  22
ATOM     22  C   UNL     1      -1.841  -9.128  -3.485  0.00  0.00    +0.173 C 
BRANCH  22  23
ATOM     23  C   UNL     1      -2.600  -9.153  -4.786  0.00  0.00    +0.228 C 
ATOM     24  O   UNL     1      -2.928  -8.113  -5.317  0.00  0.00    -0.275 OA
ATOM     25  N   UNL     1      -2.915 -10.331  -5.361  0.00  0.00    -0.278 N 
ATOM     26  H   UNL     1      -2.653 -11.163  -4.937  0.00  0.00    +0.155 HD
BRANCH  25  27
ATOM     27  C   UNL     1      -3.614 -10.353  -6.560  0.00  0.00    +0.090 A 
ATOM     28  C   UNL     1      -4.024 -11.457  -7.284  0.00  0.00    +0.084 A 
ATOM     29  C   UNL     1      -4.752 -11.210  -8.527  0.00  0.00    -0.018 A 
ATOM     30  C   UNL     1      -4.930  -9.906  -8.809  0.00  0.00    -0.004 A 
ATOM     31  S   UNL     1      -4.162  -9.048  -7.459  0.00  0.00    -0.077 S 
ATOM     32  C   UNL     1      -5.680  -9.709 -10.098  0.00  0.00    +0.043 C 
ATOM     33  C   UNL     1      -5.582 -11.072 -10.819  0.00  0.00    +0.010 C 
ATOM     34  C   UNL     1      -5.393 -12.042  -9.635  0.00  0.00    +0.037 C 
BRANCH  28  35
ATOM     35  C   UNL     1      -3.746 -12.787  -6.834  0.00  0.00    +0.102 C 
ATOM     36  N   UNL     1      -3.525 -13.843  -6.478  0.00  0.00    -0.191 NA
ENDBRANCH  28  35
ENDBRANCH  25  27
ENDBRANCH  22  23
ENDBRANCH  21  22
ENDBRANCH   4  21
TORSDOF 9
