REMARK  Name = ZINC52529949
REMARK  12 active torsions:
REMARK  status: ('A' for Active; 'I' for Inactive)
REMARK    1  A    between atoms: C_1  and  C_2
REMARK    2  A    between atoms: C_3  and  C_23
REMARK    3  A    between atoms: C_5  and  C_7
REMARK    4  A    between atoms: C_7  and  N_8
REMARK    5  A    between atoms: N_11  and  C_12
REMARK    6  A    between atoms: C_12  and  C_13
REMARK    7  A    between atoms: C_13  and  N_20
REMARK    8  A    between atoms: C_17  and  C_19
REMARK    9  A    between atoms: N_20  and  C_21
REMARK   10  A    between atoms: N_20  and  C_22
REMARK   11  A    between atoms: C_23  and  O_25
REMARK   12  A    between atoms: O_25  and  C_26
REMARK                            x       y       z     vdW  Elec       q    Type
REMARK                         _______ _______ _______ _____ _____    ______ ____
ROOT
ATOM      1  N   UNL     1       2.691  -8.663  -1.034  0.00  0.00    -0.292 N 
ATOM      2  C   UNL     1       3.287  -7.539  -1.479  0.00  0.00    +0.300 C 
ATOM      3  O   UNL     1       3.647  -6.688  -0.688  0.00  0.00    -0.253 OA
ATOM      4  N   UNL     1       3.485  -7.358  -2.800  0.00  0.00    -0.301 N 
ATOM      5  H   UNL     1       2.404  -9.342  -1.665  0.00  0.00    +0.151 HD
ATOM      6  H   UNL     1       3.199  -8.037  -3.430  0.00  0.00    +0.150 HD
ENDROOT
BRANCH   1   7
ATOM      7  C   UNL     1       2.476  -8.860   0.401  0.00  0.00    +0.180 C 
BRANCH   7  12
ATOM      8  C   UNL     1      -1.196 -12.262   0.996  0.00  0.00    +0.087 C 
ATOM      9  C   UNL     1       0.185 -11.670   0.890  0.00  0.00    +0.116 A 
ATOM     10  C   UNL     1       1.359 -12.357   1.004  0.00  0.00    +0.100 A 
ATOM     11  C   UNL     1       2.422 -11.355   0.829  0.00  0.00    +0.061 A 
ATOM     12  C   UNL     1       1.796 -10.185   0.631  0.00  0.00    +0.123 A 
ATOM     13  O   UNL     1       0.469 -10.384   0.664  0.00  0.00    -0.462 OA
BRANCH  10  14
ATOM     14  C   UNL     1       1.527 -13.799   1.251  0.00  0.00    +0.342 C 
ATOM     15  O   UNL     1       0.550 -14.511   1.377  0.00  0.00    -0.245 OA
BRANCH  14  16
ATOM     16  O   UNL     1       2.763 -14.328   1.337  0.00  0.00    -0.464 OA
ATOM     17  C   UNL     1       2.851 -15.734   1.578  0.00  0.00    +0.280 C 
ENDBRANCH  14  16
ENDBRANCH  10  14
ENDBRANCH   7  12
ENDBRANCH   1   7
BRANCH   4  18
ATOM     18  C   UNL     1       4.133  -6.136  -3.283  0.00  0.00    +0.094 C 
BRANCH  18  19
ATOM     19  C   UNL     1       4.356  -6.240  -4.793  0.00  0.00    -0.050 C 
ATOM     20  C   UNL     1       3.007  -6.392  -5.498  0.00  0.00    -0.010 C 
ATOM     21  C   UNL     1       3.229  -6.495  -7.008  0.00  0.00    -0.001 C 
ATOM     22  C   UNL     1       4.104  -7.713  -7.312  0.00  0.00    +0.003 C 
ATOM     23  C   UNL     1       5.453  -7.561  -6.607  0.00  0.00    -0.015 C 
ATOM     24  C   UNL     1       5.231  -7.458  -5.097  0.00  0.00    -0.007 C 
ATOM     25  C   UNL     1       6.328  -8.779  -6.912  0.00  0.00    +0.007 C 
BRANCH  19  26
ATOM     26  N   UNL     1       5.026  -5.024  -5.273  0.00  0.00    +0.381 N 
ATOM     27  C   UNL     1       4.183  -3.855  -4.987  0.00  0.00    -0.096 C 
ATOM     28  C   UNL     1       6.318  -4.874  -4.591  0.00  0.00    -0.096 C 
ATOM     29  H   UNL     1       5.176  -5.094  -6.269  0.00  0.00    -0.082 HD
ENDBRANCH  19  26
ENDBRANCH  18  19
ENDBRANCH   4  18
TORSDOF 7
