REMARK  Name = ZINC50058368
REMARK  11 active torsions:
REMARK  status: ('A' for Active; 'I' for Inactive)
REMARK    1  A    between atoms: C_1  and  C_2
REMARK    2  A    between atoms: C_2  and  C_3
REMARK    3  A    between atoms: C_2  and  C_4
REMARK    4  A    between atoms: C_4  and  N_5
REMARK    5  A    between atoms: C_6  and  C_8
REMARK    6  A    between atoms: C_8  and  N_9
REMARK    7  A    between atoms: N_12  and  C_13
REMARK    8  A    between atoms: C_23  and  C_25
REMARK    9  A    between atoms: C_25  and  C_26
REMARK   10  A    between atoms: C_25  and  C_27
REMARK   11  A    between atoms: C_25  and  C_28
REMARK                            x       y       z     vdW  Elec       q    Type
REMARK                         _______ _______ _______ _____ _____    ______ ____
ROOT
ATOM      1  C   UNL     1       0.119   0.101  10.002  0.00  0.00    +0.037 A 
ATOM      2  C   UNL     1      -0.921   0.966  10.312  0.00  0.00    +0.027 A 
ATOM      3  C   UNL     1      -1.201   1.273  11.630  0.00  0.00    +0.049 A 
ATOM      4  C   UNL     1      -0.443   0.717  12.650  0.00  0.00    +0.142 A 
ATOM      5  C   UNL     1       0.598  -0.153  12.339  0.00  0.00    +0.080 A 
ATOM      6  C   UNL     1       0.876  -0.464  11.018  0.00  0.00    +0.050 A 
ATOM      7  N   UNL     1       1.362  -0.724  13.372  0.00  0.00    -0.265 N 
ATOM      8  C   UNL     1       1.234  -0.142  14.719  0.00  0.00    +0.154 C 
ATOM      9  C   UNL     1      -0.255   0.144  14.961  0.00  0.00    +0.248 C 
ATOM     10  O   UNL     1      -0.725   1.031  13.943  0.00  0.00    -0.489 OA
ATOM     11  C   UNL     1       2.183  -1.767  13.138  0.00  0.00    +0.225 C 
ATOM     12  O   UNL     1       2.327  -2.183  12.008  0.00  0.00    -0.275 OA
ENDROOT
BRANCH   1  16
ATOM     13  N   UNL     1       0.613   0.470   6.439  0.00  0.00    -0.291 N 
ATOM     14  C   UNL     1       0.257   0.737   7.711  0.00  0.00    +0.304 C 
ATOM     15  O   UNL     1      -0.195   1.829   8.000  0.00  0.00    -0.252 OA
ATOM     16  N   UNL     1       0.401  -0.206   8.664  0.00  0.00    -0.269 N 
ATOM     17  H   UNL     1       0.972  -0.401   6.209  0.00  0.00    +0.151 HD
ATOM     18  H   UNL     1       0.699  -1.097   8.423  0.00  0.00    +0.156 HD
BRANCH  13  19
ATOM     19  C   UNL     1       0.456   1.494   5.404  0.00  0.00    +0.201 C 
BRANCH  19  21
ATOM     20  N   UNL     1       0.872   1.718   2.976  0.00  0.00    -0.314 N 
ATOM     21  C   UNL     1       0.923   0.947   4.080  0.00  0.00    +0.230 C 
ATOM     22  O   UNL     1       1.346  -0.188   4.008  0.00  0.00    -0.274 OA
ATOM     23  H   UNL     1       0.534   2.625   3.033  0.00  0.00    +0.149 HD
BRANCH  20  24
ATOM     24  C   UNL     1       1.326   1.185   1.689  0.00  0.00    +0.107 C 
BRANCH  24  26
ATOM     25  C   UNL     1       2.093   3.432   0.910  0.00  0.00    +0.009 C 
ATOM     26  C   UNL     1       1.163   2.256   0.608  0.00  0.00    -0.000 C 
ATOM     27  C   UNL     1       1.519   1.661  -0.756  0.00  0.00    +0.009 C 
ENDBRANCH  24  26
ENDBRANCH  20  24
ENDBRANCH  19  21
ENDBRANCH  13  19
ENDBRANCH   1  16
BRANCH  11  28
ATOM     28  C   UNL     1       2.921  -2.416  14.280  0.00  0.00    +0.039 C 
ATOM     29  C   UNL     1       3.814  -3.535  13.740  0.00  0.00    +0.020 C 
ATOM     30  C   UNL     1       3.786  -1.371  14.988  0.00  0.00    +0.020 C 
ATOM     31  C   UNL     1       1.914  -3.001  15.272  0.00  0.00    +0.020 C 
ENDBRANCH  11  28
TORSDOF 6
