REMARK  Name = ZINC62810600
REMARK  5 active torsions:
REMARK  status: ('A' for Active; 'I' for Inactive)
REMARK    1  A    between atoms: C_1  and  C_2
REMARK    2  A    between atoms: C_7  and  N_12
REMARK    3  A    between atoms: C_9  and  C_11
REMARK    4  A    between atoms: C_13  and  C_15
REMARK    5  A    between atoms: C_16  and  N_21
REMARK                            x       y       z     vdW  Elec       q    Type
REMARK                         _______ _______ _______ _____ _____    ______ ____
ROOT
ATOM      1  N   UNL     1       1.471  -2.526   2.420  0.00  0.00    -0.307 N 
ATOM      2  C   UNL     1       1.207  -3.754   2.907  0.00  0.00    +0.266 C 
ATOM      3  O   UNL     1       0.380  -4.460   2.362  0.00  0.00    -0.268 OA
ATOM      4  H   UNL     1       2.131  -1.963   2.855  0.00  0.00    +0.149 HD
ENDROOT
BRANCH   1  10
ATOM      5  C   UNL     1      -0.019   1.526   0.010  0.00  0.00    +0.008 C 
ATOM      6  C   UNL     1       0.002  -0.004   0.002  0.00  0.00    -0.009 C 
ATOM      7  C   UNL     1       0.718  -0.497  -1.257  0.00  0.00    +0.003 C 
ATOM      8  C   UNL     1       0.739  -2.027  -1.265  0.00  0.00    +0.002 C 
ATOM      9  C   UNL     1       1.479  -2.534  -0.026  0.00  0.00    +0.022 C 
ATOM     10  C   UNL     1       0.763  -2.041   1.233  0.00  0.00    +0.076 C 
ATOM     11  C   UNL     1       0.742  -0.511   1.242  0.00  0.00    +0.009 C 
ATOM     12  C   UNL     1       0.026  -0.018   2.500  0.00  0.00    +0.009 C 
ENDBRANCH   1  10
BRANCH   2  13
ATOM     13  C   UNL     1       1.920  -4.243   4.102  0.00  0.00    +0.167 A 
ATOM     14  C   UNL     1       1.755  -5.507   4.725  0.00  0.00    +0.075 A 
ATOM     15  C   UNL     1       2.614  -5.506   5.779  0.00  0.00    +0.128 A 
ATOM     16  N   UNL     1       3.249  -4.305   5.774  0.00  0.00    -0.282 N 
ATOM     17  H   UNL     1       3.920  -4.030   6.418  0.00  0.00    +0.188 HD
ATOM     18  N   UNL     1       2.837  -3.589   4.790  0.00  0.00    -0.167 NA
BRANCH  14  19
ATOM     19  N   UNL     1       0.889  -6.539   4.335  0.00  0.00    -0.355 N 
ATOM     20  H   UNL     1       0.317  -6.426   3.560  0.00  0.00    +0.142 HD
ATOM     21  H   UNL     1       0.861  -7.366   4.842  0.00  0.00    +0.142 HD
ENDBRANCH  14  19
ENDBRANCH   2  13
TORSDOF 3
