REMARK  Name = ZINC35982286
REMARK  5 active torsions:
REMARK  status: ('A' for Active; 'I' for Inactive)
REMARK    1  A    between atoms: C_1  and  C_2
REMARK    2  A    between atoms: C_2  and  C_16
REMARK    3  A    between atoms: C_5  and  C_10
REMARK    4  A    between atoms: C_7  and  C_8
REMARK    5  A    between atoms: C_7  and  C_9
REMARK                            x       y       z     vdW  Elec       q    Type
REMARK                         _______ _______ _______ _____ _____    ______ ____
ROOT
ATOM      1  C   UNL     1      -0.022   1.509  -0.069  0.00  0.00    +0.023 C 
ATOM      2  C   UNL     1       0.018  -0.016  -0.182  0.00  0.00    +0.075 C 
ATOM      3  C   UNL     1       0.879  -0.434  -1.393  0.00  0.00    +0.019 C 
ATOM      4  C   UNL     1       2.277  -0.713  -0.787  0.00  0.00    +0.013 C 
ATOM      5  C   UNL     1       1.935  -1.384   0.567  0.00  0.00    +0.064 C 
ATOM      6  C   UNL     1       0.690  -0.620   1.063  0.00  0.00    -0.010 C 
ATOM      7  C   UNL     1      -0.272  -1.584   1.762  0.00  0.00    +0.012 C 
ATOM      8  C   UNL     1       1.107   0.493   2.026  0.00  0.00    +0.012 C 
ENDROOT
BRANCH   5   9
ATOM      9  C   UNL     1       3.076  -1.225   1.538  0.00  0.00    +0.136 A 
ATOM     10  N   UNL     1       3.925  -0.156   1.622  0.00  0.00    -0.313 N 
ATOM     11  C   UNL     1       4.790  -0.450   2.636  0.00  0.00    +0.212 A 
ATOM     12  N   UNL     1       4.449  -1.628   3.103  0.00  0.00    -0.114 NA
ATOM     13  N   UNL     1       3.434  -2.078   2.455  0.00  0.00    -0.133 NA
ATOM     14  N   UNL     1       5.832   0.344   3.086  0.00  0.00    -0.328 N 
ATOM     15  H   UNL     1       6.002   1.204   2.670  0.00  0.00    +0.145 HD
ATOM     16  H   UNL     1       6.392   0.041   3.818  0.00  0.00    +0.145 HD
ATOM     17  H   UNL     1       3.915   0.645   1.075  0.00  0.00    +0.170 HD
ENDBRANCH   5   9
BRANCH   2  18
ATOM     18  C   UNL     1      -1.380  -0.559  -0.330  0.00  0.00    +0.362 C 
ATOM     19  O   UNL     1      -1.570  -1.594  -0.946  0.00  0.00    -0.246 OA
ATOM     20  O   UNL     1      -2.321   0.036   0.167  0.00  0.00    -0.246 OA
ENDBRANCH   2  18
TORSDOF 2
