REMARK  Name = ZINC16026456
REMARK  5 active torsions:
REMARK  status: ('A' for Active; 'I' for Inactive)
REMARK    1  A    between atoms: C_2  and  C_3
REMARK    2  A    between atoms: C_3  and  N_4
REMARK    3  A    between atoms: C_9  and  C_26
REMARK    4  A    between atoms: C_26  and  C_27
REMARK    5  A    between atoms: C_27  and  C_28
REMARK                            x       y       z     vdW  Elec       q    Type
REMARK                         _______ _______ _______ _____ _____    ______ ____
ROOT
ATOM      1  N   UNL     1      -1.318  -1.700  -1.126  0.00  0.00    -0.238 N 
ATOM      2  C   UNL     1      -1.803  -1.359  -2.325  0.00  0.00    +0.227 C 
ATOM      3  O   UNL     1      -2.269  -0.277  -2.611  0.00  0.00    -0.275 OA
ATOM      4  C   UNL     1      -1.679  -2.533  -3.270  0.00  0.00    +0.107 C 
ATOM      5  C   UNL     1      -0.629  -2.203  -4.352  0.00  0.00    +0.068 C 
ATOM      6  N   UNL     1       0.224  -3.418  -4.439  0.00  0.00    -0.295 NA
ATOM      7  C   UNL     1       0.354  -3.869  -3.041  0.00  0.00    +0.136 C 
ATOM      8  C   UNL     1      -1.030  -3.636  -2.387  0.00  0.00    +0.122 C 
ATOM      9  C   UNL     1      -0.852  -2.952  -1.050  0.00  0.00    +0.229 C 
ATOM     10  O   UNL     1      -0.366  -3.460  -0.063  0.00  0.00    -0.275 OA
ATOM     11  C   UNL     1       0.757  -5.314  -2.965  0.00  0.00    +0.003 A 
ATOM     12  C   UNL     1       0.191  -6.482  -3.426  0.00  0.00    +0.008 A 
ATOM     13  C   UNL     1       0.817  -7.694  -3.195  0.00  0.00    +0.000 A 
ATOM     14  C   UNL     1       2.013  -7.729  -2.500  0.00  0.00    +0.002 A 
ATOM     15  C   UNL     1       2.583  -6.562  -2.036  0.00  0.00    +0.023 A 
ATOM     16  C   UNL     1       1.959  -5.338  -2.264  0.00  0.00    +0.039 A 
ATOM     17  N   UNL     1       2.333  -4.042  -1.902  0.00  0.00    -0.283 N 
ATOM     18  C   UNL     1       1.443  -3.121  -2.321  0.00  0.00    +0.243 C 
ATOM     19  O   UNL     1       1.508  -1.922  -2.152  0.00  0.00    -0.273 OA
ATOM     20  H   UNL     1      -0.213  -4.127  -5.009  0.00  0.00    +0.123 HD
ATOM     21  H   UNL     1       3.139  -3.829  -1.406  0.00  0.00    +0.155 HD
ENDROOT
BRANCH   1  22
ATOM     22  C   UNL     1      -1.293  -0.775   0.010  0.00  0.00    +0.143 C 
BRANCH  22  24
ATOM     23  C   UNL     1      -0.016   1.306   0.009  0.00  0.00    +0.005 C 
ATOM     24  C   UNL     1       0.002  -0.004   0.002  0.00  0.00    -0.015 C 
ENDBRANCH  22  24
ENDBRANCH   1  22
BRANCH   5  25
ATOM     25  C   UNL     1      -1.314  -1.934  -5.694  0.00  0.00    +0.028 C 
BRANCH  25  26
ATOM     26  C   UNL     1      -0.270  -1.488  -6.719  0.00  0.00    +0.097 C 
BRANCH  26  27
ATOM     27  C   UNL     1      -0.944  -1.223  -8.040  0.00  0.00    +0.211 C 
ATOM     28  O   UNL     1      -2.142  -1.375  -8.151  0.00  0.00    -0.276 OA
ATOM     29  N   UNL     1      -0.216  -0.816  -9.099  0.00  0.00    -0.329 N 
ATOM     30  H   UNL     1       0.742  -0.694  -9.011  0.00  0.00    +0.145 HD
ATOM     31  H   UNL     1      -0.650  -0.645  -9.950  0.00  0.00    +0.145 HD
ENDBRANCH  26  27
ENDBRANCH  25  26
ENDBRANCH   5  25
TORSDOF 5
