REMARK  Name = ZINC36917057
REMARK  8 active torsions:
REMARK  status: ('A' for Active; 'I' for Inactive)
REMARK    1  A    between atoms: C_1  and  C_2
REMARK    2  A    between atoms: C_2  and  C_3
REMARK    3  A    between atoms: C_3  and  N_4
REMARK    4  A    between atoms: N_4  and  C_5
REMARK    5  A    between atoms: C_5  and  C_7
REMARK    6  A    between atoms: C_5  and  C_8
REMARK    7  A    between atoms: C_9  and  C_21
REMARK    8  A    between atoms: N_10  and  C_13
REMARK                            x       y       z     vdW  Elec       q    Type
REMARK                         _______ _______ _______ _____ _____    ______ ____
ROOT
ATOM      1  C   UNL     1       1.495  -3.981   2.499  0.00  0.00    +0.072 A 
ATOM      2  C   UNL     1       1.064  -4.712   3.553  0.00  0.00    +0.063 A 
ATOM      3  N   UNL     1       1.005  -6.000   3.119  0.00  0.00    -0.216 N 
ATOM      4  N   UNL     1       1.378  -6.025   1.887  0.00  0.00    -0.060 NA
ATOM      5  N   UNL     1       1.671  -4.838   1.487  0.00  0.00    -0.136 NA
ATOM      6  C   UNL     1       0.720  -4.202   4.929  0.00  0.00    +0.067 C 
ENDROOT
BRANCH   3   7
ATOM      7  C   UNL     1       0.607  -7.108   3.882  0.00  0.00    +0.087 A 
ATOM      8  C   UNL     1      -0.562  -7.056   4.628  0.00  0.00    +0.029 A 
ATOM      9  C   UNL     1      -0.952  -8.148   5.378  0.00  0.00    +0.004 A 
ATOM     10  C   UNL     1      -0.179  -9.294   5.387  0.00  0.00    +0.021 A 
ATOM     11  C   UNL     1       0.987  -9.352   4.645  0.00  0.00    +0.061 A 
ATOM     12  C   UNL     1       1.379  -8.263   3.887  0.00  0.00    +0.085 A 
ATOM     13 CL   UNL     1       2.839  -8.336   2.950  0.00  0.00    -0.080 Cl
ATOM     14 CL   UNL     1       1.955 -10.793   4.660  0.00  0.00    -0.082 Cl
ENDBRANCH   3   7
BRANCH   1  15
ATOM     15  C   UNL     1       1.726  -2.492   2.468  0.00  0.00    -0.021 C 
ATOM     16  C   UNL     1       3.229  -2.208   2.497  0.00  0.00    -0.007 C 
BRANCH  15  17
ATOM     17  N   UNL     1       1.145  -1.931   1.241  0.00  0.00    +0.384 N 
ATOM     18  H   UNL     1       0.171  -2.189   1.182  0.00  0.00    -0.085 HD
ATOM     19  H   UNL     1       1.638  -2.294   0.439  0.00  0.00    -0.085 HD
BRANCH  17  20
ATOM     20  C   UNL     1       1.264  -0.467   1.267  0.00  0.00    -0.082 C 
BRANCH  20  22
ATOM     21  C   UNL     1       0.782   1.641   0.016  0.00  0.00    +0.002 C 
ATOM     22  C   UNL     1       0.659   0.116  -0.011  0.00  0.00    -0.022 C 
ENDBRANCH  20  22
ENDBRANCH  17  20
ENDBRANCH  15  17
ENDBRANCH   1  15
TORSDOF 5
