REMARK  Name = ZINC57618982
REMARK  10 active torsions:
REMARK  status: ('A' for Active; 'I' for Inactive)
REMARK    1  A    between atoms: C_1  and  C_2
REMARK    2  A    between atoms: C_5  and  C_8
REMARK    3  A    between atoms: C_8  and  C_10
REMARK    4  A    between atoms: C_8  and  N_13
REMARK    5  A    between atoms: N_16  and  C_17
REMARK    6  A    between atoms: C_17  and  C_18
REMARK    7  A    between atoms: C_21  and  N_24
REMARK    8  A    between atoms: N_27  and  C_28
REMARK    9  A    between atoms: C_28  and  C_29
REMARK   10  A    between atoms: C_28  and  C_30
REMARK                            x       y       z     vdW  Elec       q    Type
REMARK                         _______ _______ _______ _____ _____    ______ ____
ROOT
ATOM      1  N   UNL     1       1.311  -4.633   0.786  0.00  0.00    -0.292 N 
ATOM      2  C   UNL     1       1.740  -5.911   0.774  0.00  0.00    +0.300 C 
ATOM      3  O   UNL     1       1.408  -6.656  -0.128  0.00  0.00    -0.253 OA
ATOM      4  N   UNL     1       2.536  -6.364   1.763  0.00  0.00    -0.295 N 
ATOM      5  H   UNL     1       1.576  -4.040   1.505  0.00  0.00    +0.151 HD
ATOM      6  H   UNL     1       2.801  -5.770   2.483  0.00  0.00    +0.151 HD
ENDROOT
BRANCH   1   7
ATOM      7  C   UNL     1       0.446  -4.142  -0.289  0.00  0.00    +0.108 C 
BRANCH   7  12
ATOM      8  C   UNL     1       1.033   1.587  -0.769  0.00  0.00    +0.044 C 
ATOM      9  C   UNL     1       0.880   0.093  -0.644  0.00  0.00    -0.050 A 
ATOM     10  C   UNL     1       0.774  -0.688  -1.779  0.00  0.00    +0.004 A 
ATOM     11  C   UNL     1       0.633  -2.059  -1.664  0.00  0.00    +0.006 A 
ATOM     12  C   UNL     1       0.600  -2.648  -0.414  0.00  0.00    -0.027 A 
ATOM     13  C   UNL     1       0.707  -1.867   0.721  0.00  0.00    +0.006 A 
ATOM     14  C   UNL     1       0.852  -0.497   0.606  0.00  0.00    +0.004 A 
ENDBRANCH   7  12
BRANCH   7  15
ATOM     15  C   UNL     1      -1.011  -4.479   0.035  0.00  0.00    +0.014 C 
ATOM     16  C   UNL     1      -1.314  -5.039   1.426  0.00  0.00    +0.006 C 
ATOM     17  C   UNL     1      -1.374  -5.956   0.202  0.00  0.00    +0.006 C 
ENDBRANCH   7  15
ENDBRANCH   1   7
BRANCH   4  18
ATOM     18  C   UNL     1       3.002  -7.753   1.751  0.00  0.00    +0.141 C 
BRANCH  18  19
ATOM     19  C   UNL     1       3.870  -8.002   2.957  0.00  0.00    -0.030 A 
ATOM     20  C   UNL     1       5.233  -7.782   2.884  0.00  0.00    +0.007 A 
ATOM     21  C   UNL     1       6.031  -8.009   3.987  0.00  0.00    +0.023 A 
ATOM     22  C   UNL     1       5.464  -8.460   5.172  0.00  0.00    +0.035 A 
ATOM     23  C   UNL     1       4.095  -8.681   5.242  0.00  0.00    +0.023 A 
ATOM     24  C   UNL     1       3.301  -8.446   4.137  0.00  0.00    +0.007 A 
BRANCH  22  25
ATOM     25  N   UNL     1       6.270  -8.692   6.292  0.00  0.00    -0.269 N 
ATOM     26  C   UNL     1       7.357  -7.926   6.510  0.00  0.00    +0.304 C 
ATOM     27  O   UNL     1       7.584  -6.973   5.790  0.00  0.00    -0.253 OA
ATOM     28  N   UNL     1       8.193  -8.215   7.527  0.00  0.00    -0.297 N 
ATOM     29  H   UNL     1       6.047  -9.405   6.911  0.00  0.00    +0.156 HD
ATOM     30  H   UNL     1       8.012  -8.976   8.102  0.00  0.00    +0.151 HD
BRANCH  28  31
ATOM     31  C   UNL     1       9.374  -7.382   7.764  0.00  0.00    +0.068 C 
ATOM     32  C   UNL     1       8.985  -6.177   8.622  0.00  0.00    +0.027 C 
ATOM     33  C   UNL     1      10.440  -8.204   8.493  0.00  0.00    +0.027 C 
ENDBRANCH  28  31
ENDBRANCH  22  25
ENDBRANCH  18  19
ENDBRANCH   4  18
TORSDOF 7
