REMARK  Name = ZINC00933857
REMARK  4 active torsions:
REMARK  status: ('A' for Active; 'I' for Inactive)
REMARK    1  A    between atoms: C_6  and  N_7
REMARK    2  A    between atoms: C_9  and  N_29
REMARK    3  A    between atoms: C_10  and  C_27
REMARK    4  A    between atoms: C_11  and  C_13
REMARK                            x       y       z     vdW  Elec       q    Type
REMARK                         _______ _______ _______ _____ _____    ______ ____
ROOT
ATOM      1  C   UNL     1      -1.803   3.200  -3.564  0.00  0.00    +0.023 A 
ATOM      2  C   UNL     1      -1.713   2.419  -2.429  0.00  0.00    +0.010 A 
ATOM      3  C   UNL     1      -1.425   2.996  -1.205  0.00  0.00    +0.008 A 
ATOM      4  C   UNL     1      -1.226   4.366  -1.114  0.00  0.00    +0.136 A 
ATOM      5  C   UNL     1      -1.316   5.154  -2.253  0.00  0.00    +0.069 A 
ATOM      6  C   UNL     1      -1.604   4.573  -3.479  0.00  0.00    +0.028 A 
ATOM      7  O   UNL     1      -0.943   4.949   0.077  0.00  0.00    -0.441 OA
ATOM      8  C   UNL     1      -1.226   4.306   1.222  0.00  0.00    +0.199 C 
ATOM      9  C   UNL     1      -1.422   2.967   1.262  0.00  0.00    +0.098 C 
ATOM     10  C   UNL     1      -1.332   2.126   0.020  0.00  0.00    +0.101 C 
ENDROOT
BRANCH  10  11
ATOM     11  C   UNL     1      -0.017   1.390   0.010  0.00  0.00    +0.003 A 
ATOM     12  C   UNL     1       1.158   2.087   0.002  0.00  0.00    +0.017 A 
ATOM     13  C   UNL     1       2.362   1.361  -0.013  0.00  0.00    +0.004 A 
ATOM     14  C   UNL     1       3.607   2.012  -0.022  0.00  0.00    +0.059 A 
ATOM     15  C   UNL     1       4.756   1.278  -0.039  0.00  0.00    +0.167 A 
ATOM     16  C   UNL     1       4.708  -0.127  -0.049  0.00  0.00    +0.168 A 
ATOM     17  C   UNL     1       3.512  -0.785  -0.040  0.00  0.00    +0.078 A 
ATOM     18  C   UNL     1       2.311  -0.056  -0.022  0.00  0.00    +0.076 A 
ATOM     19  N   UNL     1       1.128  -0.679  -0.013  0.00  0.00    -0.235 NA
ATOM     20  C   UNL     1       0.002  -0.004   0.002  0.00  0.00    +0.134 A 
ATOM     21 CL   UNL     1      -1.502  -0.870   0.012  0.00  0.00    -0.062 Cl
ATOM     22  O   UNL     1       5.989  -0.602  -0.067  0.00  0.00    -0.453 OA
ATOM     23  C   UNL     1       6.805   0.508  -0.484  0.00  0.00    +0.466 C 
ATOM     24  O   UNL     1       6.066   1.664  -0.051  0.00  0.00    -0.453 OA
ENDBRANCH  10  11
BRANCH   6  25
ATOM     25  N   UNL     1      -1.695   5.366  -4.625  0.00  0.00    -0.358 N 
ATOM     26  H   UNL     1      -1.897   4.958  -5.482  0.00  0.00    +0.142 HD
ATOM     27  H   UNL     1      -1.557   6.324  -4.565  0.00  0.00    +0.142 HD
ENDBRANCH   6  25
BRANCH   8  28
ATOM     28  N   UNL     1      -1.320   5.028   2.386  0.00  0.00    -0.328 N 
ATOM     29  H   UNL     1      -1.182   5.988   2.373  0.00  0.00    +0.145 HD
ATOM     30  H   UNL     1      -1.523   4.578   3.221  0.00  0.00    +0.145 HD
ENDBRANCH   8  28
BRANCH   9  31
ATOM     31  C   UNL     1      -1.720   2.339   2.514  0.00  0.00    +0.101 C 
ATOM     32  N   UNL     1      -1.958   1.841   3.507  0.00  0.00    -0.191 NA
ENDBRANCH   9  31
TORSDOF 4
