REMARK  Name = ZINC08323827
REMARK  3 active torsions:
REMARK  status: ('A' for Active; 'I' for Inactive)
REMARK    1  A    between atoms: C_1  and  C_2
REMARK    2  A    between atoms: C_14  and  C_16
REMARK    3  A    between atoms: C_16  and  N_17
REMARK                            x       y       z     vdW  Elec       q    Type
REMARK                         _______ _______ _______ _____ _____    ______ ____
ROOT
ATOM      1  N   UNL     1       3.946   3.647   3.275  0.00  0.00    -0.215 N 
ATOM      2  C   UNL     1       4.874   3.168   4.132  0.00  0.00    +0.251 C 
ATOM      3  O   UNL     1       5.277   2.028   4.218  0.00  0.00    -0.272 OA
ATOM      4  C   UNL     1       5.304   4.354   4.955  0.00  0.00    +0.138 C 
ATOM      5  C   UNL     1       6.806   4.627   4.803  0.00  0.00    +0.045 C 
ATOM      6  C   UNL     1       7.179   5.177   6.198  0.00  0.00    +0.038 C 
ATOM      7  C   UNL     1       6.148   4.596   7.144  0.00  0.00    -0.042 A 
ATOM      8  C   UNL     1       5.064   4.123   6.422  0.00  0.00    -0.012 A 
ATOM      9  C   UNL     1       3.995   3.549   7.089  0.00  0.00    +0.006 A 
ATOM     10  C   UNL     1       4.005   3.446   8.466  0.00  0.00    +0.000 A 
ATOM     11  C   UNL     1       5.088   3.918   9.185  0.00  0.00    +0.000 A 
ATOM     12  C   UNL     1       6.156   4.491   8.524  0.00  0.00    +0.004 A 
ATOM     13  N   UNL     1       4.505   5.468   4.442  0.00  0.00    -0.281 N 
ATOM     14  C   UNL     1       3.737   4.957   3.458  0.00  0.00    +0.310 C 
ATOM     15  O   UNL     1       2.944   5.613   2.811  0.00  0.00    -0.252 OA
ATOM     16  H   UNL     1       4.524   6.388   4.749  0.00  0.00    +0.152 HD
ENDROOT
BRANCH   1  17
ATOM     17  C   UNL     1       3.249   2.834   2.276  0.00  0.00    +0.214 C 
BRANCH  17  30
ATOM     18  C   UNL     1       5.850  -1.359  -1.775  0.00  0.00    +0.019 C 
ATOM     19  C   UNL     1       4.736  -0.356  -1.471  0.00  0.00    +0.050 C 
ATOM     20  C   UNL     1       5.324   1.046  -1.402  0.00  0.00    +0.033 C 
ATOM     21  C   UNL     1       4.319   2.166  -1.351  0.00  0.00    +0.115 C 
ATOM     22  N   UNL     1       3.574   2.163  -0.083  0.00  0.00    -0.269 N 
ATOM     23  C   UNL     1       2.380   1.432  -0.013  0.00  0.00    +0.050 A 
ATOM     24  C   UNL     1       1.162   2.101   0.002  0.00  0.00    +0.024 A 
ATOM     25  C   UNL     1      -0.017   1.379   0.010  0.00  0.00    +0.002 A 
ATOM     26  C   UNL     1       0.002  -0.004   0.002  0.00  0.00    +0.001 A 
ATOM     27  C   UNL     1       1.212  -0.680   0.004  0.00  0.00    +0.016 A 
ATOM     28  C   UNL     1       2.388   0.045   0.014  0.00  0.00    +0.030 A 
ATOM     29  S   UNL     1       3.957  -0.783   0.115  0.00  0.00    -0.120 S 
ATOM     30  C   UNL     1       4.028   2.848   0.985  0.00  0.00    +0.238 C 
ATOM     31  O   UNL     1       5.062   3.477   0.908  0.00  0.00    -0.274 OA
ENDBRANCH  17  30
ENDBRANCH   1  17
TORSDOF 2
