REMARK  Name = ZINC65172213
REMARK  7 active torsions:
REMARK  status: ('A' for Active; 'I' for Inactive)
REMARK    1  A    between atoms: C_1  and  C_2
REMARK    2  A    between atoms: C_5  and  C_8
REMARK    3  A    between atoms: C_10  and  C_13
REMARK    4  A    between atoms: C_13  and  N_14
REMARK    5  A    between atoms: N_17  and  C_20
REMARK    6  A    between atoms: C_20  and  C_21
REMARK    7  A    between atoms: C_21  and  O_27
REMARK                            x       y       z     vdW  Elec       q    Type
REMARK                         _______ _______ _______ _____ _____    ______ ____
ROOT
ATOM      1  N   UNL     1      -1.408  -7.809   1.785  0.00  0.00    +0.387 N 
ATOM      2  C   UNL     1      -2.121  -6.734   2.488  0.00  0.00    -0.063 C 
ATOM      3  C   UNL     1      -3.527  -7.212   2.858  0.00  0.00    +0.066 C 
ATOM      4  N   UNL     1      -3.428  -8.400   3.716  0.00  0.00    -0.303 NA
ATOM      5  C   UNL     1      -2.694  -9.476   3.035  0.00  0.00    +0.066 C 
ATOM      6  C   UNL     1      -1.295  -8.980   2.663  0.00  0.00    -0.063 C 
ATOM      7  H   UNL     1      -1.918  -8.061   0.952  0.00  0.00    -0.081 HD
ENDROOT
BRANCH   1   8
ATOM      8  C   UNL     1      -0.065  -7.343   1.414  0.00  0.00    +0.022 C 
BRANCH   8  11
ATOM      9  C   UNL     1      -0.352  -4.228  -0.426  0.00  0.00    +0.202 A 
ATOM     10  N   UNL     1      -0.262  -4.952   0.704  0.00  0.00    -0.193 NA
ATOM     11  C   UNL     1      -0.180  -6.220   0.416  0.00  0.00    +0.211 A 
ATOM     12  O   UNL     1      -0.214  -6.356  -0.916  0.00  0.00    -0.340 OA
ATOM     13  N   UNL     1      -0.332  -5.046  -1.450  0.00  0.00    -0.056 NA
BRANCH   9  18
ATOM     14  C   UNL     1      -0.780   1.508  -0.717  0.00  0.00    +0.044 C 
ATOM     15  C   UNL     1      -0.668   0.007  -0.641  0.00  0.00    -0.050 A 
ATOM     16  C   UNL     1      -0.657  -0.743  -1.803  0.00  0.00    +0.004 A 
ATOM     17  C   UNL     1      -0.555  -2.118  -1.739  0.00  0.00    +0.012 A 
ATOM     18  C   UNL     1      -0.462  -2.750  -0.501  0.00  0.00    +0.022 A 
ATOM     19  C   UNL     1      -0.473  -1.990   0.666  0.00  0.00    +0.012 A 
ATOM     20  C   UNL     1      -0.571  -0.615   0.591  0.00  0.00    +0.004 A 
ENDBRANCH   9  18
ENDBRANCH   8  11
ENDBRANCH   1   8
BRANCH   4  21
ATOM     21  C   UNL     1      -4.758  -8.857   4.140  0.00  0.00    +0.119 C 
BRANCH  21  22
ATOM     22  C   UNL     1      -5.277  -7.948   5.256  0.00  0.00    +0.079 C 
ATOM     23  C   UNL     1      -4.244  -7.885   6.383  0.00  0.00    +0.036 C 
ATOM     24  C   UNL     1      -4.763  -6.976   7.500  0.00  0.00    +0.003 C 
ATOM     25  C   UNL     1      -6.078  -7.538   8.044  0.00  0.00    +0.000 C 
ATOM     26  C   UNL     1      -7.111  -7.601   6.918  0.00  0.00    +0.003 C 
ATOM     27  C   UNL     1      -6.592  -8.510   5.801  0.00  0.00    +0.036 C 
BRANCH  22  28
ATOM     28  O   UNL     1      -5.498  -6.635   4.738  0.00  0.00    -0.387 OA
ATOM     29  H   UNL     1      -5.828  -6.004   5.393  0.00  0.00    +0.210 HD
ENDBRANCH  22  28
ENDBRANCH  21  22
ENDBRANCH   4  21
TORSDOF 6
