REMARK  Name = ZINC04941332
REMARK  4 active torsions:
REMARK  status: ('A' for Active; 'I' for Inactive)
REMARK    1  A    between atoms: C_5  and  N_7
REMARK    2  A    between atoms: C_8  and  C_10
REMARK    3  A    between atoms: N_12  and  C_13
REMARK    4  A    between atoms: C_13  and  C_14
REMARK                            x       y       z     vdW  Elec       q    Type
REMARK                         _______ _______ _______ _____ _____    ______ ____
ROOT
ATOM      1  C   UNL     1       4.806   4.005   0.193  0.00  0.00    +0.299 C 
ATOM      2  O   UNL     1       4.784   5.218   0.200  0.00  0.00    -0.265 OA
ATOM      3  N   UNL     1       5.982   3.352   0.281  0.00  0.00    -0.305 N 
ATOM      4  H   UNL     1       6.000   2.382   0.276  0.00  0.00    +0.149 HD
ENDROOT
BRANCH   1   6
ATOM      5  N   UNL     1       2.355   3.888   0.001  0.00  0.00    -0.276 N 
ATOM      6  C   UNL     1       3.531   3.235   0.088  0.00  0.00    +0.303 C 
ATOM      7  O   UNL     1       3.553   2.021   0.082  0.00  0.00    -0.265 OA
ATOM      8  H   UNL     1       2.341   4.855  -0.075  0.00  0.00    +0.155 HD
BRANCH   5  13
ATOM      9  C   UNL     1      -0.088   1.216   0.638  0.00  0.00    +0.002 A 
ATOM     10  C   UNL     1      -1.220   1.750   0.051  0.00  0.00    +0.002 A 
ATOM     11  C   UNL     1      -1.171   2.997  -0.545  0.00  0.00    +0.022 A 
ATOM     12  C   UNL     1       0.014   3.708  -0.566  0.00  0.00    +0.062 A 
ATOM     13  C   UNL     1       1.155   3.171   0.019  0.00  0.00    +0.052 A 
ATOM     14  C   UNL     1       1.100   1.921   0.621  0.00  0.00    +0.025 A 
ATOM     15 CL   UNL     1       0.076   5.271  -1.320  0.00  0.00    -0.082 Cl
ENDBRANCH   5  13
ENDBRANCH   1   6
BRANCH   3  16
ATOM     16  C   UNL     1       7.233   4.108   0.384  0.00  0.00    +0.138 C 
BRANCH  16  17
ATOM     17  C   UNL     1       8.411   3.135   0.470  0.00  0.00    +0.164 C 
ATOM     18  C   UNL     1       9.741   3.900   0.644  0.00  0.00    +0.196 C 
ATOM     19  O   UNL     1      10.688   3.197  -0.181  0.00  0.00    -0.346 OA
ATOM     20  C   UNL     1       9.993   2.088  -0.767  0.00  0.00    +0.171 C 
ATOM     21  O   UNL     1       8.594   2.439  -0.788  0.00  0.00    -0.342 OA
ATOM     22  C   UNL     1      10.195   0.835   0.080  0.00  0.00    +0.065 C 
ATOM     23  C   UNL     1      11.681   0.469   0.105  0.00  0.00    +0.005 C 
ATOM     24  C   UNL     1      12.168   0.218  -1.324  0.00  0.00    +0.000 C 
ATOM     25  C   UNL     1      11.974   1.485  -2.161  0.00  0.00    +0.005 C 
ATOM     26  C   UNL     1      10.489   1.853  -2.192  0.00  0.00    +0.065 C 
ENDBRANCH  16  17
ENDBRANCH   3  16
TORSDOF 4
