REMARK  Name = ZINC62834349
REMARK  8 active torsions:
REMARK  status: ('A' for Active; 'I' for Inactive)
REMARK    1  A    between atoms: C_1  and  C_2
REMARK    2  A    between atoms: C_2  and  C_3
REMARK    3  A    between atoms: C_3  and  N_4
REMARK    4  A    between atoms: N_4  and  C_5
REMARK    5  A    between atoms: C_5  and  C_6
REMARK    6  A    between atoms: N_8  and  C_9
REMARK    7  A    between atoms: C_10  and  C_12
REMARK    8  A    between atoms: C_16  and  N_22
REMARK                            x       y       z     vdW  Elec       q    Type
REMARK                         _______ _______ _______ _____ _____    ______ ____
ROOT
ATOM      1  C   UNL     1      -1.550  -4.008  -1.481  0.00  0.00    +0.103 A 
ATOM      2  C   UNL     1      -1.719  -4.628  -2.678  0.00  0.00    +0.041 A 
ATOM      3  C   UNL     1      -1.717  -6.024  -2.445  0.00  0.00    +0.002 A 
ATOM      4  C   UNL     1      -1.850  -7.139  -3.284  0.00  0.00    +0.032 A 
ATOM      5  C   UNL     1      -1.806  -8.409  -2.745  0.00  0.00    +0.025 A 
ATOM      6  C   UNL     1      -1.630  -8.585  -1.373  0.00  0.00    +0.025 A 
ATOM      7  C   UNL     1      -1.499  -7.500  -0.538  0.00  0.00    +0.028 A 
ATOM      8  C   UNL     1      -1.540  -6.210  -1.060  0.00  0.00    +0.047 A 
ATOM      9  N   UNL     1      -1.435  -4.961  -0.489  0.00  0.00    -0.351 N 
ATOM     10  H   UNL     1      -1.303  -4.781   0.455  0.00  0.00    +0.166 HD
ENDROOT
BRANCH   1  12
ATOM     11  N   UNL     1      -1.182  -2.055  -0.062  0.00  0.00    -0.288 N 
ATOM     12  C   UNL     1      -1.493  -2.553  -1.276  0.00  0.00    +0.263 C 
ATOM     13  O   UNL     1      -1.726  -1.798  -2.201  0.00  0.00    -0.268 OA
BRANCH  11  14
ATOM     14  C   UNL     1      -1.249  -0.611   0.177  0.00  0.00    +0.108 C 
BRANCH  14  16
ATOM     15  C   UNL     1       0.051   1.522   0.161  0.00  0.00    +0.005 C 
ATOM     16  C   UNL     1       0.122   0.014  -0.088  0.00  0.00    +0.016 C 
ENDBRANCH  14  16
ENDBRANCH  11  14
BRANCH  11  17
ATOM     17  C   UNL     1      -0.776  -2.958   1.017  0.00  0.00    +0.203 C 
BRANCH  17  18
ATOM     18  C   UNL     1      -2.001  -3.475   1.727  0.00  0.00    +0.230 C 
ATOM     19  O   UNL     1      -3.104  -3.124   1.366  0.00  0.00    -0.274 OA
ATOM     20  N   UNL     1      -1.870  -4.328   2.762  0.00  0.00    -0.317 N 
ATOM     21  C   UNL     1      -3.061  -4.830   3.452  0.00  0.00    +0.128 C 
ATOM     22  H   UNL     1      -0.988  -4.609   3.051  0.00  0.00    +0.148 HD
ENDBRANCH  17  18
ENDBRANCH  11  17
ENDBRANCH   1  12
BRANCH   5  23
ATOM     23  N   UNL     1      -1.939  -9.524  -3.580  0.00  0.00    -0.358 N 
ATOM     24  H   UNL     1      -2.062  -9.404  -4.535  0.00  0.00    +0.142 HD
ATOM     25  H   UNL     1      -1.908 -10.418  -3.204  0.00  0.00    +0.142 HD
ENDBRANCH   5  23
TORSDOF 6
