REMARK  Name = ZINC36610081
REMARK  16 active torsions:
REMARK  status: ('A' for Active; 'I' for Inactive)
REMARK    1  A    between atoms: C_1  and  C_2
REMARK    2  A    between atoms: C_2  and  C_3
REMARK    3  A    between atoms: C_2  and  C_4
REMARK    4  A    between atoms: C_2  and  C_5
REMARK    5  A    between atoms: C_5  and  C_6
REMARK    6  A    between atoms: C_6  and  C_7
REMARK    7  A    between atoms: C_6  and  C_8
REMARK    8  A    between atoms: C_6  and  N_9
REMARK    9  A    between atoms: C_10  and  C_12
REMARK   10  A    between atoms: C_12  and  C_14
REMARK   11  A    between atoms: C_12  and  N_21
REMARK   12  A    between atoms: C_19  and  O_20
REMARK   13  A    between atoms: N_21  and  C_22
REMARK   14  A    between atoms: C_28  and  C_30
REMARK   15  A    between atoms: C_31  and  O_37
REMARK   16  A    between atoms: C_35  and  O_36
REMARK                            x       y       z     vdW  Elec       q    Type
REMARK                         _______ _______ _______ _____ _____    ______ ____
ROOT
ATOM      1  C   UNL     1       5.323  -0.359  -4.333  0.00  0.00    +0.201 C 
ENDROOT
BRANCH   1   2
ATOM      2  C   UNL     1       5.224  -1.738  -4.932  0.00  0.00    +0.024 A 
ATOM      3  C   UNL     1       6.197  -2.681  -4.660  0.00  0.00    +0.009 A 
ATOM      4  C   UNL     1       6.107  -3.947  -5.210  0.00  0.00    +0.001 A 
ATOM      5  C   UNL     1       5.044  -4.272  -6.032  0.00  0.00    +0.004 A 
ATOM      6  C   UNL     1       4.069  -3.333  -6.307  0.00  0.00    +0.046 A 
ATOM      7  C   UNL     1       4.154  -2.064  -5.752  0.00  0.00    +0.122 A 
BRANCH   7   8
ATOM      8  O   UNL     1       3.193  -1.141  -6.016  0.00  0.00    -0.506 OA
ATOM      9  H   UNL     1       3.371  -0.600  -6.798  0.00  0.00    +0.292 HD
ENDBRANCH   7   8
ENDBRANCH   1   2
BRANCH   1  11
ATOM     10  N   UNL     1       3.304  -0.714  -2.949  0.00  0.00    -0.308 N 
ATOM     11  C   UNL     1       4.594  -0.331  -3.015  0.00  0.00    +0.239 C 
ATOM     12  O   UNL     1       5.169   0.037  -2.012  0.00  0.00    -0.273 OA
ATOM     13  H   UNL     1       2.844  -1.007  -3.751  0.00  0.00    +0.149 HD
BRANCH  10  14
ATOM     14  C   UNL     1       2.595  -0.686  -1.667  0.00  0.00    +0.030 C 
ATOM     15  C   UNL     1       2.887   0.634  -0.952  0.00  0.00    +0.031 C 
ATOM     16  C   UNL     1       3.069  -1.853  -0.798  0.00  0.00    +0.031 C 
BRANCH  14  17
ATOM     17  C   UNL     1       1.090  -0.812  -1.913  0.00  0.00    +0.031 C 
BRANCH  17  19
ATOM     18  C   UNL     1       0.991  -0.605  -4.401  0.00  0.00    +0.010 C 
ATOM     19  C   UNL     1       0.686   0.097  -3.076  0.00  0.00    -0.036 C 
ATOM     20  C   UNL     1       1.475   1.405  -2.999  0.00  0.00    +0.010 C 
ATOM     21  C   UNL     1      -0.812   0.398  -2.991  0.00  0.00    +0.010 C 
ENDBRANCH  17  19
ENDBRANCH  14  17
ENDBRANCH  10  14
ENDBRANCH   1  11
BRANCH   1  22
ATOM     22  N   UNL     1       6.731  -0.019  -4.120  0.00  0.00    -0.251 N 
ATOM     23  C   UNL     1       7.540   0.195  -5.177  0.00  0.00    +0.259 C 
ATOM     24  O   UNL     1       7.116   0.048  -6.308  0.00  0.00    -0.269 OA
BRANCH  22  25
ATOM     25  C   UNL     1       7.237   0.085  -2.821  0.00  0.00    +0.038 A 
ATOM     26  C   UNL     1       7.368  -1.051  -2.033  0.00  0.00    +0.023 A 
ATOM     27  C   UNL     1       7.868  -0.945  -0.749  0.00  0.00    +0.002 A 
ATOM     28  C   UNL     1       8.237   0.290  -0.249  0.00  0.00    +0.000 A 
ATOM     29  C   UNL     1       8.107   1.423  -1.031  0.00  0.00    +0.002 A 
ATOM     30  C   UNL     1       7.614   1.323  -2.317  0.00  0.00    +0.023 A 
ENDBRANCH  22  25
BRANCH  23  31
ATOM     31  C   UNL     1       8.938   0.606  -4.963  0.00  0.00    +0.120 A 
ATOM     32  C   UNL     1       9.926  -0.356  -4.711  0.00  0.00    +0.133 A 
ATOM     33  C   UNL     1      11.238   0.041  -4.512  0.00  0.00    +0.046 A 
ATOM     34  C   UNL     1      11.575   1.381  -4.561  0.00  0.00    +0.007 A 
ATOM     35  C   UNL     1      10.608   2.338  -4.809  0.00  0.00    +0.046 A 
ATOM     36  C   UNL     1       9.291   1.962  -5.016  0.00  0.00    +0.133 A 
BRANCH  36  37
ATOM     37  O   UNL     1       8.345   2.903  -5.265  0.00  0.00    -0.506 OA
ATOM     38  H   UNL     1       7.876   3.207  -4.476  0.00  0.00    +0.292 HD
ENDBRANCH  36  37
BRANCH  32  39
ATOM     39  O   UNL     1       9.599  -1.672  -4.662  0.00  0.00    -0.506 OA
ATOM     40  H   UNL     1       9.657  -2.124  -5.515  0.00  0.00    +0.292 HD
ENDBRANCH  32  39
ENDBRANCH  23  31
ENDBRANCH   1  22
TORSDOF 11
