REMARK  Name = ZINC48452544
REMARK  6 active torsions:
REMARK  status: ('A' for Active; 'I' for Inactive)
REMARK    1  A    between atoms: C_3  and  N_22
REMARK    2  A    between atoms: C_6  and  N_7
REMARK    3  A    between atoms: N_7  and  C_8
REMARK    4  A    between atoms: C_8  and  C_9
REMARK    5  A    between atoms: C_9  and  N_10
REMARK    6  A    between atoms: N_13  and  C_14
REMARK                            x       y       z     vdW  Elec       q    Type
REMARK                         _______ _______ _______ _____ _____    ______ ____
ROOT
ATOM      1  N   UNL     1      -2.589  -4.181  -0.011  0.00  0.00    -0.298 N 
ATOM      2  C   UNL     1      -3.746  -4.873   0.007  0.00  0.00    +0.304 C 
ATOM      3  O   UNL     1      -4.808  -4.281   0.025  0.00  0.00    -0.253 OA
ATOM      4  N   UNL     1      -3.725  -6.220   0.006  0.00  0.00    -0.268 N 
ATOM      5  H   UNL     1      -1.742  -4.653  -0.025  0.00  0.00    +0.150 HD
ATOM      6  H   UNL     1      -2.881  -6.692  -0.074  0.00  0.00    +0.156 HD
ENDROOT
BRANCH   4   7
ATOM      7  C   UNL     1      -4.922  -6.939   0.119  0.00  0.00    +0.049 A 
ATOM      8  C   UNL     1      -6.085  -6.448  -0.458  0.00  0.00    +0.027 A 
ATOM      9  C   UNL     1      -7.264  -7.159  -0.345  0.00  0.00    +0.040 A 
ATOM     10  C   UNL     1      -7.287  -8.360   0.344  0.00  0.00    +0.125 A 
ATOM     11  C   UNL     1      -6.129  -8.852   0.920  0.00  0.00    +0.055 A 
ATOM     12  C   UNL     1      -4.946  -8.147   0.805  0.00  0.00    +0.042 A 
ATOM     13 BR   UNL     1      -3.361  -8.823   1.586  0.00  0.00    -0.048 Br
ATOM     14  F   UNL     1      -8.442  -9.053   0.454  0.00  0.00    -0.205 F 
ENDBRANCH   4   7
BRANCH   1  15
ATOM     15  C   UNL     1      -2.611  -2.716  -0.009  0.00  0.00    +0.124 C 
BRANCH  15  16
ATOM     16  C   UNL     1      -1.177  -2.184  -0.032  0.00  0.00    +0.120 C 
BRANCH  16  17
ATOM     17  N   UNL     1      -1.199  -0.719  -0.030  0.00  0.00    -0.342 N 
ATOM     18  H   UNL     1      -2.047  -0.247  -0.016  0.00  0.00    +0.146 HD
BRANCH  17  24
ATOM     19  C   UNL     1      -0.020   1.386  -0.047  0.00  0.00    +0.025 A 
ATOM     20  C   UNL     1       1.167   2.092  -0.065  0.00  0.00    +0.034 A 
ATOM     21  C   UNL     1       2.374   1.417  -0.085  0.00  0.00    +0.126 A 
ATOM     22  C   UNL     1       2.397   0.035  -0.087  0.00  0.00    +0.034 A 
ATOM     23  C   UNL     1       1.213  -0.677  -0.069  0.00  0.00    +0.025 A 
ATOM     24  C   UNL     1      -0.001  -0.003  -0.049  0.00  0.00    +0.027 A 
BRANCH  21  25
ATOM     25  N   UNL     1       3.644   2.177  -0.105  0.00  0.00    +0.056 N 
ATOM     26  O   UNL     1       3.626   3.386  -0.103  0.00  0.00    -0.126 OA
ATOM     27  O   UNL     1       4.700   1.589  -0.122  0.00  0.00    -0.126 OA
ENDBRANCH  21  25
ENDBRANCH  17  24
ENDBRANCH  16  17
ENDBRANCH  15  16
ENDBRANCH   1  15
TORSDOF 6
