REMARK  Name = ZINC35458081
REMARK  3 active torsions:
REMARK  status: ('A' for Active; 'I' for Inactive)
REMARK    1  A    between atoms: C_16  and  O_29
REMARK    2  A    between atoms: C_21  and  O_28
REMARK    3  A    between atoms: C_25  and  O_27
REMARK                            x       y       z     vdW  Elec       q    Type
REMARK                         _______ _______ _______ _____ _____    ______ ____
ROOT
ATOM      1  C   UNL     1      -0.017   1.390   0.010  0.00  0.00    +0.004 A 
ATOM      2  C   UNL     1       1.135   2.118   0.003  0.00  0.00    +0.009 A 
ATOM      3  C   UNL     1       2.377   1.460  -0.012  0.00  0.00    -0.011 A 
ATOM      4  C   UNL     1       3.596   2.160  -0.011  0.00  0.00    +0.009 A 
ATOM      5  C   UNL     1       4.773   1.473  -0.026  0.00  0.00    +0.004 A 
ATOM      6  C   UNL     1       4.802   0.079  -0.044  0.00  0.00    +0.046 A 
ATOM      7  C   UNL     1       3.633  -0.639  -0.046  0.00  0.00    +0.137 A 
ATOM      8  C   UNL     1       2.402   0.048  -0.025  0.00  0.00    +0.066 A 
ATOM      9  C   UNL     1       1.196  -0.681  -0.015  0.00  0.00    +0.137 A 
ATOM     10  C   UNL     1       0.002  -0.004   0.002  0.00  0.00    +0.046 A 
ATOM     11  O   UNL     1       1.263  -2.039  -0.027  0.00  0.00    -0.444 OA
ATOM     12  C   UNL     1       2.457  -2.615   0.517  0.00  0.00    +0.309 C 
ATOM     13  O   UNL     1       3.610  -1.998  -0.067  0.00  0.00    -0.444 OA
ATOM     14  C   UNL     1       2.481  -2.404   2.010  0.00  0.00    +0.066 C 
ATOM     15  C   UNL     1       1.736  -3.136   2.801  0.00  0.00    +0.010 C 
ATOM     16  C   UNL     1       0.835  -4.207   2.236  0.00  0.00    +0.175 C 
ATOM     17  C   UNL     1       1.598  -4.979   1.159  0.00  0.00    +0.168 C 
ATOM     18  C   UNL     1       2.477  -4.115   0.227  0.00  0.00    +0.214 C 
ATOM     19  O   UNL     1       3.019  -5.000   1.198  0.00  0.00    -0.344 OA
ATOM     20  C   UNL     1       2.476  -4.535  -1.243  0.00  0.00    +0.180 C 
ATOM     21  C   UNL     1       2.523  -6.042  -1.319  0.00  0.00    +0.005 C 
ATOM     22  C   UNL     1       1.778  -6.774  -0.529  0.00  0.00    +0.005 C 
ATOM     23  C   UNL     1       0.856  -6.127   0.476  0.00  0.00    +0.175 C 
ENDROOT
BRANCH  23  24
ATOM     24  O   UNL     1      -0.300  -5.619  -0.193  0.00  0.00    -0.385 OA
ATOM     25  H   UNL     1      -0.820  -6.295  -0.649  0.00  0.00    +0.210 HD
ENDBRANCH  23  24
BRANCH  20  26
ATOM     26  O   UNL     1       1.287  -4.058  -1.877  0.00  0.00    -0.385 OA
ATOM     27  H   UNL     1       1.220  -4.289  -2.813  0.00  0.00    +0.210 HD
ENDBRANCH  20  26
BRANCH  16  28
ATOM     28  O   UNL     1      -0.326  -3.603   1.663  0.00  0.00    -0.385 OA
ATOM     29  H   UNL     1      -0.853  -3.090   2.291  0.00  0.00    +0.210 HD
ENDBRANCH  16  28
TORSDOF 3
