REMARK  Name = ZINC41439328
REMARK  3 active torsions:
REMARK  status: ('A' for Active; 'I' for Inactive)
REMARK    1  A    between atoms: C_10  and  O_11
REMARK    2  A    between atoms: O_11  and  C_12
REMARK    3  A    between atoms: C_12  and  C_13
REMARK                            x       y       z     vdW  Elec       q    Type
REMARK                         _______ _______ _______ _____ _____    ______ ____
ROOT
ATOM      1  O   UNL     1       4.837   0.080  -0.043  0.00  0.00    -0.485 OA
ENDROOT
BRANCH   1  11
ATOM      2  C   UNL     1      -0.016   1.357   0.009  0.00  0.00    +0.001 A 
ATOM      3  C   UNL     1       1.169   2.090   0.002  0.00  0.00    +0.001 A 
ATOM      4  C   UNL     1       2.379   1.467  -0.013  0.00  0.00    +0.012 A 
ATOM      5  C   UNL     1       2.437   0.064  -0.021  0.00  0.00    +0.024 A 
ATOM      6  C   UNL     1       1.233  -0.683  -0.013  0.00  0.00    -0.014 A 
ATOM      7  C   UNL     1       0.002  -0.004   0.002  0.00  0.00    +0.008 A 
ATOM      8  C   UNL     1       1.292  -2.087  -0.021  0.00  0.00    +0.009 A 
ATOM      9  C   UNL     1       2.501  -2.713  -0.035  0.00  0.00    +0.004 A 
ATOM     10  C   UNL     1       3.687  -1.984  -0.043  0.00  0.00    +0.046 A 
ATOM     11  C   UNL     1       3.671  -0.617  -0.036  0.00  0.00    +0.129 A 
ENDBRANCH   1  11
BRANCH   1  12
ATOM     12  C   UNL     1       6.047  -0.680  -0.059  0.00  0.00    +0.291 C 
BRANCH  12  13
ATOM     13  C   UNL     1       7.228   0.256  -0.065  0.00  0.00    +0.118 A 
ATOM     14  N   UNL     1       7.877   0.751   0.954  0.00  0.00    -0.226 NA
ATOM     15  C   UNL     1       8.922   1.582   0.805  0.00  0.00    +0.130 A 
ATOM     16  C   UNL     1       9.237   1.855  -0.486  0.00  0.00    +0.033 A 
ATOM     17  S   UNL     1       8.035   0.912  -1.389  0.00  0.00    -0.072 S 
ATOM     18  C   UNL     1      10.408   2.783  -0.566  0.00  0.00    +0.064 C 
ATOM     19  C   UNL     1      10.778   3.047   0.905  0.00  0.00    +0.108 C 
ATOM     20  N   UNL     1       9.808   2.266   1.675  0.00  0.00    -0.328 N 
ATOM     21  H   UNL     1       9.776   2.222   2.644  0.00  0.00    +0.147 HD
ENDBRANCH  12  13
ENDBRANCH   1  12
TORSDOF 3
