REMARK  Name = ZINC49508803
REMARK  6 active torsions:
REMARK  status: ('A' for Active; 'I' for Inactive)
REMARK    1  A    between atoms: C_1  and  N_2
REMARK    2  A    between atoms: C_9  and  C_11
REMARK    3  A    between atoms: C_11  and  C_13
REMARK    4  A    between atoms: C_11  and  N_20
REMARK    5  A    between atoms: C_13  and  N_14
REMARK    6  A    between atoms: C_15  and  C_17
REMARK                            x       y       z     vdW  Elec       q    Type
REMARK                         _______ _______ _______ _____ _____    ______ ____
ROOT
ATOM      1  C   UNL     1       0.067  -3.770   4.184  0.00  0.00    +0.104 C 
ENDROOT
BRANCH   1  10
ATOM      2  C   UNL     1      -0.046   0.952  -0.613  0.00  0.00    +0.129 C 
ATOM      3  N   UNL     1      -0.056  -0.504  -0.448  0.00  0.00    -0.332 N 
ATOM      4  C   UNL     1      -0.098  -1.473  -1.546  0.00  0.00    +0.109 C 
ATOM      5  C   UNL     1      -0.092  -2.852  -0.867  0.00  0.00    +0.056 C 
ATOM      6  C   UNL     1      -0.046  -2.546   0.613  0.00  0.00    -0.025 A 
ATOM      7  C   UNL     1      -0.021  -1.170   0.778  0.00  0.00    +0.033 A 
ATOM      8  C   UNL     1       0.028  -0.643   2.070  0.00  0.00    +0.024 A 
ATOM      9  C   UNL     1       0.057  -1.484   3.163  0.00  0.00    +0.007 A 
ATOM     10  C   UNL     1       0.036  -2.855   2.987  0.00  0.00    -0.028 A 
ATOM     11  C   UNL     1      -0.023  -3.384   1.711  0.00  0.00    +0.010 A 
ENDBRANCH   1  10
BRANCH   1  12
ATOM     12  N   UNL     1      -0.781  -3.216   5.247  0.00  0.00    -0.290 NA
ATOM     13  C   UNL     1      -2.167  -3.055   4.785  0.00  0.00    +0.113 C 
ATOM     14  C   UNL     1      -3.001  -2.420   5.902  0.00  0.00    +0.175 C 
ATOM     15  O   UNL     1      -2.912  -3.231   7.076  0.00  0.00    -0.377 OA
ATOM     16  C   UNL     1      -1.576  -3.408   7.554  0.00  0.00    +0.175 C 
ATOM     17  C   UNL     1      -0.728  -4.053   6.454  0.00  0.00    +0.113 C 
ENDBRANCH   1  12
BRANCH   1  18
ATOM     18  C   UNL     1       1.505  -3.896   4.692  0.00  0.00    +0.128 C 
BRANCH  18  19
ATOM     19  N   UNL     1       2.333  -4.527   3.661  0.00  0.00    -0.306 N 
ATOM     20  C   UNL     1       3.625  -4.815   3.917  0.00  0.00    +0.299 C 
ATOM     21  O   UNL     1       4.102  -4.552   5.002  0.00  0.00    -0.265 OA
ATOM     22  H   UNL     1       1.952  -4.738   2.794  0.00  0.00    +0.149 HD
BRANCH  20  23
ATOM     23  C   UNL     1       4.470  -5.458   2.866  0.00  0.00    +0.296 C 
ATOM     24  O   UNL     1       3.993  -5.722   1.782  0.00  0.00    -0.265 OA
ATOM     25  N   UNL     1       5.761  -5.746   3.122  0.00  0.00    -0.322 N 
ATOM     26  H   UNL     1       6.142  -5.536   3.989  0.00  0.00    +0.145 HD
ATOM     27  H   UNL     1       6.310  -6.164   2.440  0.00  0.00    +0.145 HD
ENDBRANCH  20  23
ENDBRANCH  18  19
ENDBRANCH   1  18
TORSDOF 5
