REMARK  Name = ZINC20307897
REMARK  4 active torsions:
REMARK  status: ('A' for Active; 'I' for Inactive)
REMARK    1  A    between atoms: C_1  and  C_2
REMARK    2  A    between atoms: C_2  and  C_4
REMARK    3  A    between atoms: C_2  and  N_10
REMARK    4  A    between atoms: N_10  and  C_11
REMARK                            x       y       z     vdW  Elec       q    Type
REMARK                         _______ _______ _______ _____ _____    ______ ____
ROOT
ATOM      1  C   UNL     1      -0.013   1.086   0.008  0.00  0.00    +0.038 C 
ATOM      2  C   UNL     1      -0.729   1.579   1.267  0.00  0.00    +0.154 C 
ENDROOT
BRANCH   2   3
ATOM      3  C   UNL     1      -2.143   1.058   1.278  0.00  0.00    +0.240 C 
ATOM      4  O   UNL     1      -2.521   0.350   2.187  0.00  0.00    -0.273 OA
ATOM      5  N   UNL     1      -2.986   1.377   0.276  0.00  0.00    -0.239 N 
ATOM      6  C   UNL     1      -4.251   0.911   0.286  0.00  0.00    +0.303 C 
ATOM      7  O   UNL     1      -4.630   0.202   1.197  0.00  0.00    -0.253 OA
ATOM      8  N   UNL     1      -5.095   1.230  -0.715  0.00  0.00    -0.313 N 
ATOM      9  H   UNL     1      -2.643   2.019  -0.548  0.00  0.00    +0.159 HD
ATOM     10  H   UNL     1      -6.127   0.850  -0.707  0.00  0.00    +0.146 HD
ATOM     11  H   UNL     1      -4.751   1.872  -1.540  0.00  0.00    +0.146 HD
ENDBRANCH   2   3
BRANCH   2  12
ATOM     12  N   UNL     1      -0.020   1.094   2.454  0.00  0.00    -0.333 N 
ATOM     13  H   UNL     1      -0.347   0.168   2.949  0.00  0.00    +0.147 HD
BRANCH  12  14
ATOM     14  C   UNL     1       1.070   1.807   2.957  0.00  0.00    +0.030 A 
ATOM     15  C   UNL     1       1.487   2.974   2.329  0.00  0.00    +0.043 A 
ATOM     16  C   UNL     1       2.563   3.681   2.832  0.00  0.00    +0.044 A 
ATOM     17  C   UNL     1       3.232   3.221   3.953  0.00  0.00    +0.040 A 
ATOM     18  C   UNL     1       2.822   2.056   4.577  0.00  0.00    +0.044 A 
ATOM     19  C   UNL     1       1.743   1.348   4.082  0.00  0.00    +0.043 A 
ATOM     20 CL   UNL     1       3.663   1.483   5.983  0.00  0.00    -0.083 Cl
ATOM     21 CL   UNL     1       3.081   5.144   2.052  0.00  0.00    -0.083 Cl
ENDBRANCH  12  14
ENDBRANCH   2  12
TORSDOF 3
