REMARK  Name = ZINC67224995
REMARK  12 active torsions:
REMARK  status: ('A' for Active; 'I' for Inactive)
REMARK    1  A    between atoms: C_1  and  C_2
REMARK    2  A    between atoms: C_2  and  C_3
REMARK    3  A    between atoms: C_2  and  C_4
REMARK    4  A    between atoms: C_4  and  O_5
REMARK    5  A    between atoms: O_5  and  C_6
REMARK    6  A    between atoms: C_6  and  C_7
REMARK    7  A    between atoms: C_7  and  C_9
REMARK    8  A    between atoms: C_7  and  O_27
REMARK    9  A    between atoms: C_9  and  N_10
REMARK   10  A    between atoms: N_10  and  C_11
REMARK   11  A    between atoms: C_11  and  C_12
REMARK   12  A    between atoms: C_17  and  C_18
REMARK                            x       y       z     vdW  Elec       q    Type
REMARK                         _______ _______ _______ _____ _____    ______ ____
ROOT
ATOM      1  C   UNL     1      -0.535   0.034   9.684  0.00  0.00    -0.016 A 
ATOM      2  C   UNL     1      -0.376   1.161  10.410  0.00  0.00    +0.107 A 
ATOM      3  N   UNL     1      -1.335   1.185  11.361  0.00  0.00    -0.284 N 
ATOM      4  H   UNL     1      -1.461   1.881  12.025  0.00  0.00    +0.188 HD
ATOM      5  N   UNL     1      -2.118   0.032  11.221  0.00  0.00    -0.171 NA
ATOM      6  C   UNL     1      -1.643  -0.664  10.207  0.00  0.00    +0.129 A 
ENDROOT
BRANCH   6   7
ATOM      7  C   UNL     1      -2.176  -1.950   9.709  0.00  0.00    +0.156 A 
ATOM      8  C   UNL     1      -2.722  -2.918  10.482  0.00  0.00    +0.060 A 
ATOM      9  C   UNL     1      -3.107  -3.998   9.570  0.00  0.00    +0.021 A 
ATOM     10  C   UNL     1      -3.707  -5.247   9.738  0.00  0.00    +0.011 A 
ATOM     11  C   UNL     1      -3.937  -6.040   8.649  0.00  0.00    +0.001 A 
ATOM     12  C   UNL     1      -3.579  -5.611   7.379  0.00  0.00    +0.004 A 
ATOM     13  C   UNL     1      -2.986  -4.380   7.193  0.00  0.00    +0.047 A 
ATOM     14  C   UNL     1      -2.743  -3.557   8.285  0.00  0.00    +0.136 A 
ATOM     15  O   UNL     1      -2.197  -2.331   8.416  0.00  0.00    -0.453 OA
ENDBRANCH   6   7
BRANCH   1  16
ATOM     16  C   UNL     1       0.317  -0.399   8.519  0.00  0.00    -0.043 C 
BRANCH  16  17
ATOM     17  N   UNL     1      -0.366  -0.065   7.262  0.00  0.00    +0.384 N 
ATOM     18  H   UNL     1      -0.517   0.932   7.216  0.00  0.00    -0.085 HD
ATOM     19  H   UNL     1      -1.254  -0.542   7.225  0.00  0.00    -0.085 HD
BRANCH  17  20
ATOM     20  C   UNL     1       0.465  -0.486   6.126  0.00  0.00    -0.048 C 
BRANCH  20  21
ATOM     21  C   UNL     1      -0.246  -0.138   4.817  0.00  0.00    +0.123 C 
BRANCH  21  22
ATOM     22  O   UNL     1      -1.504  -0.814   4.765  0.00  0.00    -0.391 OA
ATOM     23  H   UNL     1      -1.435  -1.778   4.804  0.00  0.00    +0.210 HD
ENDBRANCH  21  22
BRANCH  21  24
ATOM     24  C   UNL     1       0.619  -0.578   3.634  0.00  0.00    +0.189 C 
BRANCH  24  25
ATOM     25  O   UNL     1       0.010  -0.149   2.414  0.00  0.00    -0.377 OA
BRANCH  25  26
ATOM     26  C   UNL     1       0.742  -0.511   1.242  0.00  0.00    +0.163 C 
BRANCH  26  28
ATOM     27  C   UNL     1      -0.019   1.526   0.010  0.00  0.00    +0.009 C 
ATOM     28  C   UNL     1       0.002  -0.004   0.002  0.00  0.00    +0.009 C 
ATOM     29  C   UNL     1       0.718  -0.497  -1.257  0.00  0.00    +0.009 C 
ENDBRANCH  26  28
ENDBRANCH  25  26
ENDBRANCH  24  25
ENDBRANCH  21  24
ENDBRANCH  20  21
ENDBRANCH  17  20
ENDBRANCH  16  17
ENDBRANCH   1  16
TORSDOF 10
