REMARK  Name = ZINC05209790
REMARK  6 active torsions:
REMARK  status: ('A' for Active; 'I' for Inactive)
REMARK    1  A    between atoms: C_1  and  C_2
REMARK    2  A    between atoms: C_2  and  C_3
REMARK    3  A    between atoms: C_2  and  C_4
REMARK    4  A    between atoms: C_4  and  C_5
REMARK    5  A    between atoms: N_7  and  C_8
REMARK    6  A    between atoms: C_8  and  C_21
REMARK                            x       y       z     vdW  Elec       q    Type
REMARK                         _______ _______ _______ _____ _____    ______ ____
ROOT
ATOM      1  C   UNL     1       0.065   0.006  -0.004  0.00  0.00    +0.279 C 
ATOM      2  C   UNL     1       0.839  -0.491   1.196  0.00  0.00    +0.286 C 
ATOM      3  O   UNL     1       1.992  -0.237   1.470  0.00  0.00    -0.268 OA
ATOM      4  N   UNL     1      -0.004  -1.273   1.903  0.00  0.00    -0.247 N 
ATOM      5  C   UNL     1      -0.056  -2.051   3.059  0.00  0.00    +0.078 A 
ATOM      6  C   UNL     1       0.862  -2.355   4.050  0.00  0.00    +0.028 A 
ATOM      7  C   UNL     1       0.496  -3.181   5.094  0.00  0.00    +0.002 A 
ATOM      8  C   UNL     1      -0.786  -3.705   5.158  0.00  0.00    +0.002 A 
ATOM      9  C   UNL     1      -1.711  -3.411   4.180  0.00  0.00    +0.030 A 
ATOM     10  C   UNL     1      -1.354  -2.578   3.117  0.00  0.00    +0.091 A 
ATOM     11  N   UNL     1      -2.024  -2.116   2.029  0.00  0.00    -0.214 NA
ATOM     12  C   UNL     1      -1.234  -1.346   1.309  0.00  0.00    +0.206 A 
ATOM     13  N   UNL     1      -1.267  -0.596   0.148  0.00  0.00    -0.279 N 
ATOM     14  H   UNL     1      -2.023  -0.488  -0.451  0.00  0.00    +0.152 HD
ENDROOT
BRANCH   1  17
ATOM     15  C   UNL     1       1.091   2.213   0.113  0.00  0.00    +0.215 C 
ATOM     16  O   UNL     1       2.179   1.678   0.096  0.00  0.00    -0.276 OA
ATOM     17  N   UNL     1      -0.028   1.468   0.016  0.00  0.00    -0.280 N 
ATOM     18  H   UNL     1      -0.894   1.900  -0.045  0.00  0.00    +0.151 HD
BRANCH  15  19
ATOM     19  C   UNL     1       0.990   3.711   0.242  0.00  0.00    +0.099 C 
BRANCH  19  21
ATOM     20  C   UNL     1       2.297   5.838   0.340  0.00  0.00    +0.008 C 
ATOM     21  C   UNL     1       2.394   4.311   0.334  0.00  0.00    -0.008 C 
ATOM     22  C   UNL     1       3.067   3.838   1.624  0.00  0.00    +0.008 C 
ENDBRANCH  19  21
ENDBRANCH  15  19
ENDBRANCH   1  17
BRANCH   1  23
ATOM     23  C   UNL     1       0.722  -0.469  -1.302  0.00  0.00    +0.437 C 
ATOM     24  F   UNL     1       2.054  -0.042  -1.334  0.00  0.00    -0.166 F 
ATOM     25  F   UNL     1       0.678  -1.866  -1.362  0.00  0.00    -0.166 F 
ATOM     26  F   UNL     1       0.034   0.067  -2.396  0.00  0.00    -0.166 F 
ENDBRANCH   1  23
TORSDOF 4
