REMARK  Name = ZINC06481495
REMARK  12 active torsions:
REMARK  status: ('A' for Active; 'I' for Inactive)
REMARK    1  A    between atoms: C_1  and  C_2
REMARK    2  A    between atoms: C_2  and  C_3
REMARK    3  A    between atoms: C_3  and  C_4
REMARK    4  A    between atoms: C_4  and  C_5
REMARK    5  A    between atoms: C_5  and  C_7
REMARK    6  A    between atoms: C_5  and  N_15
REMARK    7  A    between atoms: N_9  and  C_10
REMARK    8  A    between atoms: N_15  and  C_16
REMARK    9  A    between atoms: C_16  and  C_17
REMARK   10  A    between atoms: C_22  and  C_24
REMARK   11  A    between atoms: C_25  and  N_32
REMARK   12  A    between atoms: C_26  and  C_29
REMARK                            x       y       z     vdW  Elec       q    Type
REMARK                         _______ _______ _______ _____ _____    ______ ____
ROOT
ATOM      1  N   UNL     1       0.368   2.495   5.954  0.00  0.00    -0.281 N 
ATOM      2  C   UNL     1       1.043   1.947   6.983  0.00  0.00    +0.257 C 
ATOM      3  O   UNL     1       2.097   1.371   6.782  0.00  0.00    -0.269 OA
ENDROOT
BRANCH   2   4
ATOM      4  C   UNL     1       0.510   2.045   8.344  0.00  0.00    +0.115 A 
ATOM      5  C   UNL     1       1.088   1.647   9.551  0.00  0.00    +0.076 A 
ATOM      6  C   UNL     1       0.267   1.910  10.648  0.00  0.00    +0.155 A 
ATOM      7  N   UNL     1      -0.909   2.465  10.453  0.00  0.00    -0.203 NA
ATOM      8  S   UNL     1      -1.051   2.695   8.900  0.00  0.00    +0.019 S 
BRANCH   6   9
ATOM      9  C   UNL     1       0.711   1.563  12.010  0.00  0.00    +0.262 C 
ATOM     10  O   UNL     1       1.799   1.050  12.183  0.00  0.00    -0.269 OA
ATOM     11  N   UNL     1      -0.091   1.815  13.064  0.00  0.00    -0.324 N 
ATOM     12  H   UNL     1      -0.959   2.225  12.927  0.00  0.00    +0.145 HD
ATOM     13  H   UNL     1       0.201   1.587  13.961  0.00  0.00    +0.145 HD
ENDBRANCH   6   9
BRANCH   5  14
ATOM     14  N   UNL     1       2.342   1.059   9.649  0.00  0.00    -0.355 N 
ATOM     15  H   UNL     1       2.868   0.903   8.850  0.00  0.00    +0.142 HD
ATOM     16  H   UNL     1       2.691   0.803  10.517  0.00  0.00    +0.142 HD
ENDBRANCH   5  14
ENDBRANCH   2   4
BRANCH   1  17
ATOM     17  C   UNL     1       0.846   2.308   4.582  0.00  0.00    +0.163 C 
BRANCH  17  18
ATOM     18  C   UNL     1      -0.182   1.538   3.792  0.00  0.00    +0.234 C 
ATOM     19  O   UNL     1      -1.296   1.377   4.243  0.00  0.00    -0.274 OA
ATOM     20  N   UNL     1       0.138   1.029   2.586  0.00  0.00    -0.311 N 
ATOM     21  H   UNL     1       1.029   1.158   2.226  0.00  0.00    +0.149 HD
BRANCH  20  22
ATOM     22  C   UNL     1      -0.861   0.280   1.819  0.00  0.00    +0.073 C 
ATOM     23  C   UNL     1      -0.172  -0.699   0.846  0.00  0.00    +0.022 C 
ATOM     24  C   UNL     1      -1.008  -0.698  -0.445  0.00  0.00    +0.002 C 
ATOM     25  C   UNL     1      -2.178   0.281  -0.212  0.00  0.00    +0.002 C 
ATOM     26  C   UNL     1      -1.662   1.232   0.895  0.00  0.00    +0.022 C 
ENDBRANCH  20  22
ENDBRANCH  17  18
BRANCH  17  27
ATOM     27  C   UNL     1       1.071   3.674   3.929  0.00  0.00    +0.032 C 
BRANCH  27  28
ATOM     28  C   UNL     1       2.210   4.401   4.648  0.00  0.00    +0.002 C 
BRANCH  28  30
ATOM     29  C   UNL     1       3.574   6.493   4.715  0.00  0.00    +0.004 C 
ATOM     30  C   UNL     1       2.435   5.766   3.996  0.00  0.00    -0.003 C 
ENDBRANCH  28  30
ENDBRANCH  27  28
ENDBRANCH  17  27
ENDBRANCH   1  17
BRANCH   1  31
ATOM     31  C   UNL     1      -0.844   3.278   6.207  0.00  0.00    +0.151 C 
BRANCH  31  32
ATOM     32  C   UNL     1      -0.463   4.686   6.586  0.00  0.00    +0.007 A 
ATOM     33  C   UNL     1      -0.388   5.790   5.803  0.00  0.00    +0.013 A 
ATOM     34  C   UNL     1      -0.012   6.992   6.373  0.00  0.00    +0.008 A 
ATOM     35  C   UNL     1       0.270   7.031   7.698  0.00  0.00    +0.045 A 
ATOM     36  S   UNL     1      -0.001   5.335   8.184  0.00  0.00    -0.100 S 
ENDBRANCH  31  32
ENDBRANCH   1  31
TORSDOF 11
