REMARK  Name = ZINC66599530
REMARK  10 active torsions:
REMARK  status: ('A' for Active; 'I' for Inactive)
REMARK    1  A    between atoms: C_1  and  C_2
REMARK    2  A    between atoms: C_2  and  C_3
REMARK    3  A    between atoms: C_3  and  C_4
REMARK    4  A    between atoms: C_4  and  N_5
REMARK    5  A    between atoms: C_10  and  C_12
REMARK    6  A    between atoms: C_12  and  N_13
REMARK    7  A    between atoms: N_16  and  C_17
REMARK    8  A    between atoms: N_16  and  C_18
REMARK    9  A    between atoms: C_18  and  C_19
REMARK   10  A    between atoms: C_23  and  C_25
REMARK                            x       y       z     vdW  Elec       q    Type
REMARK                         _______ _______ _______ _____ _____    ______ ____
ROOT
ATOM      1  N   UNL     1       1.319  -3.869   0.130  0.00  0.00    -0.301 N 
ATOM      2  C   UNL     1       1.723  -4.010   1.408  0.00  0.00    +0.302 C 
ATOM      3  O   UNL     1       2.799  -4.520   1.653  0.00  0.00    -0.253 OA
ATOM      4  N   UNL     1       0.933  -3.587   2.415  0.00  0.00    -0.284 N 
ATOM      5  C   UNL     1      -0.364  -2.973   2.120  0.00  0.00    +0.134 C 
ATOM      6  H   UNL     1       0.461  -3.463  -0.065  0.00  0.00    +0.150 HD
ENDROOT
BRANCH   1   7
ATOM      7  C   UNL     1       2.178  -4.329  -0.964  0.00  0.00    +0.090 C 
BRANCH   7  13
ATOM      8  N   UNL     1       0.175  -4.468  -2.364  0.00  0.00    +0.383 N 
ATOM      9  C   UNL     1      -0.414  -4.172  -3.675  0.00  0.00    -0.078 C 
ATOM     10  C   UNL     1      -0.512  -2.657  -3.864  0.00  0.00    -0.019 C 
ATOM     11  C   UNL     1       0.889  -2.045  -3.782  0.00  0.00    -0.003 C 
ATOM     12  C   UNL     1       1.522  -2.423  -2.440  0.00  0.00    -0.014 C 
ATOM     13  C   UNL     1       1.546  -3.947  -2.304  0.00  0.00    -0.051 C 
ATOM     14  H   UNL     1      -0.381  -4.034  -1.642  0.00  0.00    -0.081 HD
BRANCH   8  15
ATOM     15  C   UNL     1       0.196  -5.922  -2.155  0.00  0.00    -0.078 C 
BRANCH  15  16
ATOM     16  C   UNL     1      -1.239  -6.447  -2.076  0.00  0.00    -0.019 C 
BRANCH  16  18
ATOM     17  C   UNL     1      -2.652  -8.486  -1.780  0.00  0.00    +0.004 C 
ATOM     18  C   UNL     1      -1.217  -7.961  -1.859  0.00  0.00    -0.005 C 
ENDBRANCH  16  18
ENDBRANCH  15  16
ENDBRANCH   8  15
ENDBRANCH   7  13
ENDBRANCH   1   7
BRANCH   4  19
ATOM     19  C   UNL     1       1.371  -3.741   3.804  0.00  0.00    +0.144 C 
BRANCH  19  20
ATOM     20  C   UNL     1       2.139  -2.515   4.227  0.00  0.00    -0.029 A 
ATOM     21  C   UNL     1       3.508  -2.458   4.038  0.00  0.00    +0.005 A 
ATOM     22  C   UNL     1       4.220  -1.336   4.423  0.00  0.00    +0.001 A 
ATOM     23  C   UNL     1       3.568  -0.266   4.999  0.00  0.00    +0.013 A 
ATOM     24  C   UNL     1       2.187  -0.316   5.193  0.00  0.00    +0.037 A 
ATOM     25  C   UNL     1       1.474  -1.449   4.797  0.00  0.00    +0.018 A 
BRANCH  24  26
ATOM     26  C   UNL     1       1.481   0.827   5.810  0.00  0.00    +0.242 C 
ATOM     27  O   UNL     1       0.278   0.781   5.977  0.00  0.00    -0.270 OA
ATOM     28  N   UNL     1       2.172   1.921   6.187  0.00  0.00    -0.325 N 
ATOM     29  H   UNL     1       3.132   1.959   6.053  0.00  0.00    +0.145 HD
ATOM     30  H   UNL     1       1.709   2.672   6.592  0.00  0.00    +0.145 HD
ENDBRANCH  24  26
ENDBRANCH  19  20
ENDBRANCH   4  19
TORSDOF 8
