REMARK  Name = ZINC55109380
REMARK  9 active torsions:
REMARK  status: ('A' for Active; 'I' for Inactive)
REMARK    1  A    between atoms: C_1  and  C_2
REMARK    2  A    between atoms: N_10  and  C_11
REMARK    3  A    between atoms: C_11  and  C_12
REMARK    4  A    between atoms: C_12  and  N_13
REMARK    5  A    between atoms: C_14  and  C_16
REMARK    6  A    between atoms: C_16  and  C_17
REMARK    7  A    between atoms: C_16  and  C_18
REMARK    8  A    between atoms: C_16  and  N_19
REMARK    9  A    between atoms: C_20  and  C_22
REMARK                            x       y       z     vdW  Elec       q    Type
REMARK                         _______ _______ _______ _____ _____    ______ ____
ROOT
ATOM      1  N   UNL     1       6.105  -1.948  -0.039  0.00  0.00    -0.312 N 
ATOM      2  C   UNL     1       7.303  -2.565  -0.049  0.00  0.00    +0.236 C 
ATOM      3  O   UNL     1       7.362  -3.777  -0.056  0.00  0.00    -0.273 OA
ATOM      4  H   UNL     1       6.059  -0.980  -0.033  0.00  0.00    +0.149 HD
ENDROOT
BRANCH   2   5
ATOM      5  C   UNL     1       8.571  -1.750  -0.050  0.00  0.00    +0.105 C 
ATOM      6  C   UNL     1       8.939  -1.376   1.387  0.00  0.00    +0.041 C 
ATOM      7  C   UNL     1       9.704  -2.570  -0.670  0.00  0.00    +0.041 C 
BRANCH   5   8
ATOM      8  N   UNL     1       8.365  -0.529  -0.835  0.00  0.00    -0.297 N 
ATOM      9  C   UNL     1       9.370   0.358  -0.976  0.00  0.00    +0.251 C 
ATOM     10  O   UNL     1      10.447   0.146  -0.452  0.00  0.00    -0.270 OA
ATOM     11  H   UNL     1       7.506  -0.360  -1.252  0.00  0.00    +0.150 HD
BRANCH   9  12
ATOM     12  C   UNL     1       9.164   1.579  -1.760  0.00  0.00    +0.074 A 
ATOM     13  C   UNL     1      10.057   2.605  -2.030  0.00  0.00    +0.021 A 
ATOM     14  C   UNL     1       9.571   3.631  -2.804  0.00  0.00    +0.008 A 
ATOM     15  C   UNL     1       8.288   3.576  -3.241  0.00  0.00    +0.046 A 
ATOM     16  S   UNL     1       7.704   2.128  -2.623  0.00  0.00    -0.092 S 
ENDBRANCH   9  12
ENDBRANCH   5   8
ENDBRANCH   2   5
BRANCH   1  17
ATOM     17  C   UNL     1       4.873  -2.741  -0.038  0.00  0.00    +0.123 C 
BRANCH  17  18
ATOM     18  C   UNL     1       3.664  -1.804  -0.026  0.00  0.00    +0.123 C 
BRANCH  18  28
ATOM     19  C   UNL     1      -0.018   1.503   0.010  0.00  0.00    +0.066 C 
ATOM     20  C   UNL     1       0.002  -0.004   0.002  0.00  0.00    +0.047 A 
ATOM     21  C   UNL     1      -1.171  -0.701   0.004  0.00  0.00    +0.093 A 
ATOM     22  C   UNL     1      -1.126  -2.107  -0.004  0.00  0.00    +0.253 A 
ATOM     23  O   UNL     1      -2.156  -2.762  -0.004  0.00  0.00    -0.268 OA
ATOM     24  N   UNL     1       0.078  -2.717  -0.014  0.00  0.00    -0.295 N 
ATOM     25  H   UNL     1       0.132  -3.686  -0.020  0.00  0.00    +0.172 HD
ATOM     26  C   UNL     1       1.215  -1.970  -0.015  0.00  0.00    +0.196 A 
ATOM     27  N   UNL     1       1.164  -0.653  -0.013  0.00  0.00    -0.221 NA
ATOM     28  N   UNL     1       2.432  -2.597  -0.025  0.00  0.00    -0.313 N 
ATOM     29  H   UNL     1       2.478  -3.566  -0.031  0.00  0.00    +0.149 HD
ENDBRANCH  18  28
ENDBRANCH  17  18
ENDBRANCH   1  17
TORSDOF 6
