REMARK  Name = ZINC35380583
REMARK  7 active torsions:
REMARK  status: ('A' for Active; 'I' for Inactive)
REMARK    1  A    between atoms: C_1  and  C_2
REMARK    2  A    between atoms: C_2  and  C_4
REMARK    3  A    between atoms: C_2  and  O_12
REMARK    4  A    between atoms: N_6  and  C_7
REMARK    5  A    between atoms: O_12  and  C_13
REMARK    6  A    between atoms: C_13  and  C_15
REMARK    7  A    between atoms: C_17  and  N_23
REMARK                            x       y       z     vdW  Elec       q    Type
REMARK                         _______ _______ _______ _____ _____    ______ ____
ROOT
ATOM      1  C   UNL     1      -1.901  -0.717   1.217  0.00  0.00    +0.360 C 
ATOM      2  O   UNL     1      -1.270  -0.493   2.230  0.00  0.00    -0.243 OA
ENDROOT
BRANCH   1   3
ATOM      3  C   UNL     1      -3.286  -1.228   1.304  0.00  0.00    +0.169 A 
ATOM      4  C   UNL     1      -3.863  -1.446   2.553  0.00  0.00    +0.095 A 
ATOM      5  C   UNL     1      -5.170  -1.929   2.618  0.00  0.00    +0.067 A 
ATOM      6  C   UNL     1      -5.846  -2.173   1.424  0.00  0.00    +0.100 A 
ATOM      7  C   UNL     1      -5.203  -1.931   0.220  0.00  0.00    +0.150 A 
ATOM      8  N   UNL     1      -3.970  -1.471   0.191  0.00  0.00    -0.226 NA
ATOM      9 CL   UNL     1      -6.039  -2.234  -1.271  0.00  0.00    -0.060 Cl
ATOM     10 CL   UNL     1      -7.475  -2.775   1.444  0.00  0.00    -0.078 Cl
ATOM     11 CL   UNL     1      -2.969  -1.123   4.005  0.00  0.00    -0.079 Cl
BRANCH   5  12
ATOM     12  N   UNL     1      -5.785  -2.161   3.847  0.00  0.00    -0.356 N 
ATOM     13  H   UNL     1      -5.304  -1.987   4.671  0.00  0.00    +0.142 HD
ATOM     14  H   UNL     1      -6.695  -2.497   3.879  0.00  0.00    +0.142 HD
ENDBRANCH   5  12
ENDBRANCH   1   3
BRANCH   1  15
ATOM     15  O   UNL     1      -1.339  -0.499   0.012  0.00  0.00    -0.448 OA
BRANCH  15  17
ATOM     16  C   UNL     1      -0.019   1.526   0.010  0.00  0.00    +0.062 C 
ATOM     17  C   UNL     1       0.002  -0.004   0.002  0.00  0.00    +0.259 C 
BRANCH  17  18
ATOM     18  C   UNL     1       0.707  -0.490  -1.238  0.00  0.00    +0.254 C 
ATOM     19  O   UNL     1       0.095  -1.114  -2.078  0.00  0.00    -0.272 OA
ATOM     20  N   UNL     1       2.018  -0.231  -1.413  0.00  0.00    -0.309 N 
ATOM     21  H   UNL     1       2.508   0.269  -0.741  0.00  0.00    +0.149 HD
BRANCH  20  22
ATOM     22  C   UNL     1       2.704  -0.703  -2.618  0.00  0.00    +0.073 C 
ATOM     23  C   UNL     1       3.239  -2.133  -2.396  0.00  0.00    +0.022 C 
ATOM     24  C   UNL     1       4.596  -2.151  -3.142  0.00  0.00    +0.002 C 
ATOM     25  C   UNL     1       5.163  -0.738  -2.855  0.00  0.00    +0.002 C 
ATOM     26  C   UNL     1       3.927   0.183  -2.910  0.00  0.00    +0.022 C 
ENDBRANCH  20  22
ENDBRANCH  17  18
ENDBRANCH  15  17
ENDBRANCH   1  15
TORSDOF 6
