REMARK  Name = ZINC09264387
REMARK  4 active torsions:
REMARK  status: ('A' for Active; 'I' for Inactive)
REMARK    1  A    between atoms: C_3  and  N_19
REMARK    2  A    between atoms: N_7  and  N_8
REMARK    3  A    between atoms: C_9  and  C_10
REMARK    4  A    between atoms: C_15  and  O_16
REMARK                            x       y       z     vdW  Elec       q    Type
REMARK                         _______ _______ _______ _____ _____    ______ ____
ROOT
ATOM      1  N   UNL     1       3.602  -1.963   0.621  0.00  0.00    -0.189 NA
ATOM      2  C   UNL     1       4.736  -2.555   0.842  0.00  0.00    +0.142 C 
ENDROOT
BRANCH   1   9
ATOM      3  C   UNL     1      -0.049   1.278  -0.227  0.00  0.00    +0.022 A 
ATOM      4  C   UNL     1       1.111   2.034  -0.333  0.00  0.00    +0.038 A 
ATOM      5  C   UNL     1       2.326   1.415  -0.100  0.00  0.00    +0.167 A 
ATOM      6  C   UNL     1       2.345   0.064   0.231  0.00  0.00    +0.169 A 
ATOM      7  N   UNL     1       1.216  -0.623   0.321  0.00  0.00    -0.237 NA
ATOM      8  C   UNL     1       0.043  -0.059   0.105  0.00  0.00    +0.113 A 
ATOM      9  N   UNL     1       3.558  -0.571   0.467  0.00  0.00    -0.219 N 
ATOM     10  H   UNL     1       4.374  -0.050   0.525  0.00  0.00    +0.176 HD
BRANCH   5  11
ATOM     11  N   UNL     1       3.590   2.180  -0.202  0.00  0.00    +0.060 N 
ATOM     12  O   UNL     1       3.635   3.326   0.182  0.00  0.00    -0.126 OA
ATOM     13  O   UNL     1       4.576   1.660  -0.669  0.00  0.00    -0.126 OA
ENDBRANCH   5  11
ENDBRANCH   1   9
BRANCH   2  14
ATOM     14  C   UNL     1       4.782  -4.020   1.004  0.00  0.00    +0.038 A 
ATOM     15  C   UNL     1       5.999  -4.661   1.248  0.00  0.00    +0.033 A 
ATOM     16  C   UNL     1       6.036  -6.032   1.399  0.00  0.00    +0.043 A 
ATOM     17  C   UNL     1       4.871  -6.776   1.311  0.00  0.00    +0.038 A 
ATOM     18  C   UNL     1       3.660  -6.152   1.070  0.00  0.00    +0.057 A 
ATOM     19  C   UNL     1       3.606  -4.775   0.921  0.00  0.00    +0.139 A 
ATOM     20  I   UNL     1       1.906  -7.289   0.938  0.00  0.00    -0.040 I 
ATOM     21 CL   UNL     1       7.549  -6.828   1.702  0.00  0.00    -0.083 Cl
BRANCH  19  22
ATOM     22  O   UNL     1       2.416  -4.161   0.690  0.00  0.00    -0.505 OA
ATOM     23  H   UNL     1       2.193  -4.076  -0.247  0.00  0.00    +0.292 HD
ENDBRANCH  19  22
ENDBRANCH   2  14
TORSDOF 4
