REMARK  Name = ZINC39012198
REMARK  9 active torsions:
REMARK  status: ('A' for Active; 'I' for Inactive)
REMARK    1  A    between atoms: C_1  and  C_2
REMARK    2  A    between atoms: C_4  and  C_35
REMARK    3  A    between atoms: C_5  and  N_9
REMARK    4  A    between atoms: C_10  and  C_12
REMARK    5  A    between atoms: C_12  and  S_13
REMARK    6  A    between atoms: S_13  and  C_14
REMARK    7  A    between atoms: C_18  and  C_22
REMARK    8  A    between atoms: N_20  and  N_21
REMARK    9  A    between atoms: C_25  and  C_28
REMARK                            x       y       z     vdW  Elec       q    Type
REMARK                         _______ _______ _______ _____ _____    ______ ____
ROOT
ATOM      1  C   UNL     1       1.271  -8.753   2.411  0.00  0.00    +0.214 C 
ATOM      2  N   UNL     1      -0.050  -9.289   2.009  0.00  0.00    -0.228 NA
ATOM      3  N   UNL     1       0.264 -10.357   1.047  0.00  0.00    -0.234 NA
ATOM      4  C   UNL     1       1.417  -9.801   0.292  0.00  0.00    +0.185 C 
ATOM      5  N   UNL     1       2.208  -9.079   1.316  0.00  0.00    -0.197 NA
ATOM      6  H   UNL     1      -0.616  -8.572   1.580  0.00  0.00    +0.143 HD
ATOM      7  H   UNL     1       0.521 -11.209   1.524  0.00  0.00    +0.143 HD
ENDROOT
BRANCH   4   8
ATOM      8  C   UNL     1       2.244 -10.929  -0.329  0.00  0.00    +0.187 C 
ATOM      9  C   UNL     1       1.428 -11.687  -1.361  0.00  0.00    +0.034 C 
ATOM     10  C   UNL     1       1.374 -12.941  -0.872  0.00  0.00    +0.091 C 
ATOM     11  N   UNL     1       2.048 -13.020   0.305  0.00  0.00    -0.154 NA
ATOM     12  N   UNL     1       2.560 -11.957   0.676  0.00  0.00    -0.176 NA
BRANCH  10  13
ATOM     13  C   UNL     1       0.677 -14.075  -1.526  0.00  0.00    +0.002 A 
ATOM     14  C   UNL     1       0.018 -13.885  -2.740  0.00  0.00    +0.011 A 
ATOM     15  C   UNL     1      -0.628 -14.943  -3.344  0.00  0.00    +0.020 A 
ATOM     16  C   UNL     1      -0.624 -16.192  -2.747  0.00  0.00    +0.041 A 
ATOM     17  C   UNL     1       0.028 -16.386  -1.542  0.00  0.00    +0.020 A 
ATOM     18  C   UNL     1       0.683 -15.336  -0.932  0.00  0.00    +0.011 A 
ATOM     19 CL   UNL     1      -1.441 -17.520  -3.512  0.00  0.00    -0.084 Cl
ENDBRANCH  10  13
ENDBRANCH   4   8
BRANCH   5  20
ATOM     20  N   UNL     1       3.309  -9.897   1.799  0.00  0.00    -0.264 NA
ATOM     21  H   UNL     1       3.826  -9.418   2.521  0.00  0.00    +0.137 HD
ATOM     22  H   UNL     1       2.978 -10.793   2.125  0.00  0.00    +0.137 HD
ENDBRANCH   5  20
BRANCH   1  23
ATOM     23  S   UNL     1       1.171  -6.955   2.631  0.00  0.00    -0.115 S 
BRANCH  23  24
ATOM     24  C   UNL     1       0.598  -6.347   1.021  0.00  0.00    +0.168 C 
BRANCH  24  26
ATOM     25  N   UNL     1       0.057  -4.171  -0.023  0.00  0.00    -0.283 N 
ATOM     26  C   UNL     1       0.471  -4.846   1.067  0.00  0.00    +0.227 C 
ATOM     27  O   UNL     1       0.741  -4.246   2.086  0.00  0.00    -0.275 OA
ATOM     28  H   UNL     1      -0.228  -4.655  -0.814  0.00  0.00    +0.155 HD
BRANCH  25  33
ATOM     29  C   UNL     1      -0.016   1.503   0.014  0.00  0.00    +0.044 C 
ATOM     30  C   UNL     1       0.004  -0.004   0.004  0.00  0.00    -0.049 A 
ATOM     31  C   UNL     1      -1.135  -0.711   0.340  0.00  0.00    +0.008 A 
ATOM     32  C   UNL     1      -1.121  -2.092   0.333  0.00  0.00    -0.028 A 
ATOM     33  C   UNL     1       0.039  -2.771  -0.015  0.00  0.00    +0.055 A 
ATOM     34  C   UNL     1       1.183  -2.058  -0.353  0.00  0.00    +0.063 A 
ATOM     35  C   UNL     1       1.160  -0.676  -0.348  0.00  0.00    +0.025 A 
ATOM     36 CL   UNL     1       2.636  -2.902  -0.788  0.00  0.00    -0.082 Cl
ATOM     37  C   UNL     1      -2.363  -2.862   0.701  0.00  0.00    +0.046 C 
ENDBRANCH  25  33
ENDBRANCH  24  26
ENDBRANCH  23  24
ENDBRANCH   1  23
TORSDOF 7
