REMARK  Name = ZINC57037713
REMARK  13 active torsions:
REMARK  status: ('A' for Active; 'I' for Inactive)
REMARK    1  A    between atoms: C_1  and  C_2
REMARK    2  A    between atoms: C_2  and  C_4
REMARK    3  A    between atoms: C_2  and  N_16
REMARK    4  A    between atoms: C_7  and  O_12
REMARK    5  A    between atoms: C_8  and  O_10
REMARK    6  A    between atoms: O_10  and  C_11
REMARK    7  A    between atoms: O_12  and  C_13
REMARK    8  A    between atoms: C_13  and  C_14
REMARK    9  A    between atoms: C_14  and  O_15
REMARK   10  A    between atoms: N_19  and  C_20
REMARK   11  A    between atoms: C_20  and  C_21
REMARK   12  A    between atoms: N_27  and  C_28
REMARK   13  A    between atoms: N_27  and  C_29
REMARK                            x       y       z     vdW  Elec       q    Type
REMARK                         _______ _______ _______ _____ _____    ______ ____
ROOT
ATOM      1  N   UNL     1      -1.389  -0.458   0.002  0.00  0.00    -0.293 N 
ATOM      2  C   UNL     1      -2.061  -0.612  -1.156  0.00  0.00    +0.300 C 
ATOM      3  O   UNL     1      -1.529  -0.327  -2.211  0.00  0.00    -0.253 OA
ATOM      4  N   UNL     1      -3.324  -1.083  -1.144  0.00  0.00    -0.295 N 
ATOM      5  H   UNL     1      -1.813  -0.685   0.844  0.00  0.00    +0.151 HD
ATOM      6  H   UNL     1      -3.748  -1.311  -0.302  0.00  0.00    +0.151 HD
ENDROOT
BRANCH   1   8
ATOM      7  C   UNL     1      -0.043   1.584  -0.030  0.00  0.00    +0.033 C 
ATOM      8  C   UNL     1      -0.016   0.055  -0.011  0.00  0.00    +0.102 C 
BRANCH   8   9
ATOM      9  C   UNL     1       0.709  -0.420   1.221  0.00  0.00    -0.024 A 
ATOM     10  C   UNL     1       0.052  -0.456   2.437  0.00  0.00    +0.009 A 
ATOM     11  C   UNL     1       0.713  -0.890   3.571  0.00  0.00    +0.050 A 
ATOM     12  C   UNL     1       2.037  -1.292   3.490  0.00  0.00    +0.162 A 
ATOM     13  C   UNL     1       2.698  -1.257   2.266  0.00  0.00    +0.162 A 
ATOM     14  C   UNL     1       2.028  -0.824   1.133  0.00  0.00    +0.054 A 
BRANCH  13  15
ATOM     15  O   UNL     1       3.997  -1.650   2.182  0.00  0.00    -0.491 OA
ATOM     16  C   UNL     1       4.612  -1.587   0.894  0.00  0.00    +0.277 C 
ENDBRANCH  13  15
BRANCH  12  17
ATOM     17  O   UNL     1       2.688  -1.719   4.605  0.00  0.00    -0.486 OA
BRANCH  17  18
ATOM     18  C   UNL     1       1.947  -1.729   5.826  0.00  0.00    +0.257 C 
BRANCH  18  19
ATOM     19  C   UNL     1       2.839  -2.236   6.961  0.00  0.00    +0.196 C 
BRANCH  19  20
ATOM     20  O   UNL     1       3.909  -1.313   7.175  0.00  0.00    -0.392 OA
ATOM     21  H   UNL     1       4.516  -1.571   7.882  0.00  0.00    +0.210 HD
ENDBRANCH  19  20
ENDBRANCH  18  19
ENDBRANCH  17  18
ENDBRANCH  12  17
ENDBRANCH   8   9
ENDBRANCH   1   8
BRANCH   4  22
ATOM     22  C   UNL     1      -4.055  -1.252  -2.402  0.00  0.00    +0.142 C 
BRANCH  22  23
ATOM     23  C   UNL     1      -5.433  -1.788  -2.114  0.00  0.00    -0.014 A 
ATOM     24  C   UNL     1      -5.657  -3.158  -2.067  0.00  0.00    +0.010 A 
ATOM     25  C   UNL     1      -6.936  -3.610  -1.800  0.00  0.00    +0.042 A 
ATOM     26  C   UNL     1      -7.951  -2.681  -1.589  0.00  0.00    +0.098 A 
ATOM     27  N   UNL     1      -7.698  -1.383  -1.642  0.00  0.00    -0.349 N 
ATOM     28  C   UNL     1      -6.485  -0.924  -1.889  0.00  0.00    +0.089 A 
ATOM     29  N   UNL     1      -9.242  -3.121  -1.320  0.00  0.00    -0.323 N 
ATOM     30  C   UNL     1      -9.559  -4.550  -1.392  0.00  0.00    +0.130 C 
ATOM     31  C   UNL     1     -10.285  -2.156  -0.964  0.00  0.00    +0.130 C 
ATOM     32  H   UNL     1      -8.420  -0.753  -1.492  0.00  0.00    +0.167 HD
ENDBRANCH  22  23
ENDBRANCH   4  22
TORSDOF 9
