REMARK  Name = ZINC12305294
REMARK  7 active torsions:
REMARK  status: ('A' for Active; 'I' for Inactive)
REMARK    1  A    between atoms: C_1  and  C_2
REMARK    2  A    between atoms: C_2  and  C_4
REMARK    3  A    between atoms: C_2  and  N_53
REMARK    4  A    between atoms: N_7  and  C_9
REMARK    5  A    between atoms: C_15  and  C_16
REMARK    6  A    between atoms: C_15  and  N_53
REMARK    7  A    between atoms: C_17  and  C_24
REMARK                            x       y       z     vdW  Elec       q    Type
REMARK                         _______ _______ _______ _____ _____    ______ ____
ROOT
ATOM      1  C   UNL     1       1.677  -3.825  -1.422  0.00  0.00    -0.025 C 
ENDROOT
BRANCH   1   2
ATOM      2  C   UNL     1       0.767  -4.617  -2.326  0.00  0.00    +0.039 A 
ATOM      3  C   UNL     1      -0.065  -5.624  -1.945  0.00  0.00    +0.146 A 
ATOM      4  N   UNL     1      -0.709  -6.073  -3.053  0.00  0.00    -0.216 NA
ATOM      5  C   UNL     1      -0.302  -5.384  -4.077  0.00  0.00    +0.178 A 
ATOM      6  N   UNL     1       0.623  -4.446  -3.690  0.00  0.00    -0.299 N 
ATOM      7  C   UNL     1       1.147  -3.644  -4.681  0.00  0.00    +0.100 A 
ATOM      8  C   UNL     1       0.755  -3.778  -5.947  0.00  0.00    +0.067 A 
ATOM      9  S   UNL     1      -0.428  -5.111  -5.829  0.00  0.00    -0.058 S 
BRANCH   3  10
ATOM     10  C   UNL     1      -0.237  -6.136  -0.574  0.00  0.00    +0.267 C 
ATOM     11  O   UNL     1       0.400  -5.650   0.341  0.00  0.00    -0.268 OA
ATOM     12  N   UNL     1      -1.099  -7.143  -0.334  0.00  0.00    -0.296 N 
ATOM     13  C   UNL     1      -1.933  -7.816  -1.341  0.00  0.00    +0.108 C 
ATOM     14  C   UNL     1      -2.772  -8.881  -0.605  0.00  0.00    +0.020 C 
ATOM     15  C   UNL     1      -2.786  -8.360   0.857  0.00  0.00    +0.020 C 
ATOM     16  C   UNL     1      -1.368  -7.750   0.983  0.00  0.00    +0.108 C 
ENDBRANCH   3  10
ENDBRANCH   1   2
BRANCH   1  17
ATOM     17  N   UNL     1       0.949  -2.647  -0.914  0.00  0.00    +0.387 N 
ATOM     18  H   UNL     1       0.652  -2.065  -1.707  0.00  0.00    -0.085 HD
ATOM     19  H   UNL     1       0.122  -2.959  -0.391  0.00  0.00    -0.085 HD
BRANCH  17  21
ATOM     20  C   UNL     1       1.754  -2.424   1.393  0.00  0.00    -0.009 C 
ATOM     21  C   UNL     1       1.817  -1.853  -0.025  0.00  0.00    -0.041 C 
BRANCH  21  22
ATOM     22  C   UNL     1       1.337  -0.424  -0.013  0.00  0.00    -0.024 A 
ATOM     23  C   UNL     1       0.002  -0.004   0.002  0.00  0.00    +0.136 A 
ATOM     24  N   UNL     1      -0.016   1.304   0.009  0.00  0.00    -0.175 NA
ATOM     25  N   UNL     1       1.309   1.761  -0.001  0.00  0.00    -0.240 N 
ATOM     26  C   UNL     1       2.120   0.679  -0.015  0.00  0.00    +0.116 A 
BRANCH  25  27
ATOM     27  C   UNL     1       1.720   3.101   0.002  0.00  0.00    +0.065 A 
ATOM     28  C   UNL     1       3.073   3.413  -0.004  0.00  0.00    +0.028 A 
ATOM     29  C   UNL     1       3.475   4.735  -0.006  0.00  0.00    +0.002 A 
ATOM     30  C   UNL     1       2.532   5.746   0.010  0.00  0.00    +0.000 A 
ATOM     31  C   UNL     1       1.184   5.438   0.021  0.00  0.00    +0.002 A 
ATOM     32  C   UNL     1       0.775   4.118   0.017  0.00  0.00    +0.028 A 
ENDBRANCH  25  27
ENDBRANCH  21  22
ENDBRANCH  17  21
ENDBRANCH   1  17
TORSDOF 6
