REMARK  Name = ZINC06999952
REMARK  11 active torsions:
REMARK  status: ('A' for Active; 'I' for Inactive)
REMARK    1  A    between atoms: C_1  and  C_2
REMARK    2  A    between atoms: C_5  and  C_30
REMARK    3  A    between atoms: C_6  and  N_8
REMARK    4  A    between atoms: C_9  and  C_11
REMARK    5  A    between atoms: C_12  and  N_29
REMARK    6  A    between atoms: N_13  and  C_16
REMARK    7  A    between atoms: C_16  and  C_17
REMARK    8  A    between atoms: N_19  and  C_20
REMARK    9  A    between atoms: C_23  and  C_26
REMARK   10  A    between atoms: C_26  and  C_27
REMARK   11  A    between atoms: C_26  and  C_28
REMARK                            x       y       z     vdW  Elec       q    Type
REMARK                         _______ _______ _______ _____ _____    ______ ____
ROOT
ATOM      1  C   UNL     1       0.148  -0.562  -4.915  0.00  0.00    +0.188 A 
ATOM      2  C   UNL     1       0.286  -0.936  -6.245  0.00  0.00    +0.148 A 
ATOM      3  N   UNL     1       0.271   0.208  -6.968  0.00  0.00    -0.222 N 
ATOM      4  N   UNL     1       0.123   1.263  -6.057  0.00  0.00    -0.063 NA
ATOM      5  N   UNL     1       0.049   0.780  -4.867  0.00  0.00    -0.123 NA
ENDROOT
BRANCH   1   7
ATOM      6  N   UNL     1      -0.028  -0.975  -2.517  0.00  0.00    -0.280 N 
ATOM      7  C   UNL     1       0.111  -1.471  -3.762  0.00  0.00    +0.272 C 
ATOM      8  O   UNL     1       0.205  -2.672  -3.932  0.00  0.00    -0.268 OA
ATOM      9  H   UNL     1      -0.181  -0.026  -2.387  0.00  0.00    +0.155 HD
BRANCH   6  15
ATOM     10  C   UNL     1       1.416  -5.248  -0.563  0.00  0.00    +0.044 C 
ATOM     11  C   UNL     1       0.743  -3.906  -0.436  0.00  0.00    -0.049 A 
ATOM     12  C   UNL     1       0.196  -3.519   0.774  0.00  0.00    +0.004 A 
ATOM     13  C   UNL     1      -0.421  -2.288   0.894  0.00  0.00    +0.005 A 
ATOM     14  C   UNL     1      -0.494  -1.440  -0.194  0.00  0.00    -0.029 A 
ATOM     15  C   UNL     1       0.049  -1.828  -1.412  0.00  0.00    +0.037 A 
ATOM     16  C   UNL     1       0.674  -3.063  -1.528  0.00  0.00    +0.027 A 
ATOM     17  C   UNL     1      -1.169  -0.099  -0.062  0.00  0.00    +0.045 C 
ENDBRANCH   6  15
ENDBRANCH   1   7
BRANCH   2  18
ATOM     18  N   UNL     1       0.414  -2.220  -6.734  0.00  0.00    -0.341 N 
ATOM     19  H   UNL     1       0.413  -2.974  -6.123  0.00  0.00    +0.144 HD
ATOM     20  H   UNL     1       0.506  -2.370  -7.688  0.00  0.00    +0.144 HD
ENDBRANCH   2  18
BRANCH   3  21
ATOM     21  C   UNL     1       0.387   0.323  -8.424  0.00  0.00    +0.243 C 
BRANCH  21  22
ATOM     22  C   UNL     1      -0.985   0.267  -9.043  0.00  0.00    +0.239 C 
ATOM     23  O   UNL     1      -1.964   0.144  -8.338  0.00  0.00    -0.273 OA
ATOM     24  N   UNL     1      -1.125   0.354 -10.381  0.00  0.00    -0.284 N 
ATOM     25  H   UNL     1      -0.340   0.375 -10.950  0.00  0.00    +0.155 HD
BRANCH  24  26
ATOM     26  C   UNL     1      -2.402   0.414 -10.949  0.00  0.00    +0.033 A 
ATOM     27  C   UNL     1      -2.639  -0.160 -12.191  0.00  0.00    +0.023 A 
ATOM     28  C   UNL     1      -3.903  -0.104 -12.746  0.00  0.00    +0.006 A 
ATOM     29  C   UNL     1      -4.928   0.533 -12.072  0.00  0.00    -0.045 A 
ATOM     30  C   UNL     1      -4.694   1.111 -10.837  0.00  0.00    +0.006 A 
ATOM     31  C   UNL     1      -3.434   1.052 -10.274  0.00  0.00    +0.023 A 
BRANCH  29  32
ATOM     32  C   UNL     1      -6.304   0.597 -12.683  0.00  0.00    +0.013 C 
ATOM     33  C   UNL     1      -6.233   1.330 -14.024  0.00  0.00    +0.012 C 
ATOM     34  C   UNL     1      -6.831  -0.822 -12.904  0.00  0.00    +0.012 C 
ENDBRANCH  29  32
ENDBRANCH  24  26
ENDBRANCH  21  22
ENDBRANCH   3  21
TORSDOF 7
