REMARK  Name = ZINC44954763
REMARK  6 active torsions:
REMARK  status: ('A' for Active; 'I' for Inactive)
REMARK    1  A    between atoms: C_7  and  N_12
REMARK    2  A    between atoms: N_15  and  C_16
REMARK    3  A    between atoms: C_16  and  C_17
REMARK    4  A    between atoms: C_17  and  C_19
REMARK    5  A    between atoms: C_17  and  O_26
REMARK    6  A    between atoms: C_19  and  N_20
REMARK                            x       y       z     vdW  Elec       q    Type
REMARK                         _______ _______ _______ _____ _____    ______ ____
ROOT
ATOM      1  N   UNL     1      -0.048  -2.624   0.725  0.00  0.00    -0.293 N 
ATOM      2  C   UNL     1      -1.274  -2.646   0.167  0.00  0.00    +0.300 C 
ATOM      3  O   UNL     1      -1.420  -2.316  -0.994  0.00  0.00    -0.253 OA
ATOM      4  N   UNL     1      -2.339  -3.035   0.896  0.00  0.00    -0.297 N 
ATOM      5  H   UNL     1       0.069  -2.888   1.651  0.00  0.00    +0.151 HD
ATOM      6  H   UNL     1      -2.223  -3.298   1.822  0.00  0.00    +0.150 HD
ENDROOT
BRANCH   1  13
ATOM      7  C   UNL     1      -0.017   1.374   0.010  0.00  0.00    +0.000 A 
ATOM      8  C   UNL     1       1.171   2.083   0.002  0.00  0.00    +0.001 A 
ATOM      9  C   UNL     1       2.369   1.401  -0.004  0.00  0.00    +0.015 A 
ATOM     10  C   UNL     1       2.390   0.006  -0.010  0.00  0.00    +0.013 A 
ATOM     11  C   UNL     1       1.206  -0.705  -0.017  0.00  0.00    -0.014 A 
ATOM     12  C   UNL     1       0.002  -0.004   0.002  0.00  0.00    +0.006 A 
ATOM     13  C   UNL     1       1.110  -2.202  -0.068  0.00  0.00    +0.107 C 
ATOM     14  C   UNL     1       2.343  -2.911   0.464  0.00  0.00    +0.038 C 
ATOM     15  C   UNL     1       3.555  -2.522  -0.395  0.00  0.00    +0.076 C 
ATOM     16  S   UNL     1       3.963  -0.796   0.002  0.00  0.00    -0.125 S 
ENDBRANCH   1  13
BRANCH   4  17
ATOM     17  C   UNL     1      -3.672  -3.059   0.289  0.00  0.00    +0.135 C 
BRANCH  17  18
ATOM     18  C   UNL     1      -4.695  -3.534   1.324  0.00  0.00    +0.115 C 
BRANCH  18  19
ATOM     19  O   UNL     1      -4.779  -2.579   2.384  0.00  0.00    -0.392 OA
ATOM     20  H   UNL     1      -5.051  -1.696   2.097  0.00  0.00    +0.210 HD
ENDBRANCH  18  19
BRANCH  18  21
ATOM     21  C   UNL     1      -6.065  -3.678   0.658  0.00  0.00    -0.046 C 
BRANCH  21  22
ATOM     22  N   UNL     1      -7.046  -4.134   1.651  0.00  0.00    +0.381 N 
ATOM     23  C   UNL     1      -6.685  -5.480   2.112  0.00  0.00    -0.079 C 
ATOM     24  C   UNL     1      -7.657  -5.927   3.205  0.00  0.00    -0.019 C 
ATOM     25  C   UNL     1      -9.080  -5.944   2.640  0.00  0.00    -0.004 C 
ATOM     26  C   UNL     1      -9.419  -4.554   2.095  0.00  0.00    -0.019 C 
ATOM     27  C   UNL     1      -8.382  -4.158   1.042  0.00  0.00    -0.079 C 
ATOM     28  H   UNL     1      -7.047  -3.501   2.437  0.00  0.00    -0.082 HD
ENDBRANCH  21  22
ENDBRANCH  18  21
ENDBRANCH  17  18
ENDBRANCH   4  17
TORSDOF 6
