REMARK  Name = ZINC64684588
REMARK  10 active torsions:
REMARK  status: ('A' for Active; 'I' for Inactive)
REMARK    1  A    between atoms: C_1  and  C_2
REMARK    2  A    between atoms: C_7  and  C_8
REMARK    3  A    between atoms: C_12  and  S_15
REMARK    4  A    between atoms: N_13  and  C_14
REMARK    5  A    between atoms: S_15  and  C_16
REMARK    6  A    between atoms: C_16  and  C_17
REMARK    7  A    between atoms: N_19  and  CA_20
REMARK    8  A    between atoms: CA_20  and  CB_22
REMARK    9  A    between atoms: CA_20  and  C_32
REMARK   10  A    between atoms: CB_22  and  CG_23
REMARK                            x       y       z     vdW  Elec       q    Type
REMARK                         _______ _______ _______ _____ _____    ______ ____
ROOT
ATOM      1  C   UNK A   0       5.570   1.269   5.713  0.00  0.00    +0.224 C 
ATOM      2  O   UNK A   0       5.650   0.261   6.382  0.00  0.00    -0.275 OA
ATOM      3  N   TRP A   1       6.512   2.226   5.821  0.00  0.00    -0.301 N 
ATOM      4  H   TRP A   1       6.448   3.032   5.285  0.00  0.00    +0.150 HD
ENDROOT
BRANCH   1   5
ATOM      5  C   UNK A   0       4.416   1.451   4.761  0.00  0.00    +0.172 C 
BRANCH   5   6
ATOM      6  S   UNK A   0       3.328   0.003   4.844  0.00  0.00    -0.080 S 
BRANCH   6  10
ATOM      7  C   UNK A   0       0.151   0.196   2.411  0.00  0.00    +0.208 C 
ATOM      8  N   UNK A   0       0.861   1.462   2.160  0.00  0.00    -0.242 N 
ATOM      9  N   UNK A   0       1.988   1.448   2.991  0.00  0.00    -0.162 NA
ATOM     10  C   UNK A   0       2.046   0.365   3.690  0.00  0.00    +0.175 C 
ATOM     11  N   UNK A   0       0.976  -0.482   3.425  0.00  0.00    -0.288 N 
ATOM     12  C   UNK A   0       0.718  -1.789   4.033  0.00  0.00    +0.133 C 
ATOM     13  H   UNK A   0       0.601   2.164   1.544  0.00  0.00    +0.170 HD
BRANCH   7  20
ATOM     14  C   UNK A   0      -2.104   0.476   0.626  0.00  0.00    +0.044 C 
ATOM     15  C   UNK A   0      -0.999  -0.494   0.297  0.00  0.00    -0.044 A 
ATOM     16  C   UNK A   0      -1.061  -1.246  -0.861  0.00  0.00    +0.004 A 
ATOM     17  C   UNK A   0      -0.048  -2.136  -1.163  0.00  0.00    +0.000 A 
ATOM     18  C   UNK A   0       1.029  -2.274  -0.306  0.00  0.00    +0.000 A 
ATOM     19  C   UNK A   0       1.092  -1.522   0.851  0.00  0.00    +0.007 A 
ATOM     20  C   UNK A   0       0.080  -0.628   1.151  0.00  0.00    -0.005 A 
ENDBRANCH   7  20
ENDBRANCH   6  10
ENDBRANCH   5   6
ENDBRANCH   1   5
BRANCH   3  21
ATOM     21  CA  TRP A   1       7.634   2.048   6.747  0.00  0.00    +0.190 C 
BRANCH  21  22
ATOM     22  C   TRP A   1       7.224   2.499   8.125  0.00  0.00    +0.376 C 
ATOM     23  O   TRP A   1       7.720   1.979   9.109  0.00  0.00    -0.244 OA
ATOM     24  OXT TRP A   1       6.396   3.385   8.255  0.00  0.00    -0.244 OA
ENDBRANCH  21  22
BRANCH  21  25
ATOM     25  CB  TRP A   1       8.825   2.882   6.270  0.00  0.00    +0.067 C 
BRANCH  25  26
ATOM     26  CG  TRP A   1       9.313   2.351   4.947  0.00  0.00    -0.039 C 
ATOM     27  CD2 TRP A   1       8.976   2.800   3.716  0.00  0.00    -0.001 A 
ATOM     28  CE3 TRP A   1       8.087   3.876   3.260  0.00  0.00    +0.010 A 
ATOM     29  CZ3 TRP A   1       7.947   4.091   1.932  0.00  0.00    +0.001 A 
ATOM     30  CH2 TRP A   1       8.628   3.316   0.983  0.00  0.00    +0.002 A 
ATOM     31  CZ2 TRP A   1       9.462   2.311   1.326  0.00  0.00    +0.026 A 
ATOM     32  CE2 TRP A   1       9.684   1.996   2.695  0.00  0.00    +0.043 A 
ATOM     33  NE1 TRP A   1      10.430   1.085   3.272  0.00  0.00    -0.380 N 
ATOM     34  CD1 TRP A   1      10.284   1.213   4.726  0.00  0.00    +0.144 C 
ATOM     35  HE1 TRP A   1      10.988   0.438   2.813  0.00  0.00    +0.160 HD
ENDBRANCH  25  26
ENDBRANCH  21  25
ENDBRANCH   3  21
TORSDOF 8
