REMARK  Name = ZINC65010723
REMARK  7 active torsions:
REMARK  status: ('A' for Active; 'I' for Inactive)
REMARK    1  A    between atoms: C_1  and  C_2
REMARK    2  A    between atoms: C_5  and  C_30
REMARK    3  A    between atoms: C_6  and  C_22
REMARK    4  A    between atoms: C_9  and  S_12
REMARK    5  A    between atoms: C_10  and  C_11
REMARK    6  A    between atoms: S_12  and  N_15
REMARK    7  A    between atoms: N_15  and  C_16
REMARK                            x       y       z     vdW  Elec       q    Type
REMARK                         _______ _______ _______ _____ _____    ______ ____
ROOT
ATOM      1  C   UNL     1      -0.326   3.166   1.907  0.00  0.00    +0.044 C 
ATOM      2  C   UNL     1       0.104   1.846   1.322  0.00  0.00    -0.045 A 
ATOM      3  C   UNL     1       0.733   1.814   0.108  0.00  0.00    +0.015 A 
ATOM      4  C   UNL     1       1.131   0.590  -0.433  0.00  0.00    +0.026 A 
ATOM      5  C   UNL     1       1.807   0.193  -1.668  0.00  0.00    +0.008 A 
ATOM      6  C   UNL     1       1.915  -1.160  -1.619  0.00  0.00    +0.194 A 
ATOM      7  O   UNL     1       1.369  -1.620  -0.474  0.00  0.00    -0.448 OA
ATOM      8  C   UNL     1       0.886  -0.605   0.269  0.00  0.00    +0.163 A 
ATOM      9  C   UNL     1       0.246  -0.548   1.501  0.00  0.00    +0.154 A 
ATOM     10  C   UNL     1      -0.135   0.671   2.020  0.00  0.00    -0.017 A 
ATOM     11  C   UNL     1      -0.824   0.727   3.360  0.00  0.00    +0.046 C 
ATOM     12  C   UNL     1       2.286   1.102  -2.771  0.00  0.00    +0.048 C 
ENDROOT
BRANCH   6  13
ATOM     13  C   UNL     1       2.533  -1.996  -2.658  0.00  0.00    +0.282 C 
ATOM     14  O   UNL     1       2.911  -1.493  -3.699  0.00  0.00    -0.267 OA
ATOM     15  N   UNL     1       2.679  -3.321  -2.457  0.00  0.00    -0.295 N 
ATOM     16  C   UNL     1       3.353  -4.160  -3.458  0.00  0.00    +0.108 C 
ATOM     17  C   UNL     1       4.478  -4.940  -2.771  0.00  0.00    +0.019 C 
ATOM     18  C   UNL     1       3.904  -5.716  -1.584  0.00  0.00    +0.003 C 
ATOM     19  C   UNL     1       3.308  -4.736  -0.571  0.00  0.00    +0.019 C 
ATOM     20  C   UNL     1       2.175  -3.953  -1.230  0.00  0.00    +0.108 C 
ENDBRANCH   6  13
BRANCH   9  21
ATOM     21  S   UNL     1      -0.073  -2.030   2.400  0.00  0.00    +0.076 S 
ATOM     22  O   UNL     1      -1.295  -1.827   3.096  0.00  0.00    -0.150 OA
ATOM     23  O   UNL     1       0.118  -3.105   1.491  0.00  0.00    -0.150 OA
BRANCH  21  24
ATOM     24  N   UNL     1       1.110  -2.167   3.551  0.00  0.00    -0.216 N 
ATOM     25  H   UNL     1       0.886  -2.067   4.490  0.00  0.00    +0.174 HD
BRANCH  24  26
ATOM     26  C   UNL     1       2.428  -2.428   3.171  0.00  0.00    +0.048 A 
ATOM     27  C   UNL     1       2.788  -3.696   2.731  0.00  0.00    +0.024 A 
ATOM     28  C   UNL     1       4.092  -3.950   2.355  0.00  0.00    +0.002 A 
ATOM     29  C   UNL     1       5.040  -2.944   2.416  0.00  0.00    +0.000 A 
ATOM     30  C   UNL     1       4.685  -1.681   2.853  0.00  0.00    +0.002 A 
ATOM     31  C   UNL     1       3.381  -1.419   3.226  0.00  0.00    +0.024 A 
ENDBRANCH  24  26
ENDBRANCH  21  24
ENDBRANCH   9  21
TORSDOF 4
