REMARK  Name = ZINC11978858
REMARK  9 active torsions:
REMARK  status: ('A' for Active; 'I' for Inactive)
REMARK    1  A    between atoms: C_1  and  C_2
REMARK    2  A    between atoms: C_2  and  C_3
REMARK    3  A    between atoms: C_3  and  C_20
REMARK    4  A    between atoms: N_6  and  C_10
REMARK    5  A    between atoms: C_10  and  C_11
REMARK    6  A    between atoms: C_25  and  C_26
REMARK    7  A    between atoms: C_25  and  N_67
REMARK    8  A    between atoms: C_28  and  C_33
REMARK    9  A    between atoms: C_31  and  C_32
REMARK                            x       y       z     vdW  Elec       q    Type
REMARK                         _______ _______ _______ _____ _____    ______ ____
ROOT
ATOM      1  C   UNL     1      -0.745   2.326  -1.032  0.00  0.00    +0.115 C 
ATOM      2  C   UNL     1      -2.155   1.780  -1.122  0.00  0.00    +0.247 C 
ATOM      3  O   UNL     1      -3.039   1.894  -0.300  0.00  0.00    -0.273 OA
ATOM      4  N   UNL     1      -2.224   1.141  -2.307  0.00  0.00    -0.220 N 
ATOM      5  C   UNL     1      -1.064   1.207  -2.971  0.00  0.00    +0.310 C 
ATOM      6  O   UNL     1      -0.881   0.706  -4.063  0.00  0.00    -0.252 OA
ATOM      7  N   UNL     1      -0.121   1.895  -2.295  0.00  0.00    -0.285 N 
ATOM      8  H   UNL     1       0.789   2.071  -2.582  0.00  0.00    +0.151 HD
ENDROOT
BRANCH   1   9
ATOM      9  C   UNL     1      -0.009   1.723   0.166  0.00  0.00    +0.018 C 
ATOM     10  C   UNL     1       1.436   2.231   0.188  0.00  0.00    -0.013 C 
ATOM     11  C   UNL     1       2.183   1.577   1.352  0.00  0.00    -0.078 C 
ATOM     12  C   UNL     1       0.787  -0.399   1.214  0.00  0.00    -0.078 C 
ATOM     13  C   UNL     1      -0.003   0.196   0.046  0.00  0.00    -0.013 C 
ATOM     14  N   UNL     1       2.174   0.110   1.165  0.00  0.00    +0.382 N 
ATOM     15  H   UNL     1       2.577  -0.111   0.247  0.00  0.00    -0.081 HD
BRANCH  14  16
ATOM     16  C   UNL     1       2.987  -0.537   2.215  0.00  0.00    -0.043 C 
BRANCH  16  17
ATOM     17  C   UNL     1       4.444  -0.284   1.923  0.00  0.00    -0.061 A 
ATOM     18  C   UNL     1       5.157   0.613   2.696  0.00  0.00    +0.005 A 
ATOM     19  C   UNL     1       6.493   0.846   2.428  0.00  0.00    -0.050 A 
ATOM     20  C   UNL     1       7.116   0.181   1.388  0.00  0.00    +0.003 A 
ATOM     21  C   UNL     1       6.403  -0.718   0.617  0.00  0.00    +0.004 A 
ATOM     22  C   UNL     1       5.067  -0.953   0.887  0.00  0.00    -0.049 A 
ATOM     23  C   UNL     1       4.291  -1.936   0.049  0.00  0.00    +0.044 C 
ATOM     24  C   UNL     1       7.271   1.825   3.269  0.00  0.00    +0.044 C 
ENDBRANCH  16  17
ENDBRANCH  14  16
ENDBRANCH   1   9
BRANCH   1  26
ATOM     25  C   UNL     1      -1.505   4.431  -2.144  0.00  0.00    +0.006 C 
ATOM     26  C   UNL     1      -0.764   3.853  -0.936  0.00  0.00    +0.032 C 
ENDBRANCH   1  26
BRANCH   4  27
ATOM     27  C   UNL     1      -3.420   0.458  -2.806  0.00  0.00    +0.153 C 
BRANCH  27  28
ATOM     28  C   UNL     1      -4.256   1.427  -3.602  0.00  0.00    -0.026 A 
ATOM     29  C   UNL     1      -4.047   1.563  -4.962  0.00  0.00    +0.009 A 
ATOM     30  C   UNL     1      -4.812   2.451  -5.696  0.00  0.00    +0.050 A 
ATOM     31  C   UNL     1      -5.790   3.206  -5.070  0.00  0.00    +0.166 A 
ATOM     32  C   UNL     1      -6.000   3.069  -3.700  0.00  0.00    +0.167 A 
ATOM     33  C   UNL     1      -5.233   2.174  -2.971  0.00  0.00    +0.054 A 
ATOM     34  O   UNL     1      -7.006   3.912  -3.327  0.00  0.00    -0.453 OA
ATOM     35  C   UNL     1      -7.133   4.861  -4.403  0.00  0.00    +0.466 C 
ATOM     36  O   UNL     1      -6.665   4.135  -5.555  0.00  0.00    -0.453 OA
ENDBRANCH  27  28
ENDBRANCH   4  27
TORSDOF 6
