REMARK  Name = ZINC39429857
REMARK  8 active torsions:
REMARK  status: ('A' for Active; 'I' for Inactive)
REMARK    1  A    between atoms: C_1  and  C_2
REMARK    2  A    between atoms: C_6  and  C_30
REMARK    3  A    between atoms: C_7  and  O_8
REMARK    4  A    between atoms: O_8  and  C_9
REMARK    5  A    between atoms: C_9  and  C_10
REMARK    6  A    between atoms: C_12  and  C_16
REMARK    7  A    between atoms: N_18  and  C_19
REMARK    8  A    between atoms: C_19  and  C_20
REMARK                            x       y       z     vdW  Elec       q    Type
REMARK                         _______ _______ _______ _____ _____    ______ ____
ROOT
ATOM      1  C   UNL     1      -1.046   1.011   4.254  0.00  0.00    +0.161 C 
ATOM      2  C   UNL     1      -1.427   2.254   4.455  0.00  0.00    +0.051 C 
ATOM      3  C   UNL     1      -1.060   2.631   5.877  0.00  0.00    +0.204 C 
ATOM      4  N   UNL     1      -0.805   1.310   6.508  0.00  0.00    -0.140 NA
ATOM      5  O   UNL     1      -0.458   0.471   5.349  0.00  0.00    -0.407 OA
ATOM      6  H   UNL     1      -0.038   1.364   7.161  0.00  0.00    +0.168 HD
ENDROOT
BRANCH   3   7
ATOM      7  C   UNL     1       0.179   3.488   5.901  0.00  0.00    +0.238 C 
ATOM      8  O   UNL     1       1.254   2.993   6.166  0.00  0.00    -0.274 OA
ATOM      9  N   UNL     1       0.093   4.805   5.627  0.00  0.00    -0.308 N 
ATOM     10  H   UNL     1      -0.766   5.201   5.414  0.00  0.00    +0.149 HD
BRANCH   9  11
ATOM     11  C   UNL     1       1.298   5.638   5.649  0.00  0.00    +0.157 C 
BRANCH  11  12
ATOM     12  C   UNL     1       0.933   7.060   5.311  0.00  0.00    +0.034 A 
ATOM     13  H   UNL     1       0.969   7.056   3.228  0.00  0.00    +0.166 HD
ATOM     14  C   UNL     1       0.672   8.023   6.209  0.00  0.00    +0.032 A 
ATOM     15  C   UNL     1       0.364   9.240   5.454  0.00  0.00    -0.000 A 
ATOM     16  C   UNL     1       0.021  10.545   5.814  0.00  0.00    +0.010 A 
ATOM     17  C   UNL     1      -0.210  11.478   4.843  0.00  0.00    +0.001 A 
ATOM     18  C   UNL     1      -0.106  11.140   3.501  0.00  0.00    +0.002 A 
ATOM     19  C   UNL     1       0.231   9.858   3.123  0.00  0.00    +0.026 A 
ATOM     20  C   UNL     1       0.470   8.892   4.095  0.00  0.00    +0.047 A 
ATOM     21  N   UNL     1       0.823   7.562   4.043  0.00  0.00    -0.357 N 
ENDBRANCH  11  12
ENDBRANCH   9  11
ENDBRANCH   3   7
BRANCH   1  22
ATOM     22  C   UNL     1      -1.246   0.270   2.957  0.00  0.00    +0.304 C 
BRANCH  22  23
ATOM     23  O   UNL     1       0.025  -0.033   2.381  0.00  0.00    -0.484 OA
BRANCH  23  30
ATOM     24  C   UNL     1      -0.018   1.503   0.010  0.00  0.00    +0.047 C 
ATOM     25  C   UNL     1       0.002  -0.004   0.002  0.00  0.00    -0.009 A 
ATOM     26  C   UNL     1       0.006  -0.689  -1.198  0.00  0.00    +0.007 A 
ATOM     27  C   UNL     1       0.024  -2.071  -1.206  0.00  0.00    +0.001 A 
ATOM     28  C   UNL     1       0.040  -2.772  -0.014  0.00  0.00    +0.007 A 
ATOM     29  C   UNL     1       0.036  -2.092   1.188  0.00  0.00    -0.009 A 
ATOM     30  C   UNL     1       0.023  -0.705   1.199  0.00  0.00    +0.127 A 
ATOM     31  C   UNL     1       0.052  -2.856   2.487  0.00  0.00    +0.047 C 
ENDBRANCH  23  30
ENDBRANCH  22  23
ENDBRANCH   1  22
TORSDOF 6
