REMARK  Name = ZINC01073819
REMARK  9 active torsions:
REMARK  status: ('A' for Active; 'I' for Inactive)
REMARK    1  A    between atoms: C_1  and  N_2
REMARK    2  A    between atoms: C_9  and  C_21
REMARK    3  A    between atoms: C_11  and  C_19
REMARK    4  A    between atoms: C_12  and  N_18
REMARK    5  A    between atoms: C_13  and  C_14
REMARK    6  A    between atoms: C_13  and  C_16
REMARK    7  A    between atoms: C_24  and  C_27
REMARK    8  A    between atoms: C_27  and  O_29
REMARK    9  A    between atoms: O_29  and  C_30
REMARK                            x       y       z     vdW  Elec       q    Type
REMARK                         _______ _______ _______ _____ _____    ______ ____
ROOT
ATOM      1  C   UNL     1       0.579  -0.838  -4.772  0.00  0.00    +0.105 C 
ATOM      2  N   UNL     1      -0.131  -1.205  -3.539  0.00  0.00    -0.301 NA
ATOM      3  C   UNL     1       0.247  -2.556  -3.094  0.00  0.00    +0.111 C 
ATOM      4  C   UNL     1      -0.571  -2.898  -1.878  0.00  0.00    -0.009 C 
ATOM      5  C   UNL     1      -1.008  -1.979  -1.069  0.00  0.00    -0.028 C 
ATOM      6  C   UNL     1      -0.727  -0.511  -1.248  0.00  0.00    +0.044 C 
ATOM      7  C   UNL     1       0.130  -0.233  -2.474  0.00  0.00    +0.093 C 
ATOM      8  C   UNL     1       0.002  -0.004   0.002  0.00  0.00    +0.069 C 
ATOM      9  C   UNL     1      -0.655  -0.512   1.248  0.00  0.00    +0.057 C 
ATOM     10  C   UNL     1      -1.464  -1.567   1.311  0.00  0.00    +0.054 C 
ATOM     11  C   UNL     1      -1.866  -2.382   0.115  0.00  0.00    +0.202 C 
ENDROOT
BRANCH   8  12
ATOM     12  C   UNL     1      -0.018   1.503   0.010  0.00  0.00    -0.039 A 
ATOM     13  C   UNL     1      -1.228   2.175   0.020  0.00  0.00    +0.005 A 
ATOM     14  C   UNL     1      -1.254   3.554   0.033  0.00  0.00    +0.015 A 
ATOM     15  C   UNL     1      -0.056   4.272   0.025  0.00  0.00    +0.059 A 
ATOM     16  C   UNL     1       1.161   3.587   0.010  0.00  0.00    +0.015 A 
ATOM     17  C   UNL     1       1.172   2.208   0.003  0.00  0.00    +0.005 A 
BRANCH  15  18
ATOM     18  C   UNL     1      -0.076   5.749   0.032  0.00  0.00    +0.339 C 
ATOM     19  O   UNL     1       0.968   6.371   0.025  0.00  0.00    -0.245 OA
BRANCH  18  20
ATOM     20  O   UNL     1      -1.252   6.407   0.047  0.00  0.00    -0.464 OA
ATOM     21  C   UNL     1      -1.195   7.857   0.053  0.00  0.00    +0.280 C 
ENDBRANCH  18  20
ENDBRANCH  15  18
ENDBRANCH   8  12
BRANCH  10  22
ATOM     22  N   UNL     1      -1.957  -1.931   2.537  0.00  0.00    -0.358 N 
ATOM     23  H   UNL     1      -2.628  -2.798   2.625  0.00  0.00    +0.142 HD
ATOM     24  H   UNL     1      -1.682  -1.355   3.434  0.00  0.00    +0.142 HD
ENDBRANCH  10  22
BRANCH  11  25
ATOM     25  C   UNL     1      -3.283  -2.133  -0.197  0.00  0.00    +0.095 C 
ATOM     26  N   UNL     1      -4.377  -1.941  -0.438  0.00  0.00    -0.194 NA
ENDBRANCH  11  25
BRANCH  11  27
ATOM     27  C   UNL     1      -1.669  -3.812   0.402  0.00  0.00    +0.095 C 
ATOM     28  N   UNL     1      -1.517  -4.916   0.623  0.00  0.00    -0.194 NA
ENDBRANCH  11  27
BRANCH   9  29
ATOM     29  C   UNL     1      -0.393   0.193   2.466  0.00  0.00    +0.097 C 
ATOM     30  N   UNL     1      -0.185   0.752   3.433  0.00  0.00    -0.191 NA
ENDBRANCH   9  29
TORSDOF 7
