REMARK  Name = ZINC12158501
REMARK  4 active torsions:
REMARK  status: ('A' for Active; 'I' for Inactive)
REMARK    1  A    between atoms: C_7  and  C_12
REMARK    2  A    between atoms: C_12  and  C_13
REMARK    3  A    between atoms: C_17  and  C_24
REMARK    4  A    between atoms: C_19  and  C_22
REMARK                            x       y       z     vdW  Elec       q    Type
REMARK                         _______ _______ _______ _____ _____    ______ ____
ROOT
ATOM      1  C   UNL     1       2.101   1.704   3.514  0.00  0.00    +0.218 C 
ATOM      2  O   UNL     1       2.853   0.953   4.099  0.00  0.00    -0.276 OA
ATOM      3  N   UNL     1       2.247   1.907   2.190  0.00  0.00    -0.300 N 
ATOM      4  C   UNL     1       3.256   1.310   1.284  0.00  0.00    +0.116 C 
ATOM      5  C   UNL     1       2.481   1.007  -0.016  0.00  0.00    +0.052 C 
ATOM      6  C   UNL     1       1.280   1.975   0.000  0.00  0.00    +0.128 C 
ATOM      7  C   UNL     1       1.435   2.779   1.310  0.00  0.00    +0.123 C 
ENDROOT
BRANCH   5   8
ATOM      8  C   UNL     1       3.351   1.272  -1.218  0.00  0.00    -0.042 A 
ATOM      9  C   UNL     1       3.932   2.514  -1.390  0.00  0.00    +0.007 A 
ATOM     10  C   UNL     1       4.734   2.756  -2.489  0.00  0.00    +0.038 A 
ATOM     11  C   UNL     1       4.948   1.757  -3.423  0.00  0.00    +0.123 A 
ATOM     12  C   UNL     1       4.361   0.515  -3.253  0.00  0.00    +0.038 A 
ATOM     13  C   UNL     1       3.563   0.273  -2.151  0.00  0.00    +0.007 A 
ATOM     14  F   UNL     1       5.727   1.994  -4.501  0.00  0.00    -0.205 F 
ENDBRANCH   5   8
BRANCH   6  15
ATOM     15  C   UNL     1      -0.014   1.204   0.009  0.00  0.00    +0.361 C 
ATOM     16  O   UNL     1       0.002  -0.004   0.002  0.00  0.00    -0.246 OA
ATOM     17  O   UNL     1      -1.186   1.859   0.018  0.00  0.00    -0.246 OA
ENDBRANCH   6  15
BRANCH   1  18
ATOM     18  C   UNL     1       1.004   2.409   4.269  0.00  0.00    +0.123 C 
BRANCH  18  25
ATOM     19  C   UNL     1      -2.287   3.227   7.230  0.00  0.00    +0.000 A 
ATOM     20  C   UNL     1      -1.742   4.043   8.206  0.00  0.00    +0.001 A 
ATOM     21  C   UNL     1      -0.373   4.158   8.333  0.00  0.00    +0.013 A 
ATOM     22  C   UNL     1       0.466   3.446   7.474  0.00  0.00    +0.042 A 
ATOM     23  C   UNL     1      -0.095   2.625   6.493  0.00  0.00    -0.015 A 
ATOM     24  C   UNL     1      -1.461   2.518   6.375  0.00  0.00    +0.006 A 
ATOM     25  C   UNL     1       1.059   2.007   5.744  0.00  0.00    +0.113 C 
ATOM     26  N   UNL     1       2.281   2.530   6.364  0.00  0.00    -0.304 N 
ATOM     27  C   UNL     1       1.935   3.363   7.363  0.00  0.00    +0.245 C 
ATOM     28  O   UNL     1       2.720   3.960   8.073  0.00  0.00    -0.270 OA
ATOM     29  H   UNL     1       3.188   2.312   6.098  0.00  0.00    +0.150 HD
ENDBRANCH  18  25
ENDBRANCH   1  18
TORSDOF 4
