REMARK  Name = ZINC19926186
REMARK  11 active torsions:
REMARK  status: ('A' for Active; 'I' for Inactive)
REMARK    1  A    between atoms: C_4  and  C_7
REMARK    2  A    between atoms: C_7  and  O_8
REMARK    3  A    between atoms: O_8  and  C_9
REMARK    4  A    between atoms: C_11  and  N_24
REMARK    5  A    between atoms: C_13  and  O_23
REMARK    6  A    between atoms: C_15  and  O_22
REMARK    7  A    between atoms: C_17  and  C_20
REMARK    8  A    between atoms: C_20  and  O_21
REMARK    9  A    between atoms: N_24  and  C_25
REMARK   10  A    between atoms: C_28  and  N_34
REMARK   11  A    between atoms: C_30  and  N_31
REMARK                            x       y       z     vdW  Elec       q    Type
REMARK                         _______ _______ _______ _____ _____    ______ ____
ROOT
ATOM      1  C   UNL     1       4.160   0.103  -1.424  0.00  0.00    +0.274 C 
ATOM      2  C   UNL     1       4.587   0.148  -2.894  0.00  0.00    +0.158 C 
ATOM      3  C   UNL     1       3.541  -0.581  -3.743  0.00  0.00    +0.170 C 
ATOM      4  C   UNL     1       3.387  -2.014  -3.226  0.00  0.00    +0.176 C 
ATOM      5  C   UNL     1       3.007  -1.976  -1.743  0.00  0.00    +0.178 C 
ATOM      6  O   UNL     1       4.006  -1.258  -1.016  0.00  0.00    -0.341 OA
ENDROOT
BRANCH   4   7
ATOM      7  O   UNL     1       2.362  -2.682  -3.964  0.00  0.00    -0.387 OA
ATOM      8  H   UNL     1       2.108  -3.727  -3.733  0.00  0.00    +0.210 HD
ENDBRANCH   4   7
BRANCH   3   9
ATOM      9  O   UNL     1       3.967  -0.608  -5.107  0.00  0.00    -0.387 OA
ATOM     10  H   UNL     1       3.340  -1.093  -5.870  0.00  0.00    +0.210 HD
ENDBRANCH   3   9
BRANCH   2  11
ATOM     11  N   UNL     1       5.886  -0.511  -3.047  0.00  0.00    -0.332 N 
ATOM     12  H   UNL     1       5.935  -1.571  -3.338  0.00  0.00    +0.147 HD
BRANCH  11  13
ATOM     13  C   UNL     1       7.064   0.207  -2.823  0.00  0.00    +0.058 A 
ATOM     14  C   UNL     1       7.009   1.572  -2.568  0.00  0.00    +0.027 A 
ATOM     15  C   UNL     1       8.175   2.278  -2.347  0.00  0.00    +0.034 A 
ATOM     16  C   UNL     1       9.395   1.629  -2.380  0.00  0.00    +0.128 A 
ATOM     17  C   UNL     1       9.453   0.271  -2.633  0.00  0.00    +0.067 A 
ATOM     18  C   UNL     1       8.291  -0.443  -2.850  0.00  0.00    +0.149 A 
BRANCH  18  19
ATOM     19  N   UNL     1       8.353  -1.898  -3.115  0.00  0.00    +0.058 N 
ATOM     20  O   UNL     1       9.416  -2.487  -3.033  0.00  0.00    -0.126 OA
ATOM     21  O   UNL     1       7.341  -2.506  -3.415  0.00  0.00    -0.126 OA
ENDBRANCH  18  19
BRANCH  16  22
ATOM     22  N   UNL     1      10.643   2.389  -2.142  0.00  0.00    +0.056 N 
ATOM     23  O   UNL     1      10.593   3.586  -1.917  0.00  0.00    -0.126 OA
ATOM     24  O   UNL     1      11.719   1.819  -2.170  0.00  0.00    -0.126 OA
ENDBRANCH  16  22
ENDBRANCH  11  13
ENDBRANCH   2  11
BRANCH   1  25
ATOM     25  O   UNL     1       2.918   0.791  -1.267  0.00  0.00    -0.345 OA
BRANCH  25  26
ATOM     26  C   UNL     1       2.540   1.006   0.094  0.00  0.00    +0.198 C 
BRANCH  26  30
ATOM     27  C   UNL     1      -1.194   3.075   0.226  0.00  0.00    +0.000 A 
ATOM     28  C   UNL     1      -1.170   1.693   0.204  0.00  0.00    +0.000 A 
ATOM     29  C   UNL     1       0.038   1.024   0.167  0.00  0.00    +0.006 A 
ATOM     30  C   UNL     1       1.223   1.736   0.141  0.00  0.00    -0.022 A 
ATOM     31  C   UNL     1       1.199   3.118   0.158  0.00  0.00    +0.006 A 
ATOM     32  C   UNL     1      -0.010   3.788   0.201  0.00  0.00    +0.000 A 
ENDBRANCH  26  30
ENDBRANCH  25  26
ENDBRANCH   1  25
BRANCH   5  33
ATOM     33  C   UNL     1       2.911  -3.404  -1.204  0.00  0.00    +0.190 C 
BRANCH  33  34
ATOM     34  O   UNL     1       2.443  -3.373   0.146  0.00  0.00    -0.392 OA
ATOM     35  H   UNL     1       2.310  -4.312   0.704  0.00  0.00    +0.210 HD
ENDBRANCH  33  34
ENDBRANCH   5  33
TORSDOF 11
