REMARK  Name = ZINC35912539
REMARK  10 active torsions:
REMARK  status: ('A' for Active; 'I' for Inactive)
REMARK    1  A    between atoms: C_1  and  C_2
REMARK    2  A    between atoms: C_6  and  C_27
REMARK    3  A    between atoms: C_8  and  N_9
REMARK    4  A    between atoms: N_13  and  S_16
REMARK    5  A    between atoms: S_16  and  C_19
REMARK    6  A    between atoms: C_20  and  C_21
REMARK    7  A    between atoms: C_27  and  C_28
REMARK    8  A    between atoms: C_28  and  C_29
REMARK    9  A    between atoms: C_28  and  C_30
REMARK   10  A    between atoms: N_31  and  C_33
REMARK                            x       y       z     vdW  Elec       q    Type
REMARK                         _______ _______ _______ _____ _____    ______ ____
ROOT
ATOM      1  C   UNL     1       0.398   1.499  -0.055  0.00  0.00    +0.068 C 
ATOM      2  C   UNL     1       0.346  -0.007  -0.052  0.00  0.00    +0.073 A 
ATOM      3  C   UNL     1       0.069  -0.825  -1.169  0.00  0.00    +0.082 A 
ATOM      4  C   UNL     1       0.121  -2.162  -0.725  0.00  0.00    +0.169 A 
ATOM      5  N   UNL     1      -0.107  -3.138  -1.601  0.00  0.00    -0.212 NA
ATOM      6  C   UNL     1      -0.377  -2.863  -2.858  0.00  0.00    +0.134 A 
ATOM      7  N   UNL     1      -0.436  -1.627  -3.320  0.00  0.00    -0.217 NA
ATOM      8  C   UNL     1      -0.223  -0.584  -2.525  0.00  0.00    +0.136 A 
ATOM      9  N   UNL     1       0.418  -2.117   0.608  0.00  0.00    -0.214 N 
ATOM     10  N   UNL     1       0.553  -0.774   0.981  0.00  0.00    -0.169 NA
ENDROOT
BRANCH   8  11
ATOM     11  N   UNL     1      -0.287   0.705  -3.016  0.00  0.00    -0.313 N 
ATOM     12  C   UNL     1      -1.555   1.376  -3.041  0.00  0.00    +0.108 C 
ATOM     13  C   UNL     1      -2.265   1.000  -4.353  0.00  0.00    +0.036 C 
ATOM     14  C   UNL     1      -1.735   1.758  -5.498  0.00  0.00    +0.111 C 
ATOM     15  N   UNL     1      -0.280   1.517  -5.646  0.00  0.00    -0.176 NA
ATOM     16  C   UNL     1       0.651   2.179  -4.776  0.00  0.00    +0.128 C 
ATOM     17  C   UNL     1       0.962   1.356  -3.497  0.00  0.00    +0.123 C 
BRANCH  15  18
ATOM     18  S   UNL     1       0.272   0.484  -6.816  0.00  0.00    +0.054 S 
ATOM     19  O   UNL     1       1.546   0.025  -6.385  0.00  0.00    -0.153 OA
ATOM     20  O   UNL     1      -0.797  -0.404  -7.112  0.00  0.00    -0.153 OA
BRANCH  18  21
ATOM     21  C   UNL     1       0.548   1.442  -8.269  0.00  0.00    +0.153 C 
ATOM     22  C   UNL     1       1.776   1.583  -8.747  0.00  0.00    +0.028 C 
BRANCH  22  23
ATOM     23  C   UNL     1       2.007   2.386  -9.966  0.00  0.00    -0.024 A 
ATOM     24  C   UNL     1       0.935   3.002 -10.613  0.00  0.00    +0.008 A 
ATOM     25  C   UNL     1       1.157   3.751 -11.751  0.00  0.00    +0.001 A 
ATOM     26  C   UNL     1       2.440   3.891 -12.250  0.00  0.00    +0.000 A 
ATOM     27  C   UNL     1       3.507   3.283 -11.614  0.00  0.00    +0.001 A 
ATOM     28  C   UNL     1       3.299   2.537 -10.472  0.00  0.00    +0.008 A 
ENDBRANCH  22  23
ENDBRANCH  18  21
ENDBRANCH  15  18
ENDBRANCH   8  11
BRANCH   9  29
ATOM     29  C   UNL     1       0.567  -3.224   1.453  0.00  0.00    +0.068 A 
ATOM     30  C   UNL     1      -0.216  -4.355   1.263  0.00  0.00    +0.028 A 
ATOM     31  C   UNL     1      -0.067  -5.444   2.099  0.00  0.00    +0.002 A 
ATOM     32  C   UNL     1       0.861  -5.410   3.123  0.00  0.00    +0.000 A 
ATOM     33  C   UNL     1       1.642  -4.285   3.315  0.00  0.00    +0.002 A 
ATOM     34  C   UNL     1       1.502  -3.194   2.479  0.00  0.00    +0.028 A 
ENDBRANCH   9  29
BRANCH   6  35
ATOM     35  C   UNL     1      -0.628  -4.004  -3.810  0.00  0.00    +0.079 C 
BRANCH  35  36
ATOM     36  C   UNL     1      -2.121  -4.341  -3.820  0.00  0.00    -0.010 C 
ATOM     37  C   UNL     1      -2.395  -5.413  -4.876  0.00  0.00    +0.007 C 
ATOM     38  C   UNL     1      -2.534  -4.864  -2.443  0.00  0.00    +0.007 C 
ENDBRANCH  35  36
ENDBRANCH   6  35
TORSDOF 7
