REMARK  Name = ZINC34785798
REMARK  6 active torsions:
REMARK  status: ('A' for Active; 'I' for Inactive)
REMARK    1  A    between atoms: C_6  and  C_7
REMARK    2  A    between atoms: C_8  and  N_21
REMARK    3  A    between atoms: C_9  and  N_20
REMARK    4  A    between atoms: N_10  and  C_12
REMARK    5  A    between atoms: N_24  and  C_25
REMARK    6  A    between atoms: C_25  and  C_26
REMARK                            x       y       z     vdW  Elec       q    Type
REMARK                         _______ _______ _______ _____ _____    ______ ____
ROOT
ATOM      1  C   UNL     1      -1.237  -1.339   0.494  0.00  0.00    +0.116 A 
ATOM      2  C   UNL     1      -1.550  -1.816  -0.796  0.00  0.00    +0.103 A 
ATOM      3  C   UNL     1      -2.884  -1.627  -0.996  0.00  0.00    +0.142 A 
ATOM      4  N   UNL     1      -3.393  -1.052   0.131  0.00  0.00    -0.214 N 
ATOM      5  N   UNL     1      -2.345  -0.888   1.046  0.00  0.00    -0.163 NA
ENDROOT
BRANCH   4   6
ATOM      6  C   UNL     1      -4.731  -0.691   0.339  0.00  0.00    +0.105 A 
ATOM      7  C   UNL     1      -5.747  -1.591   0.050  0.00  0.00    +0.069 A 
ATOM      8  C   UNL     1      -7.067  -1.232   0.256  0.00  0.00    +0.126 A 
ATOM      9  C   UNL     1      -7.375   0.025   0.751  0.00  0.00    +0.041 A 
ATOM     10  C   UNL     1      -6.365   0.924   1.039  0.00  0.00    +0.043 A 
ATOM     11  C   UNL     1      -5.043   0.568   0.840  0.00  0.00    +0.149 A 
ATOM     12  F   UNL     1      -4.056   1.445   1.128  0.00  0.00    -0.203 F 
ATOM     13  F   UNL     1      -8.056  -2.107  -0.025  0.00  0.00    -0.205 F 
ENDBRANCH   4   6
BRANCH   1  19
ATOM     14  C   UNL     1       0.474  -0.334   2.004  0.00  0.00    +0.011 A 
ATOM     15  C   UNL     1       1.724  -0.349   2.587  0.00  0.00    +0.020 A 
ATOM     16  C   UNL     1       2.614  -1.369   2.297  0.00  0.00    +0.041 A 
ATOM     17  C   UNL     1       2.254  -2.380   1.423  0.00  0.00    +0.020 A 
ATOM     18  C   UNL     1       1.006  -2.375   0.835  0.00  0.00    +0.011 A 
ATOM     19  C   UNL     1       0.106  -1.350   1.123  0.00  0.00    +0.004 A 
ATOM     20 CL   UNL     1       4.186  -1.381   3.034  0.00  0.00    -0.084 Cl
ENDBRANCH   1  19
BRANCH   2  21
ATOM     21  N   UNL     1      -0.643  -2.386  -1.715  0.00  0.00    -0.265 N 
ATOM     22  C   UNL     1       0.537  -1.783  -1.960  0.00  0.00    +0.304 C 
ATOM     23  O   UNL     1       0.872  -0.814  -1.306  0.00  0.00    -0.253 OA
ATOM     24  N   UNL     1       1.346  -2.253  -2.930  0.00  0.00    -0.297 N 
ATOM     25  H   UNL     1      -0.869  -3.212  -2.171  0.00  0.00    +0.157 HD
ATOM     26  H   UNL     1       1.079  -3.026  -3.452  0.00  0.00    +0.150 HD
BRANCH  24  27
ATOM     27  C   UNL     1       2.628  -1.597  -3.196  0.00  0.00    +0.137 C 
BRANCH  27  28
ATOM     28  C   UNL     1       3.345  -2.323  -4.336  0.00  0.00    +0.135 C 
ATOM     29  C   UNL     1       4.749  -1.715  -4.543  0.00  0.00    +0.035 C 
ATOM     30  C   UNL     1       4.886  -1.721  -6.090  0.00  0.00    +0.031 C 
ATOM     31  C   UNL     1       3.421  -1.449  -6.516  0.00  0.00    +0.160 C 
ATOM     32  O   UNL     1       2.614  -2.154  -5.556  0.00  0.00    -0.375 OA
ENDBRANCH  27  28
ENDBRANCH  24  27
ENDBRANCH   2  21
BRANCH   3  33
ATOM     33  N   UNL     1      -3.601  -1.963  -2.145  0.00  0.00    -0.342 N 
ATOM     34  H   UNL     1      -3.165  -2.445  -2.865  0.00  0.00    +0.144 HD
ATOM     35  H   UNL     1      -4.535  -1.714  -2.224  0.00  0.00    +0.144 HD
ENDBRANCH   3  33
TORSDOF 6
