REMARK  Name = ZINC06839157
REMARK  11 active torsions:
REMARK  status: ('A' for Active; 'I' for Inactive)
REMARK    1  A    between atoms: C_1  and  C_2
REMARK    2  A    between atoms: C_2  and  O_3
REMARK    3  A    between atoms: O_3  and  C_4
REMARK    4  A    between atoms: C_4  and  C_6
REMARK    5  A    between atoms: C_7  and  C_22
REMARK    6  A    between atoms: N_8  and  C_21
REMARK    7  A    between atoms: C_12  and  C_14
REMARK    8  A    between atoms: C_22  and  O_23
REMARK    9  A    between atoms: O_23  and  C_24
REMARK   10  A    between atoms: C_27  and  C_31
REMARK   11  A    between atoms: C_28  and  C_30
REMARK                            x       y       z     vdW  Elec       q    Type
REMARK                         _______ _______ _______ _____ _____    ______ ____
ROOT
ATOM      1  C   UNL     1      -0.093  -4.920   1.082  0.00  0.00    +0.082 C 
ATOM      2  C   UNL     1       0.214  -4.195  -0.016  0.00  0.00    +0.064 C 
ATOM      3  N   UNL     1       0.704  -4.794  -1.141  0.00  0.00    -0.258 N 
ATOM      4  C   UNL     1       0.911  -6.112  -1.251  0.00  0.00    +0.307 C 
ATOM      5  O   UNL     1       1.351  -6.553  -2.294  0.00  0.00    -0.252 OA
ATOM      6  N   UNL     1       0.647  -6.966  -0.242  0.00  0.00    -0.288 N 
ATOM      7  C   UNL     1       0.115  -6.419   1.018  0.00  0.00    +0.144 C 
ATOM      8  C   UNL     1       1.020  -3.946  -2.293  0.00  0.00    +0.139 C 
ATOM      9  H   UNL     1       0.805  -7.918  -0.343  0.00  0.00    +0.151 HD
ENDROOT
BRANCH   7  10
ATOM     10  C   UNL     1      -1.208  -7.088   1.291  0.00  0.00    -0.020 A 
ATOM     11  C   UNL     1      -2.090  -7.325   0.254  0.00  0.00    +0.006 A 
ATOM     12  C   UNL     1      -3.302  -7.942   0.502  0.00  0.00    +0.003 A 
ATOM     13  C   UNL     1      -3.637  -8.314   1.791  0.00  0.00    +0.038 A 
ATOM     14  C   UNL     1      -2.756  -8.072   2.831  0.00  0.00    +0.124 A 
ATOM     15  C   UNL     1      -1.541  -7.459   2.580  0.00  0.00    +0.044 A 
ATOM     16  F   UNL     1      -3.083  -8.435   4.091  0.00  0.00    -0.205 F 
ENDBRANCH   7  10
BRANCH   1  17
ATOM     17  C   UNL     1      -0.595  -4.300   2.250  0.00  0.00    +0.339 C 
ATOM     18  O   UNL     1      -0.863  -3.113   2.242  0.00  0.00    -0.245 OA
BRANCH  17  19
ATOM     19  O   UNL     1      -0.777  -5.026   3.373  0.00  0.00    -0.462 OA
BRANCH  19  21
ATOM     20  C   UNL     1      -1.425  -5.314   5.684  0.00  0.00    +0.048 C 
ATOM     21  C   UNL     1      -1.287  -4.335   4.516  0.00  0.00    +0.229 C 
ENDBRANCH  19  21
ENDBRANCH  17  19
ENDBRANCH   1  17
BRANCH   2  22
ATOM     22  C   UNL     1       0.018  -2.701   0.003  0.00  0.00    +0.280 C 
BRANCH  22  23
ATOM     23  O   UNL     1      -1.373  -2.402  -0.125  0.00  0.00    -0.486 OA
BRANCH  23  24
ATOM     24  C   UNL     1      -1.724  -1.089  -0.125  0.00  0.00    +0.121 A 
ATOM     25  C   UNL     1      -0.750  -0.109  -0.005  0.00  0.00    +0.046 A 
ATOM     26  C   UNL     1      -1.109   1.225  -0.005  0.00  0.00    +0.007 A 
ATOM     27  C   UNL     1      -2.439   1.584  -0.125  0.00  0.00    -0.047 A 
ATOM     28  C   UNL     1      -3.412   0.609  -0.245  0.00  0.00    -0.044 A 
ATOM     29  C   UNL     1      -3.058  -0.726  -0.245  0.00  0.00    +0.049 A 
ATOM     30  C   UNL     1      -4.861   1.004  -0.377  0.00  0.00    +0.044 C 
ATOM     31  C   UNL     1      -2.828   3.040  -0.125  0.00  0.00    +0.044 C 
ENDBRANCH  23  24
ENDBRANCH  22  23
ENDBRANCH   2  22
TORSDOF 7
