REMARK  Name = ZINC13896037
REMARK  6 active torsions:
REMARK  status: ('A' for Active; 'I' for Inactive)
REMARK    1  A    between atoms: C_1  and  C_2
REMARK    2  A    between atoms: C_4  and  C_20
REMARK    3  A    between atoms: C_6  and  N_8
REMARK    4  A    between atoms: C_9  and  N_10
REMARK    5  A    between atoms: C_11  and  C_13
REMARK    6  A    between atoms: N_14  and  C_15
REMARK                            x       y       z     vdW  Elec       q    Type
REMARK                         _______ _______ _______ _____ _____    ______ ____
ROOT
ATOM      1  N   UNL     1       0.383  -2.772   2.239  0.00  0.00    -0.175 NA
ATOM      2  C   UNL     1       0.160  -2.203   3.409  0.00  0.00    +0.230 C 
ATOM      3  N   UNL     1       0.136  -2.966   4.551  0.00  0.00    -0.351 N 
ATOM      4  H   UNL     1       0.283  -3.924   4.497  0.00  0.00    +0.163 HD
ENDROOT
BRANCH   1  10
ATOM      5  C   UNL     1       2.598   0.848   0.048  0.00  0.00    +0.066 C 
ATOM      6  C   UNL     1       1.577  -0.261   0.049  0.00  0.00    +0.044 A 
ATOM      7  C   UNL     1       0.792  -0.492  -1.070  0.00  0.00    +0.046 A 
ATOM      8  C   UNL     1      -0.137  -1.522  -1.031  0.00  0.00    +0.044 A 
ATOM      9  N   UNL     1      -0.247  -2.250   0.066  0.00  0.00    -0.216 NA
ATOM     10  C   UNL     1       0.521  -2.004   1.125  0.00  0.00    +0.254 A 
ATOM     11  N   UNL     1       1.424  -1.027   1.115  0.00  0.00    -0.216 NA
ATOM     12  C   UNL     1      -1.010  -1.806  -2.225  0.00  0.00    +0.066 C 
ENDBRANCH   1  10
BRANCH   3  13
ATOM     13  C   UNL     1      -0.112  -2.335   5.849  0.00  0.00    +0.082 C 
ATOM     14  C   UNL     1       1.217  -1.849   6.463  0.00  0.00    +0.024 C 
ATOM     15  C   UNL     1       1.056  -2.119   7.980  0.00  0.00    +0.002 C 
ATOM     16  C   UNL     1       0.292  -3.466   8.008  0.00  0.00    +0.002 C 
ATOM     17  C   UNL     1      -0.700  -3.363   6.832  0.00  0.00    +0.024 C 
ENDBRANCH   3  13
BRANCH   2  18
ATOM     18  N   UNL     1      -0.045  -0.870   3.483  0.00  0.00    -0.178 NA
ATOM     19  C   UNL     1      -1.101  -0.340   2.927  0.00  0.00    +0.246 C 
ATOM     20  O   UNL     1      -2.037  -1.129   2.373  0.00  0.00    -0.271 OA
ATOM     21  C   UNL     1      -1.270   1.158   2.907  0.00  0.00    +0.114 C 
ENDBRANCH   2  18
TORSDOF 3
