REMARK  Name = ZINC37358884
REMARK  3 active torsions:
REMARK  status: ('A' for Active; 'I' for Inactive)
REMARK    1  A    between atoms: C_1  and  N_2
REMARK    2  A    between atoms: C_3  and  N_28
REMARK    3  A    between atoms: C_5  and  C_23
REMARK                            x       y       z     vdW  Elec       q    Type
REMARK                         _______ _______ _______ _____ _____    ______ ____
ROOT
ATOM      1  C   UNL     1      -0.989   1.356  -0.735  0.00  0.00    +0.174 C 
ATOM      2  N   UNL     1      -0.527   0.001  -0.426  0.00  0.00    -0.251 N 
ATOM      3  C   UNL     1      -0.214  -0.936  -1.339  0.00  0.00    +0.126 A 
ATOM      4  C   UNL     1       0.178  -2.076  -0.651  0.00  0.00    +0.086 A 
ATOM      5  C   UNL     1       0.617  -3.375  -1.007  0.00  0.00    +0.095 A 
ATOM      6  N   UNL     1       0.913  -4.228  -0.029  0.00  0.00    -0.213 NA
ATOM      7  C   UNL     1       0.809  -3.897   1.253  0.00  0.00    +0.220 A 
ATOM      8  N   UNL     1       0.409  -2.713   1.670  0.00  0.00    -0.193 NA
ATOM      9  C   UNL     1       0.077  -1.753   0.783  0.00  0.00    +0.188 A 
ATOM     10  N   UNL     1      -0.340  -0.509   0.864  0.00  0.00    -0.149 NA
ATOM     11  N   UNL     1       1.137  -4.848   2.202  0.00  0.00    -0.297 N 
ATOM     12  C   UNL     1       1.595  -6.184   1.796  0.00  0.00    +0.127 C 
ATOM     13  C   UNL     1       2.953  -6.458   2.454  0.00  0.00    +0.125 C 
ATOM     14  N   UNL     1       2.851  -6.150   3.887  0.00  0.00    -0.314 N 
ATOM     15  C   UNL     1       2.394  -4.814   4.294  0.00  0.00    +0.125 C 
ATOM     16  C   UNL     1       1.041  -4.538   3.636  0.00  0.00    +0.127 C 
ATOM     17  C   UNL     1       3.181  -7.106   4.841  0.00  0.00    +0.099 A 
ATOM     18  C   UNL     1       3.742  -8.315   4.441  0.00  0.00    +0.042 A 
ATOM     19  C   UNL     1       4.065  -9.257   5.400  0.00  0.00    +0.005 A 
ATOM     20  C   UNL     1       3.817  -8.957   6.734  0.00  0.00    +0.018 A 
ATOM     21  C   UNL     1       3.259  -7.737   7.059  0.00  0.00    +0.084 A 
ATOM     22  N   UNL     1       2.965  -6.855   6.123  0.00  0.00    -0.350 N 
ATOM     23  H   UNL     1       2.577  -6.004   6.379  0.00  0.00    +0.166 HD
ENDROOT
BRANCH   5  24
ATOM     24  C   UNL     1       0.742  -3.770  -2.418  0.00  0.00    +0.038 A 
ATOM     25  C   UNL     1       1.288  -3.064  -3.476  0.00  0.00    +0.017 A 
ATOM     26  C   UNL     1       1.263  -3.701  -4.696  0.00  0.00    +0.008 A 
ATOM     27  C   UNL     1       0.723  -4.940  -4.780  0.00  0.00    +0.046 A 
ATOM     28  S   UNL     1       0.237  -5.285  -3.209  0.00  0.00    -0.095 S 
ENDBRANCH   5  24
BRANCH   3  29
ATOM     29  N   UNL     1      -0.273  -0.790  -2.713  0.00  0.00    -0.343 N 
ATOM     30  H   UNL     1      -0.350   0.094  -3.104  0.00  0.00    +0.144 HD
ATOM     31  H   UNL     1      -0.237  -1.572  -3.286  0.00  0.00    +0.144 HD
ENDBRANCH   3  29
TORSDOF 2
