REMARK  Name = ZINC63282870
REMARK  7 active torsions:
REMARK  status: ('A' for Active; 'I' for Inactive)
REMARK    1  A    between atoms: C_1  and  C_2
REMARK    2  A    between atoms: C_3  and  C_26
REMARK    3  A    between atoms: C_7  and  N_18
REMARK    4  A    between atoms: C_9  and  C_11
REMARK    5  A    between atoms: C_11  and  N_12
REMARK    6  A    between atoms: N_18  and  C_19
REMARK    7  A    between atoms: C_24  and  C_25
REMARK                            x       y       z     vdW  Elec       q    Type
REMARK                         _______ _______ _______ _____ _____    ______ ____
ROOT
ATOM      1  C   UNL     1      -0.567   1.485   0.117  0.00  0.00    +0.045 C 
ATOM      2  C   UNL     1      -0.494  -0.020   0.099  0.00  0.00    -0.028 A 
ATOM      3  C   UNL     1      -0.785  -0.700  -1.020  0.00  0.00    -0.008 A 
ATOM      4  S   UNL     1      -0.556  -2.403  -0.545  0.00  0.00    -0.074 S 
ATOM      5  C   UNL     1      -0.076  -2.156   1.144  0.00  0.00    +0.114 A 
ATOM      6  C   UNL     1      -0.102  -0.751   1.290  0.00  0.00    +0.051 A 
ATOM      7  C   UNL     1       0.255  -0.267   2.579  0.00  0.00    +0.135 A 
ATOM      8  N   UNL     1       0.581  -1.132   3.526  0.00  0.00    -0.215 NA
ATOM      9  C   UNL     1       0.588  -2.435   3.316  0.00  0.00    +0.146 A 
ATOM     10  N   UNL     1       0.258  -2.946   2.146  0.00  0.00    -0.223 NA
ATOM     11  C   UNL     1      -1.206  -0.154  -2.361  0.00  0.00    +0.052 C 
ENDROOT
BRANCH   7  12
ATOM     12  N   UNL     1       0.261   1.092   2.839  0.00  0.00    -0.296 N 
ATOM     13  H   UNL     1       0.109   1.724   2.119  0.00  0.00    +0.154 HD
BRANCH  12  14
ATOM     14  C   UNL     1       0.487   1.557   4.148  0.00  0.00    +0.073 A 
ATOM     15  C   UNL     1       0.718   0.786   5.242  0.00  0.00    +0.128 A 
ATOM     16  N   UNL     1       0.885   1.619   6.302  0.00  0.00    -0.283 N 
ATOM     17  H   UNL     1       1.066   1.350   7.217  0.00  0.00    +0.188 HD
ATOM     18  N   UNL     1       0.753   2.935   5.841  0.00  0.00    -0.177 NA
ATOM     19  C   UNL     1       0.520   2.899   4.554  0.00  0.00    +0.081 A 
ATOM     20  C   UNL     1       0.319   4.096   3.660  0.00  0.00    +0.069 C 
ENDBRANCH  12  14
ENDBRANCH   7  12
BRANCH   9  21
ATOM     21  C   UNL     1       0.971  -3.361   4.442  0.00  0.00    +0.160 C 
BRANCH  21  22
ATOM     22  N   UNL     1      -0.231  -3.732   5.202  0.00  0.00    -0.291 NA
ATOM     23  C   UNL     1      -0.797  -2.566   5.894  0.00  0.00    +0.113 C 
ATOM     24  C   UNL     1      -2.077  -2.983   6.622  0.00  0.00    +0.175 C 
ATOM     25  O   UNL     1      -1.780  -4.055   7.521  0.00  0.00    -0.377 OA
ATOM     26  C   UNL     1      -1.228  -5.208   6.880  0.00  0.00    +0.175 C 
ATOM     27  C   UNL     1       0.061  -4.813   6.154  0.00  0.00    +0.113 C 
ENDBRANCH  21  22
ENDBRANCH   9  21
TORSDOF 4
