REMARK  Name = ZINC67264551
REMARK  10 active torsions:
REMARK  status: ('A' for Active; 'I' for Inactive)
REMARK    1  A    between atoms: C_1  and  C_2
REMARK    2  A    between atoms: C_2  and  C_3
REMARK    3  A    between atoms: C_2  and  C_4
REMARK    4  A    between atoms: C_4  and  N_5
REMARK    5  A    between atoms: C_8  and  N_11
REMARK    6  A    between atoms: C_12  and  C_14
REMARK    7  A    between atoms: C_14  and  C_15
REMARK    8  A    between atoms: C_15  and  C_16
REMARK    9  A    between atoms: C_16  and  C_17
REMARK   10  A    between atoms: C_17  and  C_18
REMARK                            x       y       z     vdW  Elec       q    Type
REMARK                         _______ _______ _______ _____ _____    ______ ____
ROOT
ATOM      1  N   UNL     1      -2.066  -6.085   0.891  0.00  0.00    -0.313 N 
ATOM      2  C   UNL     1      -3.132  -6.866   1.158  0.00  0.00    +0.213 C 
ATOM      3  O   UNL     1      -4.186  -6.362   1.486  0.00  0.00    -0.276 OA
ATOM      4  H   UNL     1      -1.224  -6.487   0.629  0.00  0.00    +0.149 HD
ENDROOT
BRANCH   1   8
ATOM      5  N   UNL     1      -1.416  -2.016   0.004  0.00  0.00    +0.380 N 
ATOM      6  C   UNL     1      -0.913  -2.498   1.296  0.00  0.00    -0.077 C 
ATOM      7  C   UNL     1      -0.799  -4.024   1.265  0.00  0.00    +0.003 C 
ATOM      8  C   UNL     1      -2.181  -4.628   0.997  0.00  0.00    +0.069 C 
ATOM      9  C   UNL     1      -2.728  -4.061  -0.316  0.00  0.00    +0.003 C 
ATOM     10  C   UNL     1      -2.770  -2.534  -0.227  0.00  0.00    -0.077 C 
ATOM     11  H   UNL     1      -0.805  -2.334  -0.733  0.00  0.00    -0.082 HD
BRANCH   5  12
ATOM     12  C   UNL     1      -1.450  -0.547   0.011  0.00  0.00    -0.076 C 
BRANCH  12  14
ATOM     13  C   UNL     1       0.749  -0.387  -1.165  0.00  0.00    +0.005 C 
ATOM     14  C   UNL     1      -0.022  -0.005   0.101  0.00  0.00    -0.034 C 
ATOM     15  C   UNL     1      -0.062   1.518   0.233  0.00  0.00    +0.005 C 
ENDBRANCH  12  14
ENDBRANCH   5  12
ENDBRANCH   1   8
BRANCH   2  16
ATOM     16  C   UNL     1      -3.014  -8.364   1.049  0.00  0.00    +0.096 C 
BRANCH  16  17
ATOM     17  C   UNL     1      -4.356  -9.008   1.402  0.00  0.00    +0.009 C 
BRANCH  17  18
ATOM     18  C   UNL     1      -4.237 -10.529   1.292  0.00  0.00    +0.002 C 
BRANCH  18  19
ATOM     19  C   UNL     1      -5.579 -11.173   1.645  0.00  0.00    +0.016 C 
BRANCH  19  20
ATOM     20  C   UNL     1      -5.460 -12.694   1.535  0.00  0.00    +0.069 C 
ATOM     21  C   UNL     1      -6.773 -13.368   1.844  0.00  0.00    +0.108 C 
ATOM     22  C   UNL     1      -6.481 -14.806   2.373  0.00  0.00    +0.105 C 
ATOM     23  C   UNL     1      -5.608 -14.613   3.611  0.00  0.00    +0.093 C 
ATOM     24  S   UNL     1      -4.395 -13.383   2.886  0.00  0.00    -0.154 S 
ATOM     25  N   UNL     1      -7.837 -15.296   2.475  0.00  0.00    -0.294 N 
ATOM     26  C   UNL     1      -8.522 -14.685   1.463  0.00  0.00    +0.300 C 
ATOM     27  O   UNL     1      -9.623 -15.039   1.085  0.00  0.00    -0.253 OA
ATOM     28  N   UNL     1      -7.829 -13.650   0.917  0.00  0.00    -0.294 N 
ATOM     29  H   UNL     1      -8.186 -15.926   3.125  0.00  0.00    +0.151 HD
ATOM     30  H   UNL     1      -8.017 -13.196   0.080  0.00  0.00    +0.151 HD
ENDBRANCH  19  20
ENDBRANCH  18  19
ENDBRANCH  17  18
ENDBRANCH  16  17
ENDBRANCH   2  16
TORSDOF 8
