REMARK  Name = ZINC34785324
REMARK  7 active torsions:
REMARK  status: ('A' for Active; 'I' for Inactive)
REMARK    1  A    between atoms: C_1  and  C_2
REMARK    2  A    between atoms: C_2  and  N_3
REMARK    3  A    between atoms: N_3  and  C_4
REMARK    4  A    between atoms: N_7  and  C_8
REMARK    5  A    between atoms: C_9  and  C_22
REMARK    6  A    between atoms: N_11  and  C_14
REMARK    7  A    between atoms: C_12  and  N_13
REMARK                            x       y       z     vdW  Elec       q    Type
REMARK                         _______ _______ _______ _____ _____    ______ ____
ROOT
ATOM      1  C   UNL     1       4.048  -1.593   1.889  0.00  0.00    +0.103 A 
ATOM      2  C   UNL     1       4.747  -2.548   2.656  0.00  0.00    +0.116 A 
ATOM      3  N   UNL     1       6.037  -2.306   2.539  0.00  0.00    -0.163 NA
ATOM      4  N   UNL     1       6.204  -1.197   1.700  0.00  0.00    -0.214 N 
ATOM      5  C   UNL     1       4.969  -0.775   1.306  0.00  0.00    +0.142 A 
ENDROOT
BRANCH   4   6
ATOM      6  C   UNL     1       7.428  -0.624   1.327  0.00  0.00    +0.105 A 
ATOM      7  C   UNL     1       7.464   0.366   0.355  0.00  0.00    +0.069 A 
ATOM      8  C   UNL     1       8.673   0.930  -0.011  0.00  0.00    +0.126 A 
ATOM      9  C   UNL     1       9.847   0.506   0.590  0.00  0.00    +0.041 A 
ATOM     10  C   UNL     1       9.814  -0.481   1.558  0.00  0.00    +0.043 A 
ATOM     11  C   UNL     1       8.607  -1.043   1.933  0.00  0.00    +0.149 A 
ATOM     12  F   UNL     1       8.575  -2.003   2.883  0.00  0.00    -0.203 F 
ATOM     13  F   UNL     1       8.709   1.894  -0.957  0.00  0.00    -0.205 F 
ENDBRANCH   4   6
BRANCH   1  18
ATOM     14  N   UNL     1       0.745  -0.239   1.270  0.00  0.00    -0.289 N 
ATOM     15  C   UNL     1      -0.064  -1.460   1.255  0.00  0.00    +0.133 C 
ATOM     16  C   UNL     1       2.068  -0.310   1.515  0.00  0.00    +0.306 C 
ATOM     17  O   UNL     1       2.740   0.704   1.527  0.00  0.00    -0.252 OA
ATOM     18  N   UNL     1       2.648  -1.504   1.746  0.00  0.00    -0.265 N 
ATOM     19  H   UNL     1       2.102  -2.303   1.814  0.00  0.00    +0.157 HD
BRANCH  14  21
ATOM     20  C   UNL     1      -0.357   1.662   2.344  0.00  0.00    +0.024 C 
ATOM     21  C   UNL     1       0.115   1.060   1.019  0.00  0.00    +0.105 C 
ENDBRANCH  14  21
ENDBRANCH   1  18
BRANCH   2  22
ATOM     22  C   UNL     1       4.136  -3.637   3.457  0.00  0.00    +0.004 A 
ATOM     23  C   UNL     1       2.917  -3.432   4.101  0.00  0.00    +0.010 A 
ATOM     24  C   UNL     1       2.353  -4.449   4.844  0.00  0.00    +0.001 A 
ATOM     25  C   UNL     1       2.995  -5.670   4.950  0.00  0.00    +0.000 A 
ATOM     26  C   UNL     1       4.205  -5.879   4.314  0.00  0.00    +0.001 A 
ATOM     27  C   UNL     1       4.776  -4.871   3.563  0.00  0.00    +0.010 A 
ENDBRANCH   2  22
BRANCH   5  28
ATOM     28  N   UNL     1       4.697   0.301   0.460  0.00  0.00    -0.342 N 
ATOM     29  H   UNL     1       5.191   1.130   0.556  0.00  0.00    +0.144 HD
ATOM     30  H   UNL     1       4.014   0.219  -0.224  0.00  0.00    +0.144 HD
ENDBRANCH   5  28
TORSDOF 5
