REMARK  Name = ZINC59364344
REMARK  7 active torsions:
REMARK  status: ('A' for Active; 'I' for Inactive)
REMARK    1  A    between atoms: C_1  and  C_2
REMARK    2  A    between atoms: N_5  and  C_8
REMARK    3  A    between atoms: C_8  and  C_9
REMARK    4  A    between atoms: C_12  and  C_15
REMARK    5  A    between atoms: C_15  and  N_16
REMARK    6  A    between atoms: C_17  and  C_19
REMARK    7  A    between atoms: C_23  and  N_29
REMARK                            x       y       z     vdW  Elec       q    Type
REMARK                         _______ _______ _______ _____ _____    ______ ____
ROOT
ATOM      1  N   UNL     1       2.010  -4.413   7.195  0.00  0.00    -0.306 N 
ATOM      2  C   UNL     1       2.585  -4.555   8.405  0.00  0.00    +0.261 C 
ATOM      3  O   UNL     1       2.746  -5.665   8.876  0.00  0.00    -0.269 OA
ATOM      4  H   UNL     1       1.881  -3.528   6.820  0.00  0.00    +0.149 HD
ENDROOT
BRANCH   2   5
ATOM      5  C   UNL     1       3.018  -3.368   9.157  0.00  0.00    +0.103 A 
ATOM      6  C   UNL     1       3.613  -3.383  10.379  0.00  0.00    +0.041 A 
ATOM      7  C   UNL     1       3.869  -2.041  10.750  0.00  0.00    +0.003 A 
ATOM      8  C   UNL     1       4.452  -1.449  11.878  0.00  0.00    +0.042 A 
ATOM      9  C   UNL     1       4.564  -0.091  11.951  0.00  0.00    +0.127 A 
ATOM     10  C   UNL     1       4.104   0.713  10.916  0.00  0.00    +0.035 A 
ATOM     11  C   UNL     1       3.527   0.156   9.797  0.00  0.00    +0.028 A 
ATOM     12  C   UNL     1       3.403  -1.227   9.699  0.00  0.00    +0.047 A 
ATOM     13  N   UNL     1       2.891  -2.060   8.732  0.00  0.00    -0.351 N 
ATOM     14  H   UNL     1       2.503  -1.775   7.889  0.00  0.00    +0.166 HD
BRANCH   9  15
ATOM     15  N   UNL     1       5.181   0.531  13.144  0.00  0.00    +0.056 N 
ATOM     16  O   UNL     1       5.582  -0.164  14.049  0.00  0.00    -0.126 OA
ATOM     17  O   UNL     1       5.283   1.733  13.215  0.00  0.00    -0.126 OA
ENDBRANCH   9  15
ENDBRANCH   2   5
BRANCH   1  18
ATOM     18  C   UNL     1       1.578  -5.596   6.446  0.00  0.00    +0.140 C 
BRANCH  18  22
ATOM     19  C   UNL     1      -0.143  -4.380   2.730  0.00  0.00    -0.064 A 
ATOM     20  C   UNL     1       1.212  -4.640   2.812  0.00  0.00    +0.002 A 
ATOM     21  C   UNL     1       1.769  -5.033   4.014  0.00  0.00    +0.005 A 
ATOM     22  C   UNL     1       0.971  -5.166   5.135  0.00  0.00    -0.030 A 
ATOM     23  C   UNL     1      -0.384  -4.906   5.053  0.00  0.00    +0.005 A 
ATOM     24  C   UNL     1      -0.940  -4.508   3.852  0.00  0.00    +0.002 A 
BRANCH  19  25
ATOM     25  C   UNL     1      -0.750  -3.952   1.419  0.00  0.00    -0.043 C 
BRANCH  25  30
ATOM     26  C   UNL     1      -0.019   1.526   0.010  0.00  0.00    +0.007 C 
ATOM     27  C   UNL     1       0.002  -0.004   0.002  0.00  0.00    -0.018 C 
ATOM     28  C   UNL     1      -1.434  -0.536   0.023  0.00  0.00    -0.016 C 
ATOM     29  C   UNL     1      -1.405  -2.064   0.095  0.00  0.00    -0.078 C 
ATOM     30  N   UNL     1      -0.707  -2.487   1.315  0.00  0.00    +0.382 N 
ATOM     31  C   UNL     1       0.691  -2.042   1.269  0.00  0.00    -0.078 C 
ATOM     32  C   UNL     1       0.743  -0.513   1.242  0.00  0.00    -0.016 C 
ATOM     33  H   UNL     1      -1.162  -2.082   2.119  0.00  0.00    -0.081 HD
ENDBRANCH  25  30
ENDBRANCH  19  25
ENDBRANCH  18  22
ENDBRANCH   1  18
TORSDOF 6
