REMARK  Name = ZINC06726711
REMARK  4 active torsions:
REMARK  status: ('A' for Active; 'I' for Inactive)
REMARK    1  A    between atoms: C_1  and  C_2
REMARK    2  A    between atoms: C_5  and  O_21
REMARK    3  A    between atoms: C_6  and  N_8
REMARK    4  A    between atoms: O_21  and  C_22
REMARK                            x       y       z     vdW  Elec       q    Type
REMARK                         _______ _______ _______ _____ _____    ______ ____
ROOT
ATOM      1  N   UNL     1       0.050  -2.795   2.400  0.00  0.00    -0.266 N 
ATOM      2  C   UNL     1       0.148  -2.130   3.568  0.00  0.00    +0.307 C 
ATOM      3  O   UNL     1       0.133  -0.914   3.579  0.00  0.00    -0.252 OA
ATOM      4  N   UNL     1       0.264  -2.813   4.724  0.00  0.00    -0.285 N 
ATOM      5  C   UNL     1       0.400  -4.276   4.719  0.00  0.00    +0.114 C 
ATOM      6  C   UNL     1      -0.681  -4.875   5.624  0.00  0.00    +0.084 C 
ATOM      7  C   UNL     1      -0.592  -4.237   7.012  0.00  0.00    +0.173 C 
ATOM      8  C   UNL     1      -0.824  -2.728   6.907  0.00  0.00    +0.084 C 
ATOM      9  C   UNL     1       0.262  -2.109   6.014  0.00  0.00    +0.114 C 
ATOM     10  O   UNL     1      -1.580  -4.817   7.872  0.00  0.00    -0.346 OA
ATOM     11  C   UNL     1      -0.881  -5.417   8.982  0.00  0.00    +0.191 C 
ATOM     12  C   UNL     1       0.478  -4.674   8.984  0.00  0.00    +0.191 C 
ATOM     13  O   UNL     1       0.711  -4.482   7.567  0.00  0.00    -0.346 OA
ATOM     14  H   UNL     1       0.004  -3.764   2.395  0.00  0.00    +0.156 HD
ENDROOT
BRANCH   1  20
ATOM     15  C   UNL     1      -1.038   1.322  -0.061  0.00  0.00    +0.044 C 
ATOM     16  C   UNL     1      -0.510  -0.090  -0.031  0.00  0.00    -0.048 A 
ATOM     17  C   UNL     1      -0.063  -0.684  -1.197  0.00  0.00    +0.007 A 
ATOM     18  C   UNL     1       0.422  -1.978  -1.175  0.00  0.00    +0.048 A 
ATOM     19  C   UNL     1       0.462  -2.684   0.017  0.00  0.00    +0.141 A 
ATOM     20  C   UNL     1       0.012  -2.086   1.191  0.00  0.00    +0.077 A 
ATOM     21  C   UNL     1      -0.468  -0.784   1.163  0.00  0.00    +0.030 A 
BRANCH  19  22
ATOM     22  O   UNL     1       0.938  -3.957   0.039  0.00  0.00    -0.493 OA
ATOM     23  C   UNL     1       1.382  -4.506  -1.203  0.00  0.00    +0.277 C 
ENDBRANCH  19  22
ENDBRANCH   1  20
TORSDOF 2
