REMARK  Name = ZINC56661164
REMARK  8 active torsions:
REMARK  status: ('A' for Active; 'I' for Inactive)
REMARK    1  A    between atoms: C_1  and  C_2
REMARK    2  A    between atoms: C_2  and  C_4
REMARK    3  A    between atoms: C_2  and  N_14
REMARK    4  A    between atoms: C_9  and  C_10
REMARK    5  A    between atoms: N_17  and  C_18
REMARK    6  A    between atoms: C_20  and  C_26
REMARK    7  A    between atoms: C_23  and  O_24
REMARK    8  A    between atoms: O_24  and  C_25
REMARK                            x       y       z     vdW  Elec       q    Type
REMARK                         _______ _______ _______ _____ _____    ______ ____
ROOT
ATOM      1  N   UNL     1       0.709  -0.505   1.184  0.00  0.00    -0.293 N 
ATOM      2  C   UNL     1       2.053  -0.604   1.173  0.00  0.00    +0.304 C 
ATOM      3  O   UNL     1       2.677  -0.293   0.176  0.00  0.00    -0.252 OA
ATOM      4  N   UNL     1       2.706  -1.046   2.266  0.00  0.00    -0.266 N 
ATOM      5  H   UNL     1       0.211  -0.753   1.978  0.00  0.00    +0.151 HD
ATOM      6  H   UNL     1       2.217  -1.216   3.086  0.00  0.00    +0.156 HD
ENDROOT
BRANCH   4   7
ATOM      7  C   UNL     1       4.090  -1.261   2.216  0.00  0.00    +0.077 A 
ATOM      8  C   UNL     1       4.707  -1.525   1.007  0.00  0.00    +0.040 A 
ATOM      9  C   UNL     1       6.087  -1.738   0.963  0.00  0.00    +0.038 A 
ATOM     10  C   UNL     1       6.838  -1.683   2.139  0.00  0.00    +0.017 A 
ATOM     11  C   UNL     1       6.218  -1.419   3.342  0.00  0.00    +0.048 A 
ATOM     12  C   UNL     1       4.848  -1.202   3.387  0.00  0.00    +0.141 A 
BRANCH   9  13
ATOM     13  C   UNL     1       6.750  -2.021  -0.325  0.00  0.00    +0.242 C 
ATOM     14  O   UNL     1       6.095  -2.069  -1.349  0.00  0.00    -0.270 OA
ATOM     15  N   UNL     1       8.082  -2.226  -0.367  0.00  0.00    -0.325 N 
ATOM     16  H   UNL     1       8.604  -2.188   0.450  0.00  0.00    +0.145 HD
ATOM     17  H   UNL     1       8.518  -2.412  -1.213  0.00  0.00    +0.145 HD
ENDBRANCH   9  13
BRANCH  12  18
ATOM     18  O   UNL     1       4.242  -0.938   4.573  0.00  0.00    -0.493 OA
ATOM     19  C   UNL     1       5.077  -0.892   5.732  0.00  0.00    +0.277 C 
ENDBRANCH  12  18
ENDBRANCH   4   7
BRANCH   1  21
ATOM     20  C   UNL     1      -0.035   1.505   0.007  0.00  0.00    +0.033 C 
ATOM     21  C   UNL     1      -0.000  -0.024  -0.004  0.00  0.00    +0.102 C 
BRANCH  21  22
ATOM     22  C   UNL     1      -1.409  -0.559   0.001  0.00  0.00    -0.016 A 
ATOM     23  C   UNL     1      -2.013  -0.905   1.196  0.00  0.00    +0.006 A 
ATOM     24  C   UNL     1      -3.305  -1.395   1.201  0.00  0.00    +0.000 A 
ATOM     25  C   UNL     1      -3.994  -1.539   0.011  0.00  0.00    +0.001 A 
ATOM     26  C   UNL     1      -3.391  -1.192  -1.184  0.00  0.00    +0.013 A 
ATOM     27  C   UNL     1      -2.100  -0.698  -1.188  0.00  0.00    +0.060 A 
BRANCH  27  28
ATOM     28  C   UNL     1      -1.444  -0.315  -2.490  0.00  0.00    +0.418 C 
ATOM     29  F   UNL     1      -2.334  -0.543  -3.545  0.00  0.00    -0.166 F 
ATOM     30  F   UNL     1      -1.098   1.040  -2.457  0.00  0.00    -0.166 F 
ATOM     31  F   UNL     1      -0.292  -1.086  -2.676  0.00  0.00    -0.166 F 
ENDBRANCH  27  28
ENDBRANCH  21  22
ENDBRANCH   1  21
TORSDOF 6
