REMARK  Name = ZINC05817664
REMARK  7 active torsions:
REMARK  status: ('A' for Active; 'I' for Inactive)
REMARK    1  A    between atoms: C_1  and  C_2
REMARK    2  A    between atoms: C_2  and  O_3
REMARK    3  A    between atoms: O_3  and  C_4
REMARK    4  A    between atoms: C_7  and  C_10
REMARK    5  A    between atoms: C_17  and  N_28
REMARK    6  A    between atoms: C_18  and  C_26
REMARK    7  A    between atoms: C_19  and  C_21
REMARK                            x       y       z     vdW  Elec       q    Type
REMARK                         _______ _______ _______ _____ _____    ______ ____
ROOT
ATOM      1  C   UNL     1       1.311  -6.404  -1.890  0.00  0.00    +0.100 A 
ATOM      2  C   UNL     1       1.038  -6.918  -3.161  0.00  0.00    +0.054 A 
ATOM      3  C   UNL     1       1.146  -8.278  -3.099  0.00  0.00    +0.223 A 
ATOM      4  N   UNL     1       1.477  -8.606  -1.833  0.00  0.00    -0.246 N 
ATOM      5  H   UNL     1       1.622  -9.504  -1.496  0.00  0.00    +0.192 HD
ATOM      6  N   UNL     1       1.581  -7.419  -1.091  0.00  0.00    -0.171 NA
ATOM      7  O   UNL     1       0.937  -9.079  -4.174  0.00  0.00    -0.423 OA
ATOM      8  C   UNL     1       0.348  -8.531  -5.256  0.00  0.00    +0.200 C 
ATOM      9  C   UNL     1       0.196  -7.200  -5.436  0.00  0.00    +0.098 C 
ATOM     10  C   UNL     1       0.681  -6.187  -4.429  0.00  0.00    +0.105 C 
ENDROOT
BRANCH   1  14
ATOM     11  C   UNL     1       1.294  -2.293  -0.796  0.00  0.00    +0.121 A 
ATOM     12  C   UNL     1       0.298  -2.794  -1.622  0.00  0.00    +0.046 A 
ATOM     13  C   UNL     1       0.301  -4.127  -1.979  0.00  0.00    +0.013 A 
ATOM     14  C   UNL     1       1.306  -4.970  -1.509  0.00  0.00    +0.003 A 
ATOM     15  C   UNL     1       2.305  -4.464  -0.680  0.00  0.00    +0.013 A 
ATOM     16  C   UNL     1       2.300  -3.130  -0.331  0.00  0.00    +0.046 A 
BRANCH  11  17
ATOM     17  O   UNL     1       1.289  -0.980  -0.447  0.00  0.00    -0.492 OA
BRANCH  17  19
ATOM     18  C   UNL     1       0.386   1.262  -0.464  0.00  0.00    +0.048 C 
ATOM     19  C   UNL     1       0.225  -0.176  -0.961  0.00  0.00    +0.225 C 
ENDBRANCH  17  19
ENDBRANCH  11  17
ENDBRANCH   1  14
BRANCH  10  20
ATOM     20  C   UNL     1       1.897  -5.478  -4.967  0.00  0.00    +0.003 A 
ATOM     21  C   UNL     1       2.009  -4.099  -5.259  0.00  0.00    +0.045 A 
ATOM     22  C   UNL     1       3.259  -3.897  -5.713  0.00  0.00    +0.195 A 
ATOM     23  O   UNL     1       3.906  -5.074  -5.712  0.00  0.00    -0.471 OA
ATOM     24  C   UNL     1       3.087  -6.035  -5.256  0.00  0.00    +0.199 A 
ENDBRANCH  10  20
BRANCH   8  25
ATOM     25  N   UNL     1      -0.124  -9.373  -6.232  0.00  0.00    -0.328 N 
ATOM     26  H   UNL     1      -0.029 -10.334  -6.131  0.00  0.00    +0.145 HD
ATOM     27  H   UNL     1      -0.552  -9.009  -7.022  0.00  0.00    +0.145 HD
ENDBRANCH   8  25
BRANCH   9  28
ATOM     28  C   UNL     1      -0.450  -6.734  -6.627  0.00  0.00    +0.101 C 
ATOM     29  N   UNL     1      -0.961  -6.365  -7.572  0.00  0.00    -0.191 NA
ENDBRANCH   9  28
TORSDOF 6
