REMARK  Name = ZINC42013232
REMARK  7 active torsions:
REMARK  status: ('A' for Active; 'I' for Inactive)
REMARK    1  A    between atoms: C_1  and  C_2
REMARK    2  A    between atoms: C_7  and  S_8
REMARK    3  A    between atoms: S_8  and  N_11
REMARK    4  A    between atoms: N_11  and  C_12
REMARK    5  A    between atoms: C_12  and  C_13
REMARK    6  A    between atoms: C_13  and  C_14
REMARK    7  A    between atoms: C_14  and  N_15
REMARK                            x       y       z     vdW  Elec       q    Type
REMARK                         _______ _______ _______ _____ _____    ______ ____
ROOT
ATOM      1  S   UNL     1      -0.065  -0.051   2.732  0.00  0.00    +0.059 S 
ATOM      2  O   UNL     1      -1.270   0.701   2.787  0.00  0.00    -0.153 OA
ATOM      3  O   UNL     1       0.202  -1.129   3.619  0.00  0.00    -0.153 OA
ENDROOT
BRANCH   1  10
ATOM      4  C   UNL     1       2.239  -1.734   1.732  0.00  0.00    +0.046 C 
ATOM      5  C   UNL     1       1.144  -1.462   0.733  0.00  0.00    -0.021 A 
ATOM      6  C   UNL     1       1.232  -1.977  -0.546  0.00  0.00    +0.043 A 
ATOM      7  C   UNL     1       0.225  -1.728  -1.463  0.00  0.00    +0.124 A 
ATOM      8  C   UNL     1      -0.869  -0.962  -1.097  0.00  0.00    +0.040 A 
ATOM      9  C   UNL     1      -0.955  -0.447   0.182  0.00  0.00    +0.031 A 
ATOM     10  C   UNL     1       0.049  -0.702   1.099  0.00  0.00    +0.108 A 
ATOM     11  F   UNL     1       0.310  -2.231  -2.714  0.00  0.00    -0.205 F 
ENDBRANCH   1  10
BRANCH   1  12
ATOM     12  N   UNL     1       1.175   1.031   2.916  0.00  0.00    -0.190 NA
ATOM     13  H   UNL     1       1.875   0.861   3.565  0.00  0.00    +0.148 HD
BRANCH  12  14
ATOM     14  C   UNL     1       1.216   2.245   2.097  0.00  0.00    +0.108 C 
BRANCH  14  15
ATOM     15  C   UNL     1       2.206   3.240   2.707  0.00  0.00    +0.043 C 
BRANCH  15  16
ATOM     16  C   UNL     1       2.248   4.508   1.852  0.00  0.00    +0.183 C 
BRANCH  16  17
ATOM     17  N   UNL     1       3.195   5.460   2.437  0.00  0.00    -0.110 NA
ATOM     18  N   UNL     1       4.082   5.808   1.840  0.00  0.00    -0.167 NA
ATOM     19  N   UNL     1       4.950   6.148   1.257  0.00  0.00    +0.068 NA
ENDBRANCH  16  17
ENDBRANCH  15  16
ENDBRANCH  14  15
ENDBRANCH  12  14
ENDBRANCH   1  12
TORSDOF 6
