REMARK  Name = ZINC38800250
REMARK  11 active torsions:
REMARK  status: ('A' for Active; 'I' for Inactive)
REMARK    1  A    between atoms: C_1  and  C_2
REMARK    2  A    between atoms: C_4  and  C_12
REMARK    3  A    between atoms: C_12  and  C_14
REMARK    4  A    between atoms: C_14  and  C_16
REMARK    5  A    between atoms: C_14  and  O_17
REMARK    6  A    between atoms: O_17  and  C_18
REMARK    7  A    between atoms: C_18  and  C_20
REMARK    8  A    between atoms: C_25  and  N_26
REMARK    9  A    between atoms: N_26  and  C_27
REMARK   10  A    between atoms: C_27  and  C_28
REMARK   11  A    between atoms: C_28  and  O_29
REMARK                            x       y       z     vdW  Elec       q    Type
REMARK                         _______ _______ _______ _____ _____    ______ ____
ROOT
ATOM      1  C   UNL     1       1.245  -0.866  -3.738  0.00  0.00    +0.244 C 
ATOM      2  C   UNL     1       0.961  -2.329  -4.084  0.00  0.00    +0.061 C 
ENDROOT
BRANCH   1   3
ATOM      3  C   UNL     1       0.310  -0.417  -2.645  0.00  0.00    +0.202 C 
ATOM      4  O   UNL     1      -0.686   0.221  -2.921  0.00  0.00    -0.288 OA
BRANCH   3   7
ATOM      5  C   UNL     1      -0.156   1.233   0.036  0.00  0.00    +0.035 C 
ATOM      6  C   UNL     1      -0.175  -0.293  -0.073  0.00  0.00    +0.111 C 
ATOM      7  C   UNL     1       0.592  -0.737  -1.300  0.00  0.00    +0.030 C 
ATOM      8  C   UNL     1       1.627  -1.524  -0.826  0.00  0.00    +0.007 A 
ATOM      9  C   UNL     1       2.676  -2.223  -1.468  0.00  0.00    +0.010 A 
ATOM     10  C   UNL     1       3.568  -2.930  -0.741  0.00  0.00    +0.001 A 
ATOM     11  C   UNL     1       3.506  -3.009   0.660  0.00  0.00    +0.002 A 
ATOM     12  C   UNL     1       2.545  -2.378   1.369  0.00  0.00    +0.026 A 
ATOM     13  C   UNL     1       1.532  -1.585   0.653  0.00  0.00    +0.043 A 
ATOM     14  N   UNL     1       0.513  -0.890   1.076  0.00  0.00    -0.377 N 
ATOM     15  H   UNL     1       0.251  -0.784   2.004  0.00  0.00    +0.160 HD
ENDBRANCH   3   7
ENDBRANCH   1   3
BRANCH   1  16
ATOM     16  O   UNL     1       1.046  -0.055  -4.898  0.00  0.00    -0.450 OA
BRANCH  16  17
ATOM     17  C   UNL     1       2.112   0.140  -5.698  0.00  0.00    +0.342 C 
ATOM     18  O   UNL     1       3.182  -0.364  -5.419  0.00  0.00    -0.245 OA
BRANCH  17  19
ATOM     19  C   UNL     1       1.982   0.965  -6.911  0.00  0.00    +0.080 A 
ATOM     20  C   UNL     1       0.791   1.650  -7.171  0.00  0.00    +0.017 A 
ATOM     21  C   UNL     1       0.675   2.420  -8.307  0.00  0.00    +0.001 A 
ATOM     22  C   UNL     1       1.734   2.520  -9.197  0.00  0.00    +0.002 A 
ATOM     23  C   UNL     1       2.915   1.850  -8.955  0.00  0.00    +0.024 A 
ATOM     24  C   UNL     1       3.054   1.073  -7.812  0.00  0.00    +0.041 A 
BRANCH  24  25
ATOM     25  N   UNL     1       4.244   0.403  -7.563  0.00  0.00    -0.341 N 
ATOM     26  H   UNL     1       4.369  -0.069  -6.725  0.00  0.00    +0.146 HD
BRANCH  25  27
ATOM     27  C   UNL     1       5.311   0.407  -8.567  0.00  0.00    +0.129 C 
BRANCH  27  28
ATOM     28  C   UNL     1       6.503  -0.398  -8.048  0.00  0.00    +0.174 C 
BRANCH  28  29
ATOM     29  O   UNL     1       6.126  -1.769  -7.904  0.00  0.00    -0.393 OA
ATOM     30  H   UNL     1       6.835  -2.340  -7.577  0.00  0.00    +0.209 HD
ENDBRANCH  28  29
ENDBRANCH  27  28
ENDBRANCH  25  27
ENDBRANCH  24  25
ENDBRANCH  17  19
ENDBRANCH  16  17
ENDBRANCH   1  16
TORSDOF 9
