REMARK  Name = ZINC09313203
REMARK  5 active torsions:
REMARK  status: ('A' for Active; 'I' for Inactive)
REMARK    1  A    between atoms: C_10  and  C_12
REMARK    2  A    between atoms: N_14  and  C_15
REMARK    3  A    between atoms: C_15  and  N_17
REMARK    4  A    between atoms: N_17  and  C_18
REMARK    5  A    between atoms: C_20  and  N_24
REMARK                            x       y       z     vdW  Elec       q    Type
REMARK                         _______ _______ _______ _____ _____    ______ ____
ROOT
ATOM      1  C   UNL     1       0.232  -0.643  -5.915  0.00  0.00    +0.250 C 
ATOM      2  O   UNL     1       0.263  -1.858  -5.920  0.00  0.00    -0.270 OA
ATOM      3  N   UNL     1       0.122   0.023  -4.748  0.00  0.00    -0.264 N 
ATOM      4  H   UNL     1       0.097   0.993  -4.743  0.00  0.00    +0.157 HD
ENDROOT
BRANCH   1  14
ATOM      5  C   UNL     1       0.486   2.188  -8.383  0.00  0.00    +0.001 A 
ATOM      6  C   UNL     1       0.475   1.554  -9.588  0.00  0.00    +0.009 A 
ATOM      7  C   UNL     1       0.384   0.154  -9.659  0.00  0.00    -0.003 A 
ATOM      8  C   UNL     1       0.302  -0.601  -8.464  0.00  0.00    -0.005 A 
ATOM      9  C   UNL     1       0.211  -1.996  -8.531  0.00  0.00    +0.009 A 
ATOM     10  C   UNL     1       0.201  -2.613  -9.747  0.00  0.00    +0.002 A 
ATOM     11  C   UNL     1       0.281  -1.875 -10.925  0.00  0.00    +0.016 A 
ATOM     12  C   UNL     1       0.371  -0.515 -10.896  0.00  0.00    +0.026 A 
ATOM     13 BR   UNL     1       0.479   0.465 -12.510  0.00  0.00    -0.050 Br
ATOM     14  C   UNL     1       0.315   0.103  -7.183  0.00  0.00    +0.045 A 
ATOM     15  C   UNL     1       0.402   1.489  -7.187  0.00  0.00    +0.014 A 
ENDBRANCH   1  14
BRANCH   3  16
ATOM     16  C   UNL     1       0.046  -0.659  -3.588  0.00  0.00    +0.141 C 
ATOM     17  S   UNL     1       0.089  -2.370  -3.596  0.00  0.00    -0.018 S 
BRANCH  16  18
ATOM     18  N   UNL     1      -0.065   0.007  -2.421  0.00  0.00    -0.294 N 
ATOM     19  H   UNL     1      -0.157   0.972  -2.420  0.00  0.00    +0.154 HD
BRANCH  18  20
ATOM     20  C   UNL     1      -0.046  -0.696  -1.209  0.00  0.00    +0.082 A 
ATOM     21  C   UNL     1      -0.821  -1.836  -1.055  0.00  0.00    +0.059 A 
ATOM     22  C   UNL     1      -0.805  -2.525   0.143  0.00  0.00    +0.128 A 
ATOM     23  C   UNL     1      -0.015  -2.083   1.188  0.00  0.00    +0.036 A 
ATOM     24  C   UNL     1       0.763  -0.950   1.040  0.00  0.00    +0.055 A 
ATOM     25  C   UNL     1       0.753  -0.254  -0.157  0.00  0.00    +0.200 A 
ATOM     26  O   UNL     1       1.517   0.861  -0.304  0.00  0.00    -0.286 OA
BRANCH  22  27
ATOM     27  N   UNL     1      -1.637  -3.739   0.308  0.00  0.00    +0.056 N 
ATOM     28  O   UNL     1      -1.624  -4.347   1.363  0.00  0.00    -0.126 OA
ATOM     29  O   UNL     1      -2.333  -4.130  -0.612  0.00  0.00    -0.126 OA
ENDBRANCH  22  27
ENDBRANCH  18  20
ENDBRANCH  16  18
ENDBRANCH   3  16
TORSDOF 5
