REMARK  Name = ZINC45790593
REMARK  12 active torsions:
REMARK  status: ('A' for Active; 'I' for Inactive)
REMARK    1  A    between atoms: C_1  and  C_2
REMARK    2  A    between atoms: C_2  and  C_3
REMARK    3  A    between atoms: C_2  and  N_4
REMARK    4  A    between atoms: N_4  and  C_5
REMARK    5  A    between atoms: N_4  and  C_6
REMARK    6  A    between atoms: C_6  and  C_7
REMARK    7  A    between atoms: C_12  and  C_13
REMARK    8  A    between atoms: C_13  and  N_14
REMARK    9  A    between atoms: N_17  and  C_18
REMARK   10  A    between atoms: N_17  and  C_19
REMARK   11  A    between atoms: C_19  and  C_20
REMARK   12  A    between atoms: C_25  and  O_26
REMARK                            x       y       z     vdW  Elec       q    Type
REMARK                         _______ _______ _______ _____ _____    ______ ____
ROOT
ATOM      1  N   UNL     1      -1.193  -3.423   3.241  0.00  0.00    -0.295 N 
ATOM      2  C   UNL     1      -2.533  -3.293   3.302  0.00  0.00    +0.303 C 
ATOM      3  O   UNL     1      -3.026  -2.315   3.831  0.00  0.00    -0.253 OA
ATOM      4  N   UNL     1      -3.328  -4.246   2.776  0.00  0.00    -0.284 N 
ATOM      5  C   UNL     1      -2.734  -5.424   2.138  0.00  0.00    +0.134 C 
ATOM      6  H   UNL     1      -0.800  -4.203   2.819  0.00  0.00    +0.151 HD
ENDROOT
BRANCH   1   7
ATOM      7  C   UNL     1      -0.330  -2.386   3.812  0.00  0.00    +0.141 C 
BRANCH   7  13
ATOM      8  C   UNL     1       1.646  -2.377   2.276  0.00  0.00    -0.059 A 
ATOM      9  C   UNL     1       2.969  -2.666   1.998  0.00  0.00    +0.002 A 
ATOM     10  C   UNL     1       3.754  -3.291   2.948  0.00  0.00    +0.000 A 
ATOM     11  C   UNL     1       3.217  -3.627   4.177  0.00  0.00    +0.000 A 
ATOM     12  C   UNL     1       1.895  -3.337   4.456  0.00  0.00    +0.005 A 
ATOM     13  C   UNL     1       1.110  -2.708   3.507  0.00  0.00    -0.029 A 
BRANCH   8  14
ATOM     14  C   UNL     1       0.790  -1.695   1.240  0.00  0.00    -0.043 C 
BRANCH  14  15
ATOM     15  N   UNL     1      -0.023  -2.699   0.540  0.00  0.00    +0.382 N 
ATOM     16  C   UNL     1       0.856  -3.604  -0.211  0.00  0.00    -0.095 C 
ATOM     17  H   UNL     1      -0.556  -3.229   1.213  0.00  0.00    -0.081 HD
BRANCH  15  19
ATOM     18  C   UNL     1      -1.787  -3.069  -1.118  0.00  0.00    -0.014 C 
ATOM     19  C   UNL     1      -0.940  -2.024  -0.389  0.00  0.00    -0.075 C 
ATOM     20  C   UNL     1      -1.856  -1.081   0.393  0.00  0.00    -0.014 C 
ENDBRANCH  15  19
ENDBRANCH  14  15
ENDBRANCH   8  14
ENDBRANCH   7  13
ENDBRANCH   1   7
BRANCH   4  21
ATOM     21  C   UNL     1      -4.784  -4.105   2.842  0.00  0.00    +0.147 C 
BRANCH  21  22
ATOM     22  C   UNL     1      -5.274  -3.376   1.617  0.00  0.00    +0.011 A 
ATOM     23  C   UNL     1      -5.564  -2.027   1.685  0.00  0.00    +0.009 A 
ATOM     24  C   UNL     1      -6.014  -1.358   0.562  0.00  0.00    +0.001 A 
ATOM     25  C   UNL     1      -6.175  -2.038  -0.632  0.00  0.00    +0.004 A 
ATOM     26  C   UNL     1      -5.887  -3.386  -0.705  0.00  0.00    +0.046 A 
ATOM     27  C   UNL     1      -5.430  -4.059   0.420  0.00  0.00    +0.122 A 
BRANCH  27  28
ATOM     28  O   UNL     1      -5.140  -5.385   0.349  0.00  0.00    -0.506 OA
ATOM     29  H   UNL     1      -5.890  -5.962   0.547  0.00  0.00    +0.292 HD
ENDBRANCH  27  28
ENDBRANCH  21  22
ENDBRANCH   4  21
TORSDOF 8
