REMARK  Name = ZINC43726827
REMARK  9 active torsions:
REMARK  status: ('A' for Active; 'I' for Inactive)
REMARK    1  A    between atoms: C_1  and  C_2
REMARK    2  A    between atoms: C_2  and  C_4
REMARK    3  A    between atoms: C_2  and  C_9
REMARK    4  A    between atoms: C_4  and  C_5
REMARK    5  A    between atoms: C_5  and  C_6
REMARK    6  A    between atoms: C_15  and  C_37
REMARK    7  A    between atoms: C_23  and  O_36
REMARK    8  A    between atoms: C_28  and  C_35
REMARK    9  A    between atoms: C_31  and  O_34
REMARK                            x       y       z     vdW  Elec       q    Type
REMARK                         _______ _______ _______ _____ _____    ______ ____
ROOT
ATOM      1  C   UNL     1      -1.452  -0.418   0.000  0.00  0.00    +0.005 C 
ATOM      2  C   UNL     1      -1.542  -1.952   0.106  0.00  0.00    +0.005 C 
ATOM      3  C   UNL     1      -2.198  -2.446  -1.203  0.00  0.00    +0.005 C 
ATOM      4  C   UNL     1      -1.913  -1.312  -2.207  0.00  0.00    +0.008 C 
ATOM      5  C   UNL     1      -2.080  -0.033  -1.362  0.00  0.00    +0.032 C 
ATOM      6  C   UNL     1      -3.551   0.217  -1.116  0.00  0.00    +0.140 C 
ATOM      7  O   UNL     1      -3.946   0.492  -0.008  0.00  0.00    -0.297 OA
ATOM      8  C   UNL     1      -4.520   0.120  -2.268  0.00  0.00    +0.079 C 
ATOM      9  C   UNL     1      -4.319  -1.241  -2.950  0.00  0.00    +0.008 C 
ATOM     10  C   UNL     1      -2.865  -1.360  -3.386  0.00  0.00    +0.026 C 
ATOM     11  C   UNL     1      -2.666  -2.677  -4.142  0.00  0.00    +0.118 C 
ATOM     12  C   UNL     1      -3.585  -2.718  -5.363  0.00  0.00    +0.035 C 
ATOM     13  C   UNL     1      -5.041  -2.619  -4.901  0.00  0.00    +0.000 C 
ATOM     14  C   UNL     1      -5.239  -1.306  -4.173  0.00  0.00    -0.025 C 
ATOM     15  C   UNL     1      -6.697  -1.206  -3.716  0.00  0.00    +0.010 C 
ATOM     16  C   UNL     1      -7.017  -2.372  -2.779  0.00  0.00    +0.032 C 
ATOM     17  C   UNL     1      -6.804  -3.694  -3.518  0.00  0.00    +0.115 C 
ATOM     18  C   UNL     1      -5.361  -3.785  -3.965  0.00  0.00    +0.035 C 
ATOM     19  C   UNL     1      -4.921  -0.140  -5.111  0.00  0.00    +0.012 C 
ATOM     20  C   UNL     1      -1.383   1.171  -1.998  0.00  0.00    +0.019 C 
ENDROOT
BRANCH   1  22
ATOM     21  C   UNL     1       0.578  -0.229   1.446  0.00  0.00    +0.008 C 
ATOM     22  C   UNL     1       0.012   0.026   0.047  0.00  0.00    -0.010 C 
BRANCH  22  23
ATOM     23  C   UNL     1       0.819  -0.769  -0.982  0.00  0.00    +0.015 C 
BRANCH  23  24
ATOM     24  C   UNL     1       2.259  -0.253  -1.009  0.00  0.00    +0.125 C 
BRANCH  24  25
ATOM     25  C   UNL     1       3.054  -1.035  -2.023  0.00  0.00    +0.356 C 
ATOM     26  O   UNL     1       2.518  -1.923  -2.664  0.00  0.00    -0.246 OA
ATOM     27  O   UNL     1       4.233  -0.780  -2.201  0.00  0.00    -0.246 OA
ENDBRANCH  24  25
ENDBRANCH  23  24
ENDBRANCH  22  23
ENDBRANCH   1  22
BRANCH  17  28
ATOM     28  O   UNL     1      -7.666  -3.749  -4.656  0.00  0.00    -0.392 OA
ATOM     29  H   UNL     1      -8.607  -3.691  -4.440  0.00  0.00    +0.210 HD
ENDBRANCH  17  28
BRANCH  11  30
ATOM     30  O   UNL     1      -1.306  -2.779  -4.570  0.00  0.00    -0.391 OA
ATOM     31  H   UNL     1      -1.107  -3.590  -5.057  0.00  0.00    +0.210 HD
ENDBRANCH  11  30
TORSDOF 6
