REMARK  Name = ZINC13424889
REMARK  9 active torsions:
REMARK  status: ('A' for Active; 'I' for Inactive)
REMARK    1  A    between atoms: C_1  and  C_2
REMARK    2  A    between atoms: N_4  and  C_5
REMARK    3  A    between atoms: C_7  and  O_28
REMARK    4  A    between atoms: C_9  and  O_27
REMARK    5  A    between atoms: C_11  and  C_25
REMARK    6  A    between atoms: C_14  and  O_16
REMARK    7  A    between atoms: O_16  and  C_17
REMARK    8  A    between atoms: C_17  and  C_18
REMARK    9  A    between atoms: C_25  and  O_26
REMARK                            x       y       z     vdW  Elec       q    Type
REMARK                         _______ _______ _______ _____ _____    ______ ____
ROOT
ATOM      1  C   UNL     1       1.424   1.618  -0.003  0.00  0.00    +0.160 C 
ATOM      2  C   UNL     1      -0.013   1.086   0.008  0.00  0.00    +0.171 C 
ATOM      3  C   UNL     1      -0.720   1.582   1.273  0.00  0.00    +0.176 C 
ATOM      4  C   UNL     1      -0.666   3.111   1.312  0.00  0.00    +0.178 C 
ATOM      5  O   UNL     1       0.696   3.540   1.268  0.00  0.00    -0.341 OA
ATOM      6  C   UNL     1       1.394   3.146   0.085  0.00  0.00    +0.274 C 
ENDROOT
BRANCH   1  10
ATOM      7  C   UNL     1       4.112   0.686  -2.564  0.00  0.00    +0.109 C 
ATOM      8  C   UNL     1       3.430   1.104  -1.287  0.00  0.00    +0.210 C 
ATOM      9  O   UNL     1       4.089   1.344  -0.298  0.00  0.00    -0.276 OA
ATOM     10  N   UNL     1       2.087   1.212  -1.244  0.00  0.00    -0.305 N 
ATOM     11  H   UNL     1       1.560   1.020  -2.036  0.00  0.00    +0.149 HD
ENDBRANCH   1  10
BRANCH   3  12
ATOM     12  O   UNL     1      -0.063   1.052   2.426  0.00  0.00    -0.387 OA
ATOM     13  H   UNL     1      -0.458   1.325   3.265  0.00  0.00    +0.210 HD
ENDBRANCH   3  12
BRANCH   2  14
ATOM     14  O   UNL     1      -0.707   1.561  -1.147  0.00  0.00    -0.387 OA
ATOM     15  H   UNL     1      -1.626   1.264  -1.204  0.00  0.00    +0.210 HD
ENDBRANCH   2  14
BRANCH   6  16
ATOM     16  O   UNL     1       0.727   3.677  -1.061  0.00  0.00    -0.345 OA
BRANCH  16  17
ATOM     17  C   UNL     1       0.839   5.095  -1.195  0.00  0.00    +0.199 C 
BRANCH  17  18
ATOM     18  C   UNL     1       0.102   5.543  -2.431  0.00  0.00    -0.004 A 
ATOM     19  C   UNL     1      -0.538   4.614  -3.229  0.00  0.00    +0.007 A 
ATOM     20  C   UNL     1      -1.218   5.025  -4.360  0.00  0.00    +0.000 A 
ATOM     21  C   UNL     1      -1.249   6.365  -4.699  0.00  0.00    +0.001 A 
ATOM     22  C   UNL     1      -0.605   7.295  -3.905  0.00  0.00    +0.020 A 
ATOM     23  C   UNL     1       0.071   6.884  -2.769  0.00  0.00    +0.046 A 
ATOM     24 CL   UNL     1       0.880   8.051  -1.770  0.00  0.00    -0.083 Cl
ENDBRANCH  17  18
ENDBRANCH  16  17
ENDBRANCH   6  16
BRANCH   4  25
ATOM     25  C   UNL     1      -1.318   3.612   2.603  0.00  0.00    +0.190 C 
BRANCH  25  26
ATOM     26  O   UNL     1      -1.371   5.040   2.586  0.00  0.00    -0.392 OA
ATOM     27  H   UNL     1      -1.773   5.428   3.375  0.00  0.00    +0.210 HD
ENDBRANCH  25  26
ENDBRANCH   4  25
TORSDOF 8
