REMARK  Name = ZINC39655781
REMARK  8 active torsions:
REMARK  status: ('A' for Active; 'I' for Inactive)
REMARK    1  A    between atoms: C_1  and  C_2
REMARK    2  A    between atoms: C_8  and  C_11
REMARK    3  A    between atoms: C_11  and  C_12
REMARK    4  A    between atoms: C_12  and  N_13
REMARK    5  A    between atoms: C_14  and  C_16
REMARK    6  A    between atoms: C_27  and  C_29
REMARK    7  A    between atoms: C_29  and  C_30
REMARK    8  A    between atoms: C_29  and  C_31
REMARK                            x       y       z     vdW  Elec       q    Type
REMARK                         _______ _______ _______ _____ _____    ______ ____
ROOT
ATOM      1  N   UNL     1       1.427   0.155  -6.508  0.00  0.00    -0.315 N 
ATOM      2  C   UNL     1       2.660  -0.090  -6.025  0.00  0.00    +0.218 C 
ATOM      3  O   UNL     1       2.855  -0.081  -4.828  0.00  0.00    -0.275 OA
ATOM      4  H   UNL     1       1.270   0.147  -7.466  0.00  0.00    +0.149 HD
ENDROOT
BRANCH   2   5
ATOM      5  C   UNL     1       3.797  -0.377  -6.971  0.00  0.00    +0.100 C 
ATOM      6  C   UNL     1       5.139   0.078  -6.354  0.00  0.00    +0.121 C 
ATOM      7  N   UNL     1       5.691  -1.141  -5.717  0.00  0.00    -0.300 N 
ATOM      8  C   UNL     1       5.366  -2.232  -6.667  0.00  0.00    +0.115 C 
ATOM      9  C   UNL     1       3.952  -1.893  -7.178  0.00  0.00    -0.004 C 
ATOM     10  C   UNL     1       3.829  -2.240  -8.659  0.00  0.00    -0.010 C 
ATOM     11  C   UNL     1       3.928  -3.757  -8.834  0.00  0.00    -0.082 C 
ATOM     12  N   UNL     1       2.860  -4.411  -8.067  0.00  0.00    +0.379 N 
ATOM     13  C   UNL     1       3.040  -4.149  -6.634  0.00  0.00    -0.082 C 
ATOM     14  C   UNL     1       2.903  -2.647  -6.367  0.00  0.00    -0.010 C 
ATOM     15  C   UNL     1       6.341  -1.236  -4.540  0.00  0.00    +0.218 C 
ATOM     16  O   UNL     1       6.463  -0.257  -3.834  0.00  0.00    -0.275 OA
ATOM     17  H   UNL     1       1.966  -4.050  -8.364  0.00  0.00    -0.086 HD
ATOM     18  H   UNL     1       2.889  -5.406  -8.232  0.00  0.00    -0.086 HD
BRANCH  15  19
ATOM     19  C   UNL     1       6.915  -2.558  -4.101  0.00  0.00    +0.069 C 
ATOM     20  C   UNL     1       8.316  -2.727  -4.692  0.00  0.00    +0.017 C 
ATOM     21  C   UNL     1       6.998  -2.597  -2.574  0.00  0.00    +0.017 C 
ENDBRANCH  15  19
ENDBRANCH   2   5
BRANCH   1  22
ATOM     22  C   UNL     1       0.321   0.434  -5.588  0.00  0.00    +0.109 C 
BRANCH  22  23
ATOM     23  C   UNL     1      -0.960   0.676  -6.389  0.00  0.00    +0.056 C 
BRANCH  23  31
ATOM     24  C   UNL     1      -1.895   5.968  -4.405  0.00  0.00    +0.044 C 
ATOM     25  C   UNL     1      -2.476   4.582  -4.287  0.00  0.00    -0.050 A 
ATOM     26  C   UNL     1      -3.586   4.367  -3.482  0.00  0.00    +0.005 A 
ATOM     27  C   UNL     1      -4.132   3.108  -3.360  0.00  0.00    +0.026 A 
ATOM     28  C   UNL     1      -3.568   2.040  -4.050  0.00  0.00    +0.047 A 
ATOM     29  N   UNL     1      -3.871   0.700  -4.135  0.00  0.00    -0.360 N 
ATOM     30  C   UNL     1      -2.985   0.074  -4.968  0.00  0.00    +0.087 A 
ATOM     31  C   UNL     1      -2.097   0.963  -5.443  0.00  0.00    -0.021 A 
ATOM     32  C   UNL     1      -2.444   2.264  -4.866  0.00  0.00    +0.003 A 
ATOM     33  C   UNL     1      -1.909   3.549  -4.979  0.00  0.00    +0.013 A 
ATOM     34  H   UNL     1      -4.604   0.264  -3.672  0.00  0.00    +0.165 HD
ENDBRANCH  23  31
ENDBRANCH  22  23
ENDBRANCH   1  22
TORSDOF 5
