REMARK  Name = ZINC62915336
REMARK  5 active torsions:
REMARK  status: ('A' for Active; 'I' for Inactive)
REMARK    1  A    between atoms: C_1  and  C_2
REMARK    2  A    between atoms: C_2  and  C_3
REMARK    3  A    between atoms: C_3  and  C_19
REMARK    4  A    between atoms: C_8  and  C_10
REMARK    5  A    between atoms: C_11  and  C_12
REMARK                            x       y       z     vdW  Elec       q    Type
REMARK                         _______ _______ _______ _____ _____    ______ ____
ROOT
ATOM      1  C   UNL     1       0.718  -0.497  -1.257  0.00  0.00    +0.089 C 
ATOM      2  C   UNL     1       0.815  -2.041  -1.250  0.00  0.00    +0.039 C 
ATOM      3  C   UNL     1       2.232  -2.299  -1.821  0.00  0.00    +0.109 C 
ATOM      4  N   UNL     1       3.039  -1.202  -1.238  0.00  0.00    -0.297 N 
ATOM      5  C   UNL     1       2.177  -0.005  -1.270  0.00  0.00    +0.126 C 
ATOM      6  C   UNL     1       4.301  -1.282  -0.772  0.00  0.00    +0.239 C 
ATOM      7  O   UNL     1       4.845  -0.293  -0.317  0.00  0.00    -0.271 OA
ENDROOT
BRANCH   1   8
ATOM      8  C   UNL     1      -0.006  -0.022  -2.490  0.00  0.00    +0.364 C 
ATOM      9  O   UNL     1      -0.157   1.172  -2.686  0.00  0.00    -0.246 OA
ATOM     10  O   UNL     1      -0.440  -0.831  -3.292  0.00  0.00    -0.246 OA
ENDBRANCH   1   8
BRANCH   1  12
ATOM     11  C   UNL     1      -0.019   1.526   0.010  0.00  0.00    +0.005 C 
ATOM     12  C   UNL     1       0.002  -0.004   0.002  0.00  0.00    +0.016 C 
ENDBRANCH   1  12
BRANCH   6  13
ATOM     13  C   UNL     1       5.018  -2.558  -0.815  0.00  0.00    +0.068 C 
ATOM     14  C   UNL     1       6.281  -2.637  -0.349  0.00  0.00    +0.013 C 
BRANCH  14  15
ATOM     15  C   UNL     1       7.002  -3.920  -0.392  0.00  0.00    -0.024 A 
ATOM     16  C   UNL     1       6.382  -5.057  -0.920  0.00  0.00    +0.008 A 
ATOM     17  C   UNL     1       7.063  -6.255  -0.956  0.00  0.00    +0.002 A 
ATOM     18  C   UNL     1       8.357  -6.335  -0.472  0.00  0.00    +0.015 A 
ATOM     19  C   UNL     1       8.978  -5.213   0.052  0.00  0.00    +0.018 A 
ATOM     20  C   UNL     1       8.311  -4.006   0.090  0.00  0.00    +0.023 A 
ATOM     21 BR   UNL     1      10.746  -5.336   0.711  0.00  0.00    -0.050 Br
ENDBRANCH  14  15
ENDBRANCH   6  13
TORSDOF 4
