REMARK  Name = ZINC04025970
REMARK  6 active torsions:
REMARK  status: ('A' for Active; 'I' for Inactive)
REMARK    1  A    between atoms: C_1  and  C_2
REMARK    2  A    between atoms: C_5  and  S_7
REMARK    3  A    between atoms: S_7  and  C_8
REMARK    4  A    between atoms: C_8  and  C_9
REMARK    5  A    between atoms: CA_10  and  C_20
REMARK    6  A    between atoms: CA_14  and  N_31
REMARK                            x       y       z     vdW  Elec       q    Type
REMARK                         _______ _______ _______ _____ _____    ______ ____
ROOT
ATOM      1  C   UNL     1       1.347   2.406  -0.040  0.00  0.00    -0.021 C 
ATOM      2  CA  UNL     1       2.458   1.860  -0.511  0.00  0.00    +0.127 C 
ATOM      3  N   UNL     1       2.483   0.502  -0.869  0.00  0.00    -0.255 N 
ATOM      4  C   UNL     1       1.298  -0.358  -1.181  0.00  0.00    +0.134 C 
ATOM      5  CA  UNL     1       2.242  -1.534  -0.954  0.00  0.00    +0.045 C 
ATOM      6  C   UNL     1       3.365  -0.512  -0.900  0.00  0.00    +0.209 C 
ATOM      7  O   UNL     1       4.576  -0.583  -0.889  0.00  0.00    -0.277 OA
ATOM      8  S   UNL     1       0.105  -0.043   0.163  0.00  0.00    -0.135 S 
ATOM      9  C   UNL     1       0.005   1.773   0.139  0.00  0.00    +0.104 C 
ENDROOT
BRANCH   5  12
ATOM     10  H1  UNL     1       2.663  -3.001   0.427  0.00  0.00    -0.089 HD
ATOM     11  H2  UNL     1       2.082  -1.594   1.097  0.00  0.00    -0.089 HD
ATOM     12  N   UNL     1       1.995  -2.241   0.315  0.00  0.00    +0.387 N 
ATOM     13  H3  UNL     1       1.044  -2.629   0.305  0.00  0.00    -0.089 HD
ENDBRANCH   5  12
BRANCH   2  14
ATOM     14  C   UNL     1       3.673   2.682  -0.660  0.00  0.00    +0.401 C 
ATOM     15  O   UNL     1       3.909   3.231  -1.718  0.00  0.00    -0.239 OA
ATOM     16  OXT UNL     1       4.522   2.824   0.377  0.00  0.00    -0.239 OA
ENDBRANCH   2  14
BRANCH   1  17
ATOM     17  C   UNL     1       1.448   3.853   0.368  0.00  0.00    +0.110 C 
BRANCH  17  18
ATOM     18  S   UNL     1       0.722   4.896  -0.921  0.00  0.00    -0.093 S 
BRANCH  18  23
ATOM     19  C   UNL     1       1.204  10.508   0.835  0.00  0.00    +0.075 C 
ATOM     20  C   UNL     1       1.181   9.023   0.576  0.00  0.00    +0.100 A 
ATOM     21  N   UNL     1       1.626   8.028   1.316  0.00  0.00    -0.146 NA
ATOM     22  N   UNL     1       1.524   6.824   0.954  0.00  0.00    -0.135 NA
ATOM     23  C   UNL     1       0.970   6.486  -0.204  0.00  0.00    +0.159 A 
ATOM     24  S   UNL     1       0.540   8.110  -0.824  0.00  0.00    -0.044 S 
ENDBRANCH  18  23
ENDBRANCH  17  18
ENDBRANCH   1  17
TORSDOF 5
