REMARK  Name = ZINC51164249
REMARK  6 active torsions:
REMARK  status: ('A' for Active; 'I' for Inactive)
REMARK    1  A    between atoms: C_1  and  C_2
REMARK    2  A    between atoms: C_4  and  C_22
REMARK    3  A    between atoms: C_5  and  S_9
REMARK    4  A    between atoms: C_6  and  C_8
REMARK    5  A    between atoms: S_9  and  N_12
REMARK    6  A    between atoms: C_16  and  C_19
REMARK                            x       y       z     vdW  Elec       q    Type
REMARK                         _______ _______ _______ _____ _____    ______ ____
ROOT
ATOM      1  S   UNL     1      -0.950  -4.376   0.068  0.00  0.00    +0.062 S 
ATOM      2  O   UNL     1      -1.662  -4.541   1.287  0.00  0.00    -0.153 OA
ATOM      3  O   UNL     1      -1.535  -4.644  -1.198  0.00  0.00    -0.153 OA
ENDROOT
BRANCH   1   8
ATOM      4  C   UNL     1       0.918   1.360  -0.073  0.00  0.00    +0.044 C 
ATOM      5  C   UNL     1       0.452  -0.073  -0.038  0.00  0.00    -0.050 A 
ATOM      6  C   UNL     1       0.171  -0.678   1.173  0.00  0.00    +0.008 A 
ATOM      7  C   UNL     1      -0.257  -1.992   1.205  0.00  0.00    -0.024 A 
ATOM      8  C   UNL     1      -0.405  -2.700   0.027  0.00  0.00    +0.111 A 
ATOM      9  C   UNL     1      -0.125  -2.094  -1.183  0.00  0.00    -0.024 A 
ATOM     10  C   UNL     1       0.299  -0.779  -1.216  0.00  0.00    +0.008 A 
ATOM     11  C   UNL     1      -0.286  -2.866  -2.468  0.00  0.00    +0.046 C 
ATOM     12  C   UNL     1      -0.563  -2.653   2.525  0.00  0.00    +0.046 C 
ENDBRANCH   1   8
BRANCH   1  13
ATOM     13  N   UNL     1       0.401  -5.327   0.177  0.00  0.00    -0.171 NA
ATOM     14  C   UNL     1       1.087  -5.809  -1.032  0.00  0.00    +0.137 C 
ATOM     15  C   UNL     1       1.288  -7.324  -0.903  0.00  0.00    +0.178 C 
ATOM     16  O   UNL     1       1.924  -7.609   0.344  0.00  0.00    -0.365 OA
ATOM     17  C   UNL     1       1.159  -7.234   1.492  0.00  0.00    +0.219 C 
ATOM     18  C   UNL     1       0.955  -5.710   1.485  0.00  0.00    +0.150 C 
BRANCH  17  19
ATOM     19  C   UNL     1       1.896  -7.637   2.743  0.00  0.00    +0.241 C 
ATOM     20  O   UNL     1       3.010  -8.109   2.665  0.00  0.00    -0.273 OA
ATOM     21  N   UNL     1       1.316  -7.473   3.949  0.00  0.00    -0.327 N 
ATOM     22  H   UNL     1       0.425  -7.096   4.011  0.00  0.00    +0.145 HD
ATOM     23  H   UNL     1       1.791  -7.733   4.754  0.00  0.00    +0.145 HD
ENDBRANCH  17  19
ENDBRANCH   1  13
TORSDOF 3
