REMARK  Name = ZINC39638249
REMARK  10 active torsions:
REMARK  status: ('A' for Active; 'I' for Inactive)
REMARK    1  A    between atoms: C_1  and  C_2
REMARK    2  A    between atoms: C_2  and  C_3
REMARK    3  A    between atoms: C_3  and  C_5
REMARK    4  A    between atoms: C_3  and  N_8
REMARK    5  A    between atoms: C_5  and  O_6
REMARK    6  A    between atoms: O_6  and  C_7
REMARK    7  A    between atoms: C_9  and  C_11
REMARK    8  A    between atoms: C_22  and  C_24
REMARK    9  A    between atoms: C_31  and  C_35
REMARK   10  A    between atoms: N_33  and  C_34
REMARK                            x       y       z     vdW  Elec       q    Type
REMARK                         _______ _______ _______ _____ _____    ______ ____
ROOT
ATOM      1  C   UNL     1       3.965   1.529   1.533  0.00  0.00    +0.100 C 
ATOM      2  C   UNL     1       4.479   1.464   0.077  0.00  0.00    +0.121 C 
ATOM      3  N   UNL     1       4.306   2.841  -0.443  0.00  0.00    -0.296 N 
ATOM      4  C   UNL     1       4.684   3.714   0.694  0.00  0.00    +0.115 C 
ATOM      5  C   UNL     1       4.104   3.007   1.935  0.00  0.00    -0.004 C 
ATOM      6  C   UNL     1       2.739   3.591   2.284  0.00  0.00    -0.010 C 
ATOM      7  C   UNL     1       2.911   5.044   2.735  0.00  0.00    -0.082 C 
ATOM      8  N   UNL     1       3.800   5.094   3.902  0.00  0.00    +0.379 N 
ATOM      9  C   UNL     1       5.138   4.617   3.534  0.00  0.00    -0.082 C 
ATOM     10  C   UNL     1       5.060   3.146   3.116  0.00  0.00    -0.010 C 
ATOM     11  C   UNL     1       3.898   3.214  -1.672  0.00  0.00    +0.250 C 
ATOM     12  O   UNL     1       3.529   2.376  -2.471  0.00  0.00    -0.270 OA
ATOM     13  H   UNL     1       3.863   6.045   4.235  0.00  0.00    -0.086 HD
ATOM     14  H   UNL     1       3.425   4.509   4.634  0.00  0.00    -0.086 HD
ENDROOT
BRANCH  11  15
ATOM     15  C   UNL     1       3.900   4.642  -2.047  0.00  0.00    +0.074 A 
ATOM     16  C   UNL     1       4.898   5.501  -1.567  0.00  0.00    +0.127 A 
ATOM     17  N   UNL     1       4.917   6.773  -1.889  0.00  0.00    -0.235 NA
ATOM     18  C   UNL     1       3.997   7.310  -2.684  0.00  0.00    +0.160 A 
ATOM     19  C   UNL     1       2.959   6.513  -3.209  0.00  0.00    +0.060 A 
ATOM     20  C   UNL     1       2.910   5.152  -2.891  0.00  0.00    +0.067 A 
ATOM     21 CL   UNL     1       1.655   4.131  -3.520  0.00  0.00    -0.082 Cl
ATOM     22  C   UNL     1       2.134   7.395  -4.028  0.00  0.00    +0.071 A 
ATOM     23  N   UNL     1       2.656   8.587  -3.972  0.00  0.00    -0.174 NA
ATOM     24  N   UNL     1       3.795   8.575  -3.161  0.00  0.00    -0.249 N 
ATOM     25  C   UNL     1       4.639   9.736  -2.868  0.00  0.00    +0.174 C 
ATOM     26  C   UNL     1       0.901   6.999  -4.799  0.00  0.00    +0.068 C 
ENDBRANCH  11  15
BRANCH   1  28
ATOM     27  N   UNL     1       2.047   0.502   2.710  0.00  0.00    -0.310 N 
ATOM     28  C   UNL     1       2.521   1.101   1.600  0.00  0.00    +0.218 C 
ATOM     29  O   UNL     1       1.787   1.296   0.654  0.00  0.00    -0.275 OA
ATOM     30  H   UNL     1       2.634   0.346   3.466  0.00  0.00    +0.149 HD
BRANCH  27  31
ATOM     31  C   UNL     1       0.643   0.086   2.775  0.00  0.00    +0.098 C 
BRANCH  31  33
ATOM     32  C   UNL     1       0.821  -1.214   0.648  0.00  0.00    +0.006 C 
ATOM     33  C   UNL     1       0.492  -1.298   2.140  0.00  0.00    +0.021 C 
ENDBRANCH  31  33
BRANCH  31  34
ATOM     34  C   UNL     1       0.196   0.029   4.236  0.00  0.00    +0.181 C 
BRANCH  34  35
ATOM     35  O   UNL     1       0.925  -0.993   4.918  0.00  0.00    -0.381 OA
ATOM     36  C   UNL     1       0.580  -1.131   6.298  0.00  0.00    +0.194 C 
ENDBRANCH  34  35
ENDBRANCH  31  34
ENDBRANCH  27  31
ENDBRANCH   1  28
TORSDOF 6
