REMARK  Name = ZINC62870745
REMARK  4 active torsions:
REMARK  status: ('A' for Active; 'I' for Inactive)
REMARK    1  A    between atoms: C_1  and  C_2
REMARK    2  A    between atoms: C_2  and  C_3
REMARK    3  A    between atoms: C_3  and  C_18
REMARK    4  A    between atoms: C_9  and  C_11
REMARK                            x       y       z     vdW  Elec       q    Type
REMARK                         _______ _______ _______ _____ _____    ______ ____
ROOT
ATOM      1  C   UNL     1       0.742  -0.511   1.242  0.00  0.00    +0.087 C 
ATOM      2  C   UNL     1       0.024  -0.021   2.501  0.00  0.00    +0.021 C 
ATOM      3  C   UNL     1      -1.421  -0.524   2.494  0.00  0.00    +0.020 C 
ATOM      4  C   UNL     1      -1.425  -2.056   2.501  0.00  0.00    +0.108 C 
ATOM      5  N   UNL     1      -0.614  -2.535   1.373  0.00  0.00    -0.298 N 
ATOM      6  C   UNL     1       0.763  -2.043   1.234  0.00  0.00    +0.126 C 
ATOM      7  C   UNL     1      -1.123  -3.411   0.484  0.00  0.00    +0.243 C 
ATOM      8  O   UNL     1      -0.444  -3.799  -0.442  0.00  0.00    -0.273 OA
ENDROOT
BRANCH   7   9
ATOM      9  C   UNL     1      -2.538  -3.907   0.641  0.00  0.00    +0.187 C 
ATOM     10  C   UNL     1      -2.651  -4.730   1.927  0.00  0.00    -0.041 C 
ATOM     11  N   UNL     1      -4.015  -5.261   2.047  0.00  0.00    +0.383 N 
ATOM     12  C   UNL     1      -4.311  -6.116   0.890  0.00  0.00    -0.054 C 
ATOM     13  C   UNL     1      -4.196  -5.290  -0.394  0.00  0.00    +0.142 C 
ATOM     14  O   UNL     1      -2.883  -4.729  -0.478  0.00  0.00    -0.371 OA
ATOM     15  H   UNL     1      -4.092  -5.804   2.895  0.00  0.00    -0.086 HD
ATOM     16  H   UNL     1      -4.673  -4.496   2.078  0.00  0.00    -0.086 HD
ENDBRANCH   7   9
BRANCH   1  17
ATOM     17  C   UNL     1       2.155   0.012   1.232  0.00  0.00    +0.364 C 
ATOM     18  O   UNL     1       2.361   1.213   1.238  0.00  0.00    -0.246 OA
ATOM     19  O   UNL     1       3.093  -0.767   1.219  0.00  0.00    -0.246 OA
ENDBRANCH   1  17
BRANCH   1  21
ATOM     20  C   UNL     1      -0.019   1.526   0.010  0.00  0.00    +0.005 C 
ATOM     21  C   UNL     1       0.002  -0.004   0.002  0.00  0.00    +0.016 C 
ENDBRANCH   1  21
TORSDOF 3
