REMARK  Name = ZINC05051978
REMARK  7 active torsions:
REMARK  status: ('A' for Active; 'I' for Inactive)
REMARK    1  A    between atoms: C_1  and  C_2
REMARK    2  A    between atoms: C_5  and  C_17
REMARK    3  A    between atoms: C_7  and  C_14
REMARK    4  A    between atoms: C_8  and  O_13
REMARK    5  A    between atoms: C_10  and  O_12
REMARK    6  A    between atoms: C_14  and  C_16
REMARK    7  A    between atoms: C_17  and  C_19
REMARK                            x       y       z     vdW  Elec       q    Type
REMARK                         _______ _______ _______ _____ _____    ______ ____
ROOT
ATOM      1  C   UNL     1       1.079   0.259   8.883  0.00  0.00    +0.044 C 
ATOM      2  C   UNL     1       0.568   0.632   7.515  0.00  0.00    -0.046 A 
ATOM      3  C   UNL     1       1.237   0.192   6.396  0.00  0.00    +0.013 A 
ATOM      4  C   UNL     1       0.768   0.534   5.126  0.00  0.00    -0.000 A 
ATOM      5  C   UNL     1       1.462   0.078   3.915  0.00  0.00    +0.026 A 
ATOM      6  C   UNL     1       0.958   0.435   2.672  0.00  0.00    +0.027 A 
ATOM      7  C   UNL     1      -0.190   1.231   2.572  0.00  0.00    +0.060 A 
ATOM      8  C   UNL     1      -0.865   1.675   3.716  0.00  0.00    +0.139 A 
ATOM      9  C   UNL     1      -0.393   1.332   4.998  0.00  0.00    +0.066 A 
ATOM     10  C   UNL     1      -1.061   1.770   6.159  0.00  0.00    +0.128 A 
ATOM     11  C   UNL     1      -0.573   1.416   7.400  0.00  0.00    +0.049 A 
ENDROOT
BRANCH   7  12
ATOM     12  C   UNL     1      -0.698   1.601   1.248  0.00  0.00    +0.164 C 
ATOM     13  O   UNL     1      -1.695   2.285   1.150  0.00  0.00    -0.292 OA
ATOM     14  C   UNL     1       0.017   1.130   0.008  0.00  0.00    +0.092 C 
ENDBRANCH   7  12
BRANCH   5  15
ATOM     15  C   UNL     1       2.665  -0.748   4.017  0.00  0.00    +0.161 C 
ATOM     16  O   UNL     1       3.159  -0.969   5.104  0.00  0.00    -0.292 OA
ATOM     17  C   UNL     1       3.290  -1.325   2.774  0.00  0.00    +0.091 C 
ENDBRANCH   5  15
BRANCH  10  18
ATOM     18  O   UNL     1      -2.176   2.536   6.057  0.00  0.00    -0.506 OA
ATOM     19  H   UNL     1      -2.998   2.029   6.015  0.00  0.00    +0.292 HD
ENDBRANCH  10  18
BRANCH   8  20
ATOM     20  O   UNL     1      -1.974   2.437   3.590  0.00  0.00    -0.505 OA
ATOM     21  H   UNL     1      -2.796   1.930   3.542  0.00  0.00    +0.292 HD
ENDBRANCH   8  20
TORSDOF 4
