REMARK  Name = ZINC11334127
REMARK  4 active torsions:
REMARK  status: ('A' for Active; 'I' for Inactive)
REMARK    1  A    between atoms: C_1  and  C_2
REMARK    2  A    between atoms: C_4  and  C_22
REMARK    3  A    between atoms: N_8  and  N_9
REMARK    4  A    between atoms: C_10  and  C_12
REMARK                            x       y       z     vdW  Elec       q    Type
REMARK                         _______ _______ _______ _____ _____    ______ ____
ROOT
ATOM      1  N   UNL     1       0.045  -1.962   3.551  0.00  0.00    -0.230 N 
ATOM      2  C   UNL     1       0.059  -2.619   4.728  0.00  0.00    +0.267 C 
ATOM      3  O   UNL     1       0.076  -3.836   4.745  0.00  0.00    -0.268 OA
ATOM      4  H   UNL     1       0.032  -0.992   3.538  0.00  0.00    +0.173 HD
ENDROOT
BRANCH   1  12
ATOM      5  C   UNL     1      -0.018   1.503   0.010  0.00  0.00    +0.066 C 
ATOM      6  C   UNL     1       0.002  -0.004   0.002  0.00  0.00    +0.044 A 
ATOM      7  C   UNL     1       0.006  -0.699  -1.197  0.00  0.00    +0.046 A 
ATOM      8  C   UNL     1       0.025  -2.084  -1.160  0.00  0.00    +0.044 A 
ATOM      9  N   UNL     1       0.039  -2.699   0.011  0.00  0.00    -0.219 NA
ATOM     10  C   UNL     1       0.035  -2.004   1.140  0.00  0.00    +0.232 A 
ATOM     11  N   UNL     1       0.022  -0.679   1.139  0.00  0.00    -0.219 NA
ATOM     12  N   UNL     1       0.049  -2.679   2.348  0.00  0.00    -0.232 N 
ATOM     13  C   UNL     1       0.029  -2.881  -2.439  0.00  0.00    +0.066 C 
ATOM     14  H   UNL     1       0.062  -3.649   2.362  0.00  0.00    +0.173 HD
ENDBRANCH   1  12
BRANCH   2  15
ATOM     15  C   UNL     1       0.055  -1.868   5.987  0.00  0.00    +0.076 A 
ATOM     16  C   UNL     1       0.073  -2.342   7.284  0.00  0.00    +0.024 A 
ATOM     17  C   UNL     1       0.063  -1.394   8.303  0.00  0.00    -0.036 A 
ATOM     18  C   UNL     1       0.034  -0.091   7.918  0.00  0.00    -0.006 A 
ATOM     19  S   UNL     1       0.033  -0.105   6.245  0.00  0.00    -0.088 S 
ATOM     20  C   UNL     1       0.009   1.126   8.795  0.00  0.00    +0.043 C 
ATOM     21  C   UNL     1       0.711   0.814  10.122  0.00  0.00    +0.005 C 
ATOM     22  C   UNL     1      -0.322   0.266  11.101  0.00  0.00    +0.001 C 
ATOM     23  C   UNL     1      -0.944  -1.020  10.562  0.00  0.00    +0.005 C 
ATOM     24  C   UNL     1       0.086  -1.817   9.768  0.00  0.00    +0.036 C 
ENDBRANCH   2  15
TORSDOF 2
