REMARK  Name = ZINC12569983
REMARK  9 active torsions:
REMARK  status: ('A' for Active; 'I' for Inactive)
REMARK    1  A    between atoms: C_1  and  C_2
REMARK    2  A    between atoms: C_2  and  C_4
REMARK    3  A    between atoms: C_2  and  O_24
REMARK    4  A    between atoms: N_6  and  C_7
REMARK    5  A    between atoms: C_7  and  N_9
REMARK    6  A    between atoms: N_9  and  N_10
REMARK    7  A    between atoms: C_11  and  C_13
REMARK    8  A    between atoms: C_22  and  O_23
REMARK    9  A    between atoms: O_24  and  C_25
REMARK                            x       y       z     vdW  Elec       q    Type
REMARK                         _______ _______ _______ _____ _____    ______ ____
ROOT
ATOM      1  N   UNL     1      -5.394   4.269  -0.393  0.00  0.00    -0.245 N 
ATOM      2  H   UNL     1      -6.254   3.821  -0.358  0.00  0.00    +0.172 HD
ENDROOT
BRANCH   1   3
ATOM      3  N   UNL     1      -4.228   3.529  -0.630  0.00  0.00    -0.231 N 
ATOM      4  C   UNL     1      -4.302   2.195  -0.810  0.00  0.00    +0.264 C 
ATOM      5  O   UNL     1      -5.380   1.634  -0.767  0.00  0.00    -0.269 OA
ATOM      6  H   UNL     1      -3.369   3.976  -0.665  0.00  0.00    +0.173 HD
BRANCH   4   7
ATOM      7  C   UNL     1      -3.074   1.415  -1.060  0.00  0.00    +0.080 A 
ATOM      8  C   UNL     1      -1.847   2.058  -1.104  0.00  0.00    +0.025 A 
ATOM      9  C   UNL     1      -0.685   1.313  -1.346  0.00  0.00    -0.017 A 
ATOM     10  C   UNL     1       0.577   1.934  -1.401  0.00  0.00    +0.008 A 
ATOM     11  C   UNL     1       1.688   1.183  -1.632  0.00  0.00    +0.001 A 
ATOM     12  C   UNL     1       1.596  -0.196  -1.816  0.00  0.00    +0.001 A 
ATOM     13  C   UNL     1       0.393  -0.831  -1.770  0.00  0.00    +0.008 A 
ATOM     14  C   UNL     1      -0.778  -0.090  -1.534  0.00  0.00    -0.014 A 
ATOM     15  C   UNL     1      -2.033  -0.719  -1.480  0.00  0.00    +0.054 A 
ATOM     16  C   UNL     1      -3.156   0.019  -1.249  0.00  0.00    +0.130 A 
BRANCH  16  17
ATOM     17  O   UNL     1      -4.365  -0.595  -1.198  0.00  0.00    -0.506 OA
ATOM     18  H   UNL     1      -4.617  -0.896  -0.315  0.00  0.00    +0.292 HD
ENDBRANCH  16  17
ENDBRANCH   4   7
ENDBRANCH   1   3
BRANCH   1  19
ATOM     19  C   UNL     1      -5.321   5.602  -0.212  0.00  0.00    +0.153 C 
ATOM     20  S   UNL     1      -6.745   6.506   0.078  0.00  0.00    -0.017 S 
BRANCH  19  23
ATOM     21  C   UNL     1      -4.053   7.558  -0.080  0.00  0.00    +0.259 C 
ATOM     22  O   UNL     1      -5.061   8.198   0.125  0.00  0.00    -0.271 OA
ATOM     23  N   UNL     1      -4.126   6.224  -0.260  0.00  0.00    -0.264 N 
ATOM     24  H   UNL     1      -3.319   5.712  -0.425  0.00  0.00    +0.157 HD
BRANCH  21  26
ATOM     25  C   UNL     1      -1.844   7.772   1.028  0.00  0.00    +0.062 C 
ATOM     26  C   UNL     1      -2.716   8.253  -0.134  0.00  0.00    +0.256 C 
BRANCH  26  27
ATOM     27  O   UNL     1      -2.910   9.665  -0.031  0.00  0.00    -0.478 OA
BRANCH  27  28
ATOM     28  C   UNL     1      -1.946  10.460  -0.566  0.00  0.00    +0.140 A 
ATOM     29  C   UNL     1      -0.784   9.898  -1.074  0.00  0.00    +0.048 A 
ATOM     30  C   UNL     1       0.193  10.707  -1.620  0.00  0.00    +0.023 A 
ATOM     31  C   UNL     1       0.018  12.079  -1.653  0.00  0.00    +0.043 A 
ATOM     32  C   UNL     1      -1.137  12.644  -1.142  0.00  0.00    +0.043 A 
ATOM     33  C   UNL     1      -2.120  11.837  -0.599  0.00  0.00    +0.084 A 
ATOM     34 CL   UNL     1      -3.569  12.545   0.043  0.00  0.00    -0.080 Cl
ATOM     35 CL   UNL     1       1.250  13.094  -2.335  0.00  0.00    -0.083 Cl
ENDBRANCH  27  28
ENDBRANCH  26  27
ENDBRANCH  21  26
ENDBRANCH  19  23
ENDBRANCH   1  19
TORSDOF 8
