REMARK  Name = ZINC05353452
REMARK  8 active torsions:
REMARK  status: ('A' for Active; 'I' for Inactive)
REMARK    1  A    between atoms: C_1  and  O_2
REMARK    2  A    between atoms: O_2  and  C_3
REMARK    3  A    between atoms: C_8  and  C_9
REMARK    4  A    between atoms: C_13  and  C_14
REMARK    5  A    between atoms: C_17  and  O_21
REMARK    6  A    between atoms: C_19  and  O_20
REMARK    7  A    between atoms: O_21  and  C_22
REMARK    8  A    between atoms: C_22  and  C_23
REMARK                            x       y       z     vdW  Elec       q    Type
REMARK                         _______ _______ _______ _____ _____    ______ ____
ROOT
ATOM      1  C   UNL     1       1.116  -2.094   2.234  0.00  0.00    +0.062 A 
ATOM      2  C   UNL     1       0.035  -1.312   2.649  0.00  0.00    +0.019 A 
ATOM      3  C   UNL     1       0.111  -0.603   3.827  0.00  0.00    +0.046 A 
ATOM      4  C   UNL     1       1.260  -0.662   4.606  0.00  0.00    +0.124 A 
ATOM      5  C   UNL     1       2.339  -1.435   4.204  0.00  0.00    +0.091 A 
ATOM      6  C   UNL     1       2.273  -2.156   3.025  0.00  0.00    +0.131 A 
ENDROOT
BRANCH   1  11
ATOM      7  C   UNL     1       0.605  -2.374  -0.249  0.00  0.00    +0.052 A 
ATOM      8  C   UNL     1       0.702  -3.433  -1.178  0.00  0.00    +0.166 A 
ATOM      9  N   UNL     1       1.157  -4.482  -0.556  0.00  0.00    -0.085 NA
ATOM     10  O   UNL     1       1.375  -4.148   0.801  0.00  0.00    -0.354 OA
ATOM     11  C   UNL     1       1.039  -2.855   0.975  0.00  0.00    +0.178 A 
BRANCH   7  17
ATOM     12  C   UNL     1       1.014   0.082  -0.434  0.00  0.00    +0.128 A 
ATOM     13  C   UNL     1       0.565   1.364  -0.706  0.00  0.00    +0.046 A 
ATOM     14  C   UNL     1      -0.752   1.573  -1.069  0.00  0.00    +0.004 A 
ATOM     15  C   UNL     1      -1.629   0.507  -1.162  0.00  0.00    +0.001 A 
ATOM     16  C   UNL     1      -1.195  -0.775  -0.894  0.00  0.00    +0.012 A 
ATOM     17  C   UNL     1       0.132  -0.999  -0.533  0.00  0.00    +0.029 A 
BRANCH  12  19
ATOM     18  C   UNL     1       3.152   1.026   0.003  0.00  0.00    +0.277 C 
ATOM     19  O   UNL     1       2.309  -0.125  -0.077  0.00  0.00    -0.495 OA
ENDBRANCH  12  19
ENDBRANCH   7  17
ENDBRANCH   1  11
BRANCH   6  20
ATOM     20  O   UNL     1       3.326  -2.918   2.632  0.00  0.00    -0.506 OA
ATOM     21  H   UNL     1       3.967  -2.449   2.081  0.00  0.00    +0.292 HD
ENDBRANCH   6  20
BRANCH   4  22
ATOM     22  O   UNL     1       1.327   0.041   5.767  0.00  0.00    -0.487 OA
BRANCH  22  23
ATOM     23  C   UNL     1       0.181   0.817   6.122  0.00  0.00    +0.267 C 
BRANCH  23  24
ATOM     24  C   UNL     1       0.438   1.522   7.430  0.00  0.00    +0.025 A 
ATOM     25  C   UNL     1       1.648   1.358   8.078  0.00  0.00    +0.010 A 
ATOM     26  C   UNL     1       1.883   2.005   9.276  0.00  0.00    +0.001 A 
ATOM     27  C   UNL     1       0.909   2.815   9.829  0.00  0.00    +0.003 A 
ATOM     28  C   UNL     1      -0.301   2.981   9.183  0.00  0.00    +0.039 A 
ATOM     29  C   UNL     1      -0.536   2.338   7.979  0.00  0.00    +0.130 A 
ATOM     30  F   UNL     1      -1.717   2.503   7.344  0.00  0.00    -0.205 F 
ENDBRANCH  23  24
ENDBRANCH  22  23
ENDBRANCH   4  22
TORSDOF 7
