REMARK  Name = ZINC15226091
REMARK  7 active torsions:
REMARK  status: ('A' for Active; 'I' for Inactive)
REMARK    1  A    between atoms: C_1  and  C_2
REMARK    2  A    between atoms: C_2  and  C_3
REMARK    3  A    between atoms: C_3  and  N_4
REMARK    4  A    between atoms: C_14  and  S_15
REMARK    5  A    between atoms: S_15  and  C_16
REMARK    6  A    between atoms: C_16  and  C_17
REMARK    7  A    between atoms: N_19  and  N_20
REMARK                            x       y       z     vdW  Elec       q    Type
REMARK                         _______ _______ _______ _____ _____    ______ ____
ROOT
ATOM      1  C   UNL     1      -1.412  -0.526   0.013  0.00  0.00    +0.240 C 
ATOM      2  O   UNL     1      -2.344   0.250   0.026  0.00  0.00    -0.273 OA
ATOM      3  N   UNL     1      -1.640  -1.854   0.008  0.00  0.00    -0.223 N 
ATOM      4  H   UNL     1      -0.894  -2.474  -0.003  0.00  0.00    +0.174 HD
ENDROOT
BRANCH   3   5
ATOM      5  N   UNL     1      -2.954  -2.339   0.018  0.00  0.00    -0.137 N 
ATOM      6  C   UNL     1      -3.576  -2.866  -1.057  0.00  0.00    +0.263 C 
ATOM      7  O   UNL     1      -3.122  -3.006  -2.172  0.00  0.00    -0.271 OA
ATOM      8  C   UNL     1      -4.958  -3.247  -0.578  0.00  0.00    +0.114 C 
ATOM      9  C   UNL     1      -5.175  -4.749  -0.721  0.00  0.00    +0.035 C 
ATOM     10  C   UNL     1      -6.568  -5.118  -0.204  0.00  0.00    +0.003 C 
ATOM     11  C   UNL     1      -7.626  -4.355  -1.004  0.00  0.00    +0.000 C 
ATOM     12  C   UNL     1      -7.410  -2.850  -0.831  0.00  0.00    +0.003 C 
ATOM     13  C   UNL     1      -6.020  -2.472  -1.350  0.00  0.00    +0.035 C 
ATOM     14  N   UNL     1      -4.964  -2.858   0.838  0.00  0.00    -0.284 N 
ATOM     15  C   UNL     1      -3.747  -2.341   1.096  0.00  0.00    +0.326 C 
ATOM     16  O   UNL     1      -3.408  -1.922   2.185  0.00  0.00    -0.251 OA
ATOM     17  H   UNL     1      -5.698  -2.957   1.465  0.00  0.00    +0.151 HD
ENDBRANCH   3   5
BRANCH   1  18
ATOM     18  C   UNL     1       0.002  -0.004   0.002  0.00  0.00    +0.174 C 
BRANCH  18  19
ATOM     19  S   UNL     1      -0.022   1.806   0.012  0.00  0.00    -0.078 S 
BRANCH  19  30
ATOM     20  N   UNL     1       2.123   3.437  -0.005  0.00  0.00    -0.287 N 
ATOM     21  C   UNL     1       3.443   3.736  -0.011  0.00  0.00    +0.262 A 
ATOM     22  O   UNL     1       3.829   4.890  -0.009  0.00  0.00    -0.267 OA
ATOM     23  C   UNL     1       4.393   2.615  -0.026  0.00  0.00    +0.065 A 
ATOM     24  C   UNL     1       5.772   2.817  -0.038  0.00  0.00    +0.015 A 
ATOM     25  C   UNL     1       6.612   1.738  -0.051  0.00  0.00    +0.001 A 
ATOM     26  C   UNL     1       6.105   0.445  -0.053  0.00  0.00    +0.002 A 
ATOM     27  C   UNL     1       4.758   0.217  -0.042  0.00  0.00    +0.028 A 
ATOM     28  C   UNL     1       3.873   1.300  -0.028  0.00  0.00    +0.079 A 
ATOM     29  N   UNL     1       2.537   1.121  -0.016  0.00  0.00    -0.223 NA
ATOM     30  C   UNL     1       1.708   2.135  -0.003  0.00  0.00    +0.173 A 
BRANCH  20  31
ATOM     31  C   UNL     1       1.133   4.516   0.004  0.00  0.00    +0.127 C 
BRANCH  31  33
ATOM     32  C   UNL     1      -0.234   6.018   1.460  0.00  0.00    +0.005 C 
ATOM     33  C   UNL     1       0.801   4.891   1.450  0.00  0.00    +0.018 C 
ENDBRANCH  31  33
ENDBRANCH  20  31
ENDBRANCH  19  30
ENDBRANCH  18  19
ENDBRANCH   1  18
TORSDOF 6
