REMARK  Name = ZINC12848455
REMARK  7 active torsions:
REMARK  status: ('A' for Active; 'I' for Inactive)
REMARK    1  A    between atoms: C_1  and  C_2
REMARK    2  A    between atoms: C_2  and  C_3
REMARK    3  A    between atoms: C_10  and  C_12
REMARK    4  A    between atoms: C_18  and  C_27
REMARK    5  A    between atoms: C_21  and  C_23
REMARK    6  A    between atoms: C_30  and  O_33
REMARK    7  A    between atoms: O_33  and  C_34
REMARK                            x       y       z     vdW  Elec       q    Type
REMARK                         _______ _______ _______ _____ _____    ______ ____
ROOT
ATOM      1  C   UNL     1      -1.712   0.947  -3.661  0.00  0.00    +0.091 C 
ATOM      2  C   UNL     1      -2.879   1.662  -3.710  0.00  0.00    +0.104 C 
ATOM      3  N   UNL     1      -3.259   1.817  -5.004  0.00  0.00    -0.269 N 
ATOM      4  N   UNL     1      -2.348   1.184  -5.842  0.00  0.00    -0.226 N 
ATOM      5  C   UNL     1      -1.344   0.644  -5.050  0.00  0.00    +0.126 C 
ATOM      6  N   UNL     1      -0.317   0.002  -5.526  0.00  0.00    -0.364 N 
ATOM      7  C   UNL     1      -0.171  -0.129  -6.981  0.00  0.00    +0.113 C 
ATOM      8  C   UNL     1      -1.542  -0.198  -7.654  0.00  0.00    +0.062 C 
ATOM      9  C   UNL     1      -2.360   1.051  -7.303  0.00  0.00    +0.201 C 
ATOM     10  H   UNL     1      -4.048   2.298  -5.300  0.00  0.00    +0.170 HD
ATOM     11  H   UNL     1       0.342  -0.385  -4.928  0.00  0.00    +0.161 HD
ENDROOT
BRANCH   1  18
ATOM     12  C   UNL     1      -0.759  -0.755  -0.404  0.00  0.00    +0.076 C 
ATOM     13  C   UNL     1      -1.803  -0.746   0.718  0.00  0.00    +0.022 C 
ATOM     14  C   UNL     1      -2.947  -1.694   0.352  0.00  0.00    +0.003 C 
ATOM     15  C   UNL     1      -3.619  -1.213  -0.936  0.00  0.00    +0.019 C 
ATOM     16  C   UNL     1      -2.596  -1.228  -2.076  0.00  0.00    +0.108 C 
ATOM     17  N   UNL     1      -1.424  -0.437  -1.675  0.00  0.00    -0.294 N 
ATOM     18  C   UNL     1      -0.970   0.563  -2.456  0.00  0.00    +0.251 C 
ATOM     19  O   UNL     1       0.056   1.148  -2.160  0.00  0.00    -0.270 OA
BRANCH  12  21
ATOM     20  C   UNL     1       0.978  -0.017   1.233  0.00  0.00    +0.006 C 
ATOM     21  C   UNL     1       0.317   0.292  -0.112  0.00  0.00    +0.019 C 
ENDBRANCH  12  21
ENDBRANCH   1  18
BRANCH   7  22
ATOM     22  C   UNL     1       0.586   1.060  -7.514  0.00  0.00    -0.025 A 
ATOM     23  C   UNL     1       0.336   2.321  -7.005  0.00  0.00    +0.009 A 
ATOM     24  C   UNL     1       1.027   3.414  -7.492  0.00  0.00    +0.046 A 
ATOM     25  C   UNL     1       1.973   3.245  -8.492  0.00  0.00    +0.120 A 
ATOM     26  C   UNL     1       2.222   1.978  -9.001  0.00  0.00    +0.046 A 
ATOM     27  C   UNL     1       1.532   0.888  -8.507  0.00  0.00    +0.009 A 
BRANCH  25  28
ATOM     28  O   UNL     1       2.654   4.318  -8.973  0.00  0.00    -0.495 OA
ATOM     29  C   UNL     1       3.613   4.069 -10.003  0.00  0.00    +0.277 C 
ENDBRANCH  25  28
ENDBRANCH   7  22
BRANCH   9  30
ATOM     30  C   UNL     1      -3.799   0.902  -7.800  0.00  0.00    +0.410 C 
ATOM     31  F   UNL     1      -4.538   2.032  -7.434  0.00  0.00    -0.169 F 
ATOM     32  F   UNL     1      -3.800   0.776  -9.194  0.00  0.00    -0.169 F 
ATOM     33  F   UNL     1      -4.375  -0.237  -7.229  0.00  0.00    -0.169 F 
ENDBRANCH   9  30
TORSDOF 5
