REMARK  Name = ZINC20028270
REMARK  3 active torsions:
REMARK  status: ('A' for Active; 'I' for Inactive)
REMARK    1  A    between atoms: C_1  and  C_2
REMARK    2  A    between atoms: C_8  and  C_14
REMARK    3  A    between atoms: N_23  and  C_26
REMARK                            x       y       z     vdW  Elec       q    Type
REMARK                         _______ _______ _______ _____ _____    ______ ____
ROOT
ATOM      1  C   UNL     1      -0.141   1.661  -0.245  0.00  0.00    +0.066 C 
ATOM      2  C   UNL     1      -0.032   0.163  -0.130  0.00  0.00    +0.047 C 
ATOM      3  N   UNL     1      -0.164  -0.588  -1.215  0.00  0.00    -0.219 NA
ATOM      4  C   UNL     1      -0.076  -1.913  -1.166  0.00  0.00    +0.229 C 
ATOM      5  N   UNL     1      -0.216  -2.626  -2.289  0.00  0.00    -0.182 NA
ATOM      6  C   UNL     1      -0.146  -3.936  -2.343  0.00  0.00    +0.196 C 
ATOM      7  N   UNL     1       0.081  -4.699  -1.233  0.00  0.00    -0.335 N 
ATOM      8  C   UNL     1       0.249  -4.004   0.057  0.00  0.00    +0.211 C 
ATOM      9  N   UNL     1       0.157  -2.538   0.030  0.00  0.00    -0.211 N 
ATOM     10  C   UNL     1       0.301  -1.806   1.177  0.00  0.00    +0.249 C 
ATOM     11  C   UNL     1       0.207  -0.405   1.090  0.00  0.00    +0.091 C 
ATOM     12  O   UNL     1       0.509  -2.353   2.248  0.00  0.00    -0.270 OA
ATOM     13  N   UNL     1      -0.306  -4.557  -3.549  0.00  0.00    -0.298 N 
ATOM     14  C   UNL     1      -1.245  -4.024  -4.546  0.00  0.00    +0.127 C 
ATOM     15  C   UNL     1      -0.486  -3.789  -5.858  0.00  0.00    +0.124 C 
ATOM     16  N   UNL     1       0.278  -5.001  -6.182  0.00  0.00    -0.327 N 
ATOM     17  C   UNL     1       1.217  -5.534  -5.185  0.00  0.00    +0.124 C 
ATOM     18  C   UNL     1       0.463  -5.766  -3.875  0.00  0.00    +0.127 C 
ATOM     19  H   UNL     1       0.129  -5.666  -1.291  0.00  0.00    +0.164 HD
ENDROOT
BRANCH   8  20
ATOM     20  C   UNL     1      -0.801  -4.520   1.006  0.00  0.00    -0.007 A 
ATOM     21  C   UNL     1      -2.137  -4.462   0.655  0.00  0.00    +0.007 A 
ATOM     22  C   UNL     1      -3.102  -4.936   1.526  0.00  0.00    +0.000 A 
ATOM     23  C   UNL     1      -2.730  -5.467   2.746  0.00  0.00    +0.000 A 
ATOM     24  C   UNL     1      -1.394  -5.526   3.096  0.00  0.00    +0.000 A 
ATOM     25  C   UNL     1      -0.429  -5.057   2.224  0.00  0.00    +0.007 A 
ENDBRANCH   8  20
BRANCH  16  26
ATOM     26  C   UNL     1       0.115  -5.636  -7.415  0.00  0.00    +0.030 A 
ATOM     27  C   UNL     1      -0.676  -5.054  -8.398  0.00  0.00    +0.023 A 
ATOM     28  C   UNL     1      -0.835  -5.684  -9.617  0.00  0.00    +0.002 A 
ATOM     29  C   UNL     1      -0.209  -6.894  -9.859  0.00  0.00    +0.000 A 
ATOM     30  C   UNL     1       0.579  -7.476  -8.882  0.00  0.00    +0.002 A 
ATOM     31  C   UNL     1       0.747  -6.848  -7.663  0.00  0.00    +0.023 A 
ENDBRANCH  16  26
TORSDOF 2
