REMARK  Name = ZINC09813748
REMARK  6 active torsions:
REMARK  status: ('A' for Active; 'I' for Inactive)
REMARK    1  A    between atoms: C_12  and  C_14
REMARK    2  A    between atoms: C_14  and  O_16
REMARK    3  A    between atoms: O_16  and  C_17
REMARK    4  A    between atoms: C_17  and  C_18
REMARK    5  A    between atoms: N_20  and  N_21
REMARK    6  A    between atoms: C_22  and  C_24
REMARK                            x       y       z     vdW  Elec       q    Type
REMARK                         _______ _______ _______ _____ _____    ______ ____
ROOT
ATOM      1  C   UNL     1      10.661  -0.736   0.623  0.00  0.00    +0.267 C 
ATOM      2  O   UNL     1      10.203   0.370   0.818  0.00  0.00    -0.271 OA
ATOM      3  N   UNL     1      11.989  -0.943   0.721  0.00  0.00    -0.231 N 
ATOM      4  H   UNL     1      12.354  -1.828   0.565  0.00  0.00    +0.173 HD
ENDROOT
BRANCH   3   5
ATOM      5  N   UNL     1      12.841   0.120   1.049  0.00  0.00    -0.231 N 
ATOM      6  C   UNL     1      14.169  -0.087   1.147  0.00  0.00    +0.273 C 
ATOM      7  O   UNL     1      14.626  -1.193   0.952  0.00  0.00    -0.270 OA
ATOM      8  H   UNL     1      12.475   1.004   1.205  0.00  0.00    +0.173 HD
BRANCH   6   9
ATOM      9  C   UNL     1      15.086   1.056   1.499  0.00  0.00    +0.297 C 
ATOM     10  C   UNL     1      15.069   2.099   0.373  0.00  0.00    +0.283 C 
ATOM     11  O   UNL     1      15.959   3.161   0.733  0.00  0.00    -0.484 OA
ATOM     12  C   UNL     1      17.182   2.800   1.208  0.00  0.00    +0.162 A 
ATOM     13  C   UNL     1      18.206   3.735   1.232  0.00  0.00    +0.049 A 
ATOM     14  C   UNL     1      19.453   3.384   1.714  0.00  0.00    +0.004 A 
ATOM     15  C   UNL     1      19.683   2.100   2.174  0.00  0.00    +0.004 A 
ATOM     16  C   UNL     1      18.667   1.164   2.151  0.00  0.00    +0.049 A 
ATOM     17  C   UNL     1      17.414   1.509   1.667  0.00  0.00    +0.163 A 
ATOM     18  O   UNL     1      16.425   0.573   1.645  0.00  0.00    -0.472 OA
ENDBRANCH   6   9
ENDBRANCH   3   5
BRANCH   1  19
ATOM     19  C   UNL     1       9.744  -1.879   0.270  0.00  0.00    +0.329 C 
BRANCH  19  20
ATOM     20  O   UNL     1       8.394  -1.412   0.227  0.00  0.00    -0.451 OA
BRANCH  20  21
ATOM     21  C   UNL     1       7.441  -2.317  -0.076  0.00  0.00    +0.346 C 
ATOM     22  O   UNL     1       7.750  -3.473  -0.299  0.00  0.00    -0.244 OA
BRANCH  21  34
ATOM     23  C   UNL     1      -0.017   1.379   0.010  0.00  0.00    +0.000 A 
ATOM     24  C   UNL     1       1.165   2.099   0.002  0.00  0.00    +0.001 A 
ATOM     25  C   UNL     1       2.377   1.436  -0.030  0.00  0.00    +0.009 A 
ATOM     26  C   UNL     1       2.401   0.048  -0.056  0.00  0.00    -0.008 A 
ATOM     27  C   UNL     1       1.202  -0.683  -0.013  0.00  0.00    -0.039 A 
ATOM     28  C   UNL     1       0.002  -0.004   0.002  0.00  0.00    +0.004 A 
ATOM     29  C   UNL     1       1.235  -2.183   0.064  0.00  0.00    +0.040 C 
ATOM     30  C   UNL     1       2.365  -2.801  -0.750  0.00  0.00    +0.041 C 
ATOM     31  C   UNL     1       3.677  -2.093  -0.435  0.00  0.00    -0.031 A 
ATOM     32  C   UNL     1       3.634  -0.730  -0.123  0.00  0.00    +0.024 A 
ATOM     33  S   UNL     1       5.324  -0.294   0.141  0.00  0.00    -0.082 S 
ATOM     34  C   UNL     1       6.038  -1.910  -0.139  0.00  0.00    +0.097 A 
ATOM     35  C   UNL     1       4.919  -2.678  -0.430  0.00  0.00    +0.027 A 
ENDBRANCH  21  34
ENDBRANCH  20  21
ENDBRANCH  19  20
ENDBRANCH   1  19
TORSDOF 6
