REMARK  Name = ZINC39943819
REMARK  12 active torsions:
REMARK  status: ('A' for Active; 'I' for Inactive)
REMARK    1  A    between atoms: C_1  and  C_2
REMARK    2  A    between atoms: C_2  and  C_3
REMARK    3  A    between atoms: C_3  and  C_23
REMARK    4  A    between atoms: N_4  and  N_5
REMARK    5  A    between atoms: C_6  and  C_8
REMARK    6  A    between atoms: C_11  and  C_19
REMARK    7  A    between atoms: C_19  and  C_20
REMARK    8  A    between atoms: C_19  and  C_21
REMARK    9  A    between atoms: C_19  and  C_22
REMARK   10  A    between atoms: C_26  and  O_29
REMARK   11  A    between atoms: O_29  and  C_30
REMARK   12  A    between atoms: C_30  and  C_31
REMARK                            x       y       z     vdW  Elec       q    Type
REMARK                         _______ _______ _______ _____ _____    ______ ____
ROOT
ATOM      1  N   UNL     1      -1.386  -0.495  -2.325  0.00  0.00    -0.201 N 
ATOM      2  C   UNL     1      -2.029  -0.722  -3.487  0.00  0.00    +0.283 C 
ATOM      3  O   UNL     1      -3.170  -1.143  -3.479  0.00  0.00    -0.267 OA
ATOM      4  H   UNL     1      -0.476  -0.160  -2.332  0.00  0.00    +0.178 HD
ENDROOT
BRANCH   2   5
ATOM      5  C   UNL     1      -1.349  -0.460  -4.772  0.00  0.00    +0.150 C 
ATOM      6  C   UNL     1      -1.888  -0.642  -5.976  0.00  0.00    -0.011 C 
ATOM      7  C   UNL     1      -3.162  -1.302  -6.423  0.00  0.00    +0.039 C 
ATOM      8  C   UNL     1      -2.764  -2.365  -7.463  0.00  0.00    -0.001 C 
ATOM      9  C   UNL     1      -1.857  -1.745  -8.524  0.00  0.00    +0.007 C 
ATOM     10  C   UNL     1      -0.537  -1.258  -7.916  0.00  0.00    +0.033 C 
ATOM     11  C   UNL     1      -0.845  -0.110  -6.952  0.00  0.00    +0.156 C 
ATOM     12  N   UNL     1       0.286   0.198  -6.072  0.00  0.00    -0.179 NA
ATOM     13  N   UNL     1      -0.074   0.012  -4.903  0.00  0.00    -0.149 NA
BRANCH   8  14
ATOM     14  C   UNL     1      -4.024  -2.915  -8.135  0.00  0.00    -0.035 C 
ATOM     15  C   UNL     1      -4.771  -1.775  -8.829  0.00  0.00    +0.011 C 
ATOM     16  C   UNL     1      -3.630  -3.972  -9.169  0.00  0.00    +0.011 C 
ATOM     17  C   UNL     1      -4.930  -3.550  -7.077  0.00  0.00    +0.011 C 
ENDBRANCH   8  14
ENDBRANCH   2   5
BRANCH   1  19
ATOM     18  C   UNL     1      -1.412  -0.526   0.013  0.00  0.00    +0.066 C 
ATOM     19  N   UNL     1      -2.031  -0.744  -1.107  0.00  0.00    -0.184 NA
BRANCH  18  20
ATOM     20  C   UNL     1      -2.091  -0.788   1.294  0.00  0.00    -0.002 A 
ATOM     21  C   UNL     1      -1.428  -0.548   2.501  0.00  0.00    +0.013 A 
ATOM     22  C   UNL     1      -2.067  -0.794   3.697  0.00  0.00    +0.046 A 
ATOM     23  C   UNL     1      -3.368  -1.280   3.704  0.00  0.00    +0.121 A 
ATOM     24  C   UNL     1      -4.031  -1.521   2.507  0.00  0.00    +0.046 A 
ATOM     25  C   UNL     1      -3.402  -1.271   1.307  0.00  0.00    +0.013 A 
BRANCH  23  26
ATOM     26  O   UNL     1      -3.994  -1.522   4.885  0.00  0.00    -0.492 OA
BRANCH  26  27
ATOM     27  C   UNL     1      -5.331  -2.021   4.821  0.00  0.00    +0.225 C 
ATOM     28  C   UNL     1      -5.867  -2.230   6.239  0.00  0.00    +0.048 C 
ENDBRANCH  26  27
ENDBRANCH  23  26
ENDBRANCH  18  20
BRANCH  18  30
ATOM     29  C   UNL     1      -0.019   1.526   0.010  0.00  0.00    +0.010 C 
ATOM     30  C   UNL     1       0.002  -0.004   0.002  0.00  0.00    +0.054 C 
ENDBRANCH  18  30
ENDBRANCH   1  19
TORSDOF 7
