REMARK  Name = ZINC50931013
REMARK  4 active torsions:
REMARK  status: ('A' for Active; 'I' for Inactive)
REMARK    1  A    between atoms: C_5  and  C_8
REMARK    2  A    between atoms: C_8  and  C_9
REMARK    3  A    between atoms: C_9  and  C_10
REMARK    4  A    between atoms: C_18  and  N_21
REMARK                            x       y       z     vdW  Elec       q    Type
REMARK                         _______ _______ _______ _____ _____    ______ ____
ROOT
ATOM      1  C   UNL     1       0.182   1.578   0.009  0.00  0.00    +0.003 C 
ATOM      2  C   UNL     1       1.682   1.847  -0.139  0.00  0.00    +0.019 C 
ATOM      3  C   UNL     1       2.418   1.297   1.086  0.00  0.00    +0.109 C 
ATOM      4  N   UNL     1       2.073  -0.121   1.249  0.00  0.00    -0.282 N 
ATOM      5  C   UNL     1       0.655  -0.501   1.312  0.00  0.00    +0.078 C 
ATOM      6  C   UNL     1      -0.062   0.069   0.083  0.00  0.00    +0.022 C 
ATOM      7  C   UNL     1       3.039  -1.057   1.339  0.00  0.00    +0.305 C 
ATOM      8  O   UNL     1       2.740  -2.225   1.498  0.00  0.00    -0.252 OA
ATOM      9  N   UNL     1       4.335  -0.699   1.254  0.00  0.00    -0.287 N 
ATOM     10  C   UNL     1       4.833   0.661   0.999  0.00  0.00    +0.107 C 
ATOM     11  C   UNL     1       6.373   0.586   0.961  0.00  0.00    +0.004 C 
ATOM     12  C   UNL     1       6.641  -0.907   0.635  0.00  0.00    -0.056 C 
ATOM     13  C   UNL     1       5.489  -1.603   1.407  0.00  0.00    +0.093 C 
ENDROOT
BRANCH  12  14
ATOM     14  N   UNL     1       7.949  -1.333   1.149  0.00  0.00    +0.381 N 
ATOM     15  H   UNL     1       7.982  -1.189   2.147  0.00  0.00    -0.090 HD
ATOM     16  H   UNL     1       8.089  -2.311   0.945  0.00  0.00    -0.090 HD
ATOM     17  H   UNL     1       8.677  -0.791   0.707  0.00  0.00    -0.090 HD
ENDBRANCH  12  14
BRANCH   5  18
ATOM     18  C   UNL     1       0.532  -2.026   1.320  0.00  0.00    +0.034 C 
BRANCH  18  19
ATOM     19  C   UNL     1      -0.947  -2.418   1.320  0.00  0.00    +0.127 C 
BRANCH  19  20
ATOM     20  C   UNL     1      -1.070  -3.914   1.455  0.00  0.00    +0.356 C 
ATOM     21  O   UNL     1      -0.068  -4.602   1.543  0.00  0.00    -0.246 OA
ATOM     22  O   UNL     1      -2.172  -4.435   1.476  0.00  0.00    -0.246 OA
ENDBRANCH  19  20
ENDBRANCH  18  19
ENDBRANCH   5  18
TORSDOF 4
