REMARK  Name = ZINC12698327
REMARK  9 active torsions:
REMARK  status: ('A' for Active; 'I' for Inactive)
REMARK    1  A    between atoms: C_1  and  C_2
REMARK    2  A    between atoms: C_3  and  C_14
REMARK    3  A    between atoms: C_4  and  C_13
REMARK    4  A    between atoms: C_9  and  S_11
REMARK    5  A    between atoms: S_11  and  C_12
REMARK    6  A    between atoms: C_14  and  C_15
REMARK    7  A    between atoms: C_15  and  C_16
REMARK    8  A    between atoms: N_18  and  N_19
REMARK    9  A    between atoms: C_20  and  C_22
REMARK                            x       y       z     vdW  Elec       q    Type
REMARK                         _______ _______ _______ _____ _____    ______ ____
ROOT
ATOM      1  C   UNL     1       4.832   6.207  -1.454  0.00  0.00    +0.229 C 
ATOM      2  O   UNL     1       5.115   6.743  -0.404  0.00  0.00    -0.274 OA
ATOM      3  N   UNL     1       5.124   6.815  -2.621  0.00  0.00    -0.234 N 
ATOM      4  H   UNL     1       4.898   6.387  -3.461  0.00  0.00    +0.173 HD
ENDROOT
BRANCH   3   5
ATOM      5  N   UNL     1       5.756   8.066  -2.620  0.00  0.00    -0.230 N 
ATOM      6  C   UNL     1       6.048   8.674  -3.787  0.00  0.00    +0.267 C 
ATOM      7  O   UNL     1       5.764   8.136  -4.841  0.00  0.00    -0.268 OA
ATOM      8  H   UNL     1       5.982   8.495  -1.780  0.00  0.00    +0.173 HD
BRANCH   6   9
ATOM      9  C   UNL     1       6.709   9.983  -3.786  0.00  0.00    +0.076 A 
ATOM     10  C   UNL     1       7.091  10.766  -4.853  0.00  0.00    +0.024 A 
ATOM     11  C   UNL     1       7.700  11.995  -4.588  0.00  0.00    -0.036 A 
ATOM     12  C   UNL     1       7.923  12.302  -3.295  0.00  0.00    -0.006 A 
ATOM     13  S   UNL     1       7.222  10.985  -2.405  0.00  0.00    -0.088 S 
ATOM     14  C   UNL     1       8.655  13.435  -2.623  0.00  0.00    +0.043 C 
ATOM     15  C   UNL     1       9.270  14.407  -3.631  0.00  0.00    +0.005 C 
ATOM     16  C   UNL     1       8.219  15.364  -4.167  0.00  0.00    +0.000 C 
ATOM     17  C   UNL     1       6.873  14.700  -4.377  0.00  0.00    +0.000 C 
ATOM     18  C   UNL     1       6.911  14.035  -5.756  0.00  0.00    +0.005 C 
ATOM     19  C   UNL     1       7.977  12.940  -5.749  0.00  0.00    +0.036 C 
ENDBRANCH   6   9
ENDBRANCH   3   5
BRANCH   1  20
ATOM     20  C   UNL     1       4.153   4.862  -1.455  0.00  0.00    +0.102 C 
BRANCH  20  21
ATOM     21  C   UNL     1       3.937   4.399  -0.013  0.00  0.00    +0.048 C 
BRANCH  21  24
ATOM     22  C   UNL     1       5.522   1.956  -0.041  0.00  0.00    +0.066 C 
ATOM     23  C   UNL     1       4.017   1.878  -0.027  0.00  0.00    +0.047 A 
ATOM     24  C   UNL     1       3.258   3.054  -0.013  0.00  0.00    -0.005 A 
ATOM     25  C   UNL     1       1.902   2.968  -0.001  0.00  0.00    +0.048 A 
ATOM     26  N   UNL     1       1.318   1.742  -0.001  0.00  0.00    -0.200 N 
ATOM     27  C   UNL     1       2.088   0.612  -0.015  0.00  0.00    +0.254 A 
ATOM     28  N   UNL     1       3.423   0.706  -0.027  0.00  0.00    -0.216 NA
ATOM     29  N   UNL     1       1.263  -0.430  -0.012  0.00  0.00    -0.183 NA
ATOM     30  C   UNL     1       0.002  -0.004   0.002  0.00  0.00    +0.211 A 
ATOM     31  N   UNL     1      -0.016   1.314   0.009  0.00  0.00    -0.137 NA
ATOM     32  C   UNL     1       1.058   4.216   0.014  0.00  0.00    +0.066 C 
BRANCH  30  33
ATOM     33  S   UNL     1      -1.422  -1.041   0.009  0.00  0.00    -0.088 S 
ATOM     34  C   UNL     1      -0.741  -2.723  -0.006  0.00  0.00    +0.093 C 
ENDBRANCH  30  33
ENDBRANCH  21  24
ENDBRANCH  20  21
ENDBRANCH   1  20
TORSDOF 6
