REMARK  Name = ZINC34922807
REMARK  14 active torsions:
REMARK  status: ('A' for Active; 'I' for Inactive)
REMARK    1  A    between atoms: C_1  and  C_2
REMARK    2  A    between atoms: C_2  and  O_3
REMARK    3  A    between atoms: O_3  and  C_4
REMARK    4  A    between atoms: C_4  and  C_6
REMARK    5  A    between atoms: C_7  and  C_37
REMARK    6  A    between atoms: C_11  and  C_13
REMARK    7  A    between atoms: C_17  and  O_19
REMARK    8  A    between atoms: O_19  and  C_20
REMARK    9  A    between atoms: C_21  and  C_24
REMARK   10  A    between atoms: C_25  and  N_27
REMARK   11  A    between atoms: N_27  and  C_28
REMARK   12  A    between atoms: C_28  and  C_29
REMARK   13  A    between atoms: C_29  and  C_30
REMARK   14  A    between atoms: N_35  and  C_36
REMARK                            x       y       z     vdW  Elec       q    Type
REMARK                         _______ _______ _______ _____ _____    ______ ____
ROOT
ATOM      1  C   UNL     1      -2.555  -2.121  -0.654  0.00  0.00    +0.082 C 
ATOM      2  C   UNL     1      -2.720  -3.429  -1.065  0.00  0.00    +0.053 C 
ATOM      3  N   UNL     1      -3.933  -3.924  -1.256  0.00  0.00    -0.230 NA
ATOM      4  C   UNL     1      -5.053  -3.255  -1.081  0.00  0.00    +0.166 C 
ATOM      5  N   UNL     1      -5.107  -1.950  -0.677  0.00  0.00    -0.267 N 
ATOM      6  C   UNL     1      -3.798  -1.290  -0.427  0.00  0.00    +0.150 C 
ATOM      7  C   UNL     1      -6.361  -1.388  -0.540  0.00  0.00    +0.048 C 
ATOM      8  C   UNL     1      -7.431  -2.166  -0.814  0.00  0.00    +0.072 C 
ATOM      9  S   UNL     1      -6.659  -3.706  -1.270  0.00  0.00    -0.060 S 
ATOM     10  C   UNL     1      -1.512  -4.299  -1.299  0.00  0.00    +0.066 C 
ENDROOT
BRANCH   6  11
ATOM     11  C   UNL     1      -3.781  -0.810   1.001  0.00  0.00    -0.019 A 
ATOM     12  C   UNL     1      -4.041  -1.695   2.031  0.00  0.00    +0.006 A 
ATOM     13  C   UNL     1      -4.026  -1.257   3.342  0.00  0.00    +0.004 A 
ATOM     14  C   UNL     1      -3.752   0.067   3.627  0.00  0.00    +0.045 A 
ATOM     15  C   UNL     1      -3.490   0.957   2.595  0.00  0.00    +0.120 A 
ATOM     16  C   UNL     1      -3.500   0.513   1.280  0.00  0.00    +0.051 A 
BRANCH  15  17
ATOM     17  O   UNL     1      -3.220   2.259   2.873  0.00  0.00    -0.495 OA
ATOM     18  C   UNL     1      -3.221   2.643   4.249  0.00  0.00    +0.277 C 
ENDBRANCH  15  17
ENDBRANCH   6  11
BRANCH   7  19
ATOM     19  C   UNL     1      -6.526   0.009  -0.111  0.00  0.00    +0.091 C 
ATOM     20  C   UNL     1      -7.749   0.573  -0.112  0.00  0.00    +0.239 C 
ATOM     21  O   UNL     1      -8.841  -0.176  -0.397  0.00  0.00    -0.271 OA
BRANCH  20  22
ATOM     22  N   UNL     1      -7.890   1.920   0.179  0.00  0.00    -0.312 N 
ATOM     23  H   UNL     1      -7.103   2.473   0.310  0.00  0.00    +0.149 HD
BRANCH  22  24
ATOM     24  C   UNL     1      -9.226   2.510   0.289  0.00  0.00    +0.103 C 
BRANCH  24  25
ATOM     25  C   UNL     1      -9.101   4.021   0.493  0.00  0.00    +0.003 C 
BRANCH  25  26
ATOM     26  C   UNL     1     -10.489   4.619   0.737  0.00  0.00    -0.068 C 
ATOM     27  C   UNL     1     -11.355   4.469  -0.531  0.00  0.00    -0.017 C 
ATOM     28  C   UNL     1     -12.149   5.801  -0.571  0.00  0.00    -0.020 C 
ATOM     29  C   UNL     1     -11.102   6.806  -0.029  0.00  0.00    -0.079 C 
ATOM     30  N   UNL     1     -10.370   6.060   1.022  0.00  0.00    +0.380 N 
ATOM     31  C   UNL     1      -8.955   6.452   1.012  0.00  0.00    -0.096 C 
ATOM     32  H   UNL     1     -10.771   6.262   1.926  0.00  0.00    -0.082 HD
ENDBRANCH  25  26
ENDBRANCH  24  25
ENDBRANCH  22  24
ENDBRANCH  20  22
ENDBRANCH   7  19
BRANCH   1  33
ATOM     33  C   UNL     1      -1.278  -1.583  -0.449  0.00  0.00    +0.339 C 
ATOM     34  O   UNL     1      -0.297  -2.303  -0.508  0.00  0.00    -0.245 OA
BRANCH  33  35
ATOM     35  O   UNL     1      -1.135  -0.265  -0.185  0.00  0.00    -0.462 OA
BRANCH  35  37
ATOM     36  C   UNL     1       0.159   1.718   0.298  0.00  0.00    +0.048 C 
ATOM     37  C   UNL     1       0.196   0.215   0.014  0.00  0.00    +0.229 C 
ENDBRANCH  35  37
ENDBRANCH  33  35
ENDBRANCH   1  33
TORSDOF 10
