REMARK  Name = ZINC17191854
REMARK  11 active torsions:
REMARK  status: ('A' for Active; 'I' for Inactive)
REMARK    1  A    between atoms: C_1  and  C_2
REMARK    2  A    between atoms: C_6  and  C_29
REMARK    3  A    between atoms: C_7  and  N_8
REMARK    4  A    between atoms: C_9  and  C_11
REMARK    5  A    between atoms: C_11  and  C_17
REMARK    6  A    between atoms: N_12  and  N_13
REMARK    7  A    between atoms: N_13  and  C_14
REMARK    8  A    between atoms: C_14  and  N_16
REMARK    9  A    between atoms: C_17  and  C_19
REMARK   10  A    between atoms: C_17  and  C_20
REMARK   11  A    between atoms: C_20  and  C_22
REMARK                            x       y       z     vdW  Elec       q    Type
REMARK                         _______ _______ _______ _____ _____    ______ ____
ROOT
ATOM      1  C   UNL     1      -1.368  -1.309   0.867  0.00  0.00    +0.131 C 
ATOM      2  N   UNL     1      -0.516  -1.197   1.845  0.00  0.00    -0.180 NA
ENDROOT
BRANCH   1   4
ATOM      3  N   UNL     1      -3.499  -2.168   0.057  0.00  0.00    -0.280 N 
ATOM      4  C   UNL     1      -2.579  -2.116   1.040  0.00  0.00    +0.265 C 
ATOM      5  O   UNL     1      -2.753  -2.739   2.070  0.00  0.00    -0.268 OA
ATOM      6  H   UNL     1      -3.301  -1.681  -0.909  0.00  0.00    +0.155 HD
BRANCH   3  13
ATOM      7  C   UNL     1      -3.397  -4.911   0.808  0.00  0.00    +0.045 C 
ATOM      8  C   UNL     1      -4.703  -4.181   0.633  0.00  0.00    -0.029 A 
ATOM      9  C   UNL     1      -5.898  -4.841   0.842  0.00  0.00    +0.005 A 
ATOM     10  C   UNL     1      -7.097  -4.173   0.677  0.00  0.00    +0.001 A 
ATOM     11  C   UNL     1      -7.105  -2.841   0.306  0.00  0.00    +0.005 A 
ATOM     12  C   UNL     1      -5.914  -2.173   0.100  0.00  0.00    -0.029 A 
ATOM     13  C   UNL     1      -4.707  -2.841   0.265  0.00  0.00    +0.040 A 
ATOM     14  C   UNL     1      -5.923  -0.721  -0.304  0.00  0.00    +0.045 C 
ENDBRANCH   3  13
ENDBRANCH   1   4
BRANCH   2  15
ATOM     15  N   UNL     1      -0.644  -2.005   2.982  0.00  0.00    -0.218 N 
ATOM     16  H   UNL     1      -1.404  -2.799   3.009  0.00  0.00    +0.176 HD
BRANCH  15  17
ATOM     17  C   UNL     1       0.166  -1.810   4.042  0.00  0.00    +0.147 C 
ATOM     18  S   UNL     1       0.009  -2.799   5.431  0.00  0.00    -0.017 S 
BRANCH  17  19
ATOM     19  N   UNL     1       1.098  -0.838   4.008  0.00  0.00    -0.339 N 
ATOM     20  H   UNL     1       1.758  -0.678   4.873  0.00  0.00    +0.144 HD
ATOM     21  H   UNL     1       1.198  -0.203   3.115  0.00  0.00    +0.144 HD
ENDBRANCH  17  19
ENDBRANCH  15  17
ENDBRANCH   2  15
BRANCH   1  22
ATOM     22  C   UNL     1      -1.109  -0.609  -0.442  0.00  0.00    +0.112 C 
ATOM     23  C   UNL     1      -0.903  -1.649  -1.545  0.00  0.00    +0.022 C 
BRANCH  22  24
ATOM     24  C   UNL     1       0.127   0.245  -0.319  0.00  0.00    +0.172 C 
ATOM     25  O   UNL     1       1.017  -0.082   0.436  0.00  0.00    -0.291 OA
BRANCH  24  26
ATOM     26  C   UNL     1       0.253   1.475  -1.116  0.00  0.00    +0.018 A 
ATOM     27  C   UNL     1      -0.769   1.852  -1.993  0.00  0.00    +0.013 A 
ATOM     28  C   UNL     1      -0.647   3.009  -2.732  0.00  0.00    +0.020 A 
ATOM     29  C   UNL     1       0.491   3.791  -2.617  0.00  0.00    +0.041 A 
ATOM     30  C   UNL     1       1.511   3.421  -1.755  0.00  0.00    +0.020 A 
ATOM     31  C   UNL     1       1.399   2.270  -1.005  0.00  0.00    +0.013 A 
ATOM     32 CL   UNL     1       0.640   5.243  -3.558  0.00  0.00    -0.084 Cl
ENDBRANCH  24  26
ENDBRANCH  22  24
ENDBRANCH   1  22
TORSDOF 8
