REMARK  Name = ZINC66135945
REMARK  9 active torsions:
REMARK  status: ('A' for Active; 'I' for Inactive)
REMARK    1  A    between atoms: C_1  and  C_2
REMARK    2  A    between atoms: C_2  and  C_3
REMARK    3  A    between atoms: C_3  and  C_5
REMARK    4  A    between atoms: C_3  and  O_17
REMARK    5  A    between atoms: C_6  and  C_13
REMARK    6  A    between atoms: C_7  and  C_12
REMARK    7  A    between atoms: N_15  and  C_16
REMARK    8  A    between atoms: O_17  and  C_18
REMARK    9  A    between atoms: C_21  and  C_24
REMARK                            x       y       z     vdW  Elec       q    Type
REMARK                         _______ _______ _______ _____ _____    ______ ____
ROOT
ATOM      1  C   UNL     1       1.042  -1.991  -1.363  0.00  0.00    +0.099 A 
ATOM      2  C   UNL     1       2.331  -2.477  -1.107  0.00  0.00    +0.083 A 
ATOM      3  C   UNL     1       2.549  -3.858  -1.192  0.00  0.00    +0.056 A 
ATOM      4  N   UNL     1       1.540  -4.647  -1.510  0.00  0.00    -0.219 NA
ATOM      5  C   UNL     1       0.333  -4.148  -1.746  0.00  0.00    +0.213 A 
ATOM      6  N   UNL     1       0.085  -2.846  -1.670  0.00  0.00    -0.215 NA
ATOM      7  N   UNL     1      -0.694  -5.007  -2.075  0.00  0.00    -0.327 N 
ATOM      8  C   UNL     1       3.916  -4.435  -0.926  0.00  0.00    +0.066 C 
ATOM      9  H   UNL     1      -0.529  -5.961  -2.131  0.00  0.00    +0.145 HD
ATOM     10  H   UNL     1      -1.582  -4.657  -2.250  0.00  0.00    +0.145 HD
ENDROOT
BRANCH   2  11
ATOM     11  C   UNL     1       3.430  -1.557  -0.755  0.00  0.00    +0.247 C 
ATOM     12  O   UNL     1       3.642  -1.280   0.410  0.00  0.00    -0.270 OA
ATOM     13  N   UNL     1       4.200  -1.026  -1.725  0.00  0.00    -0.314 N 
ATOM     14  C   UNL     1       5.292  -0.113  -1.376  0.00  0.00    +0.128 C 
ATOM     15  H   UNL     1       4.032  -1.247  -2.654  0.00  0.00    +0.149 HD
ENDBRANCH   2  11
BRANCH   1  16
ATOM     16  C   UNL     1       0.751  -0.514  -1.285  0.00  0.00    +0.222 C 
BRANCH  16  18
ATOM     17  C   UNL     1      -0.203   1.298   0.145  0.00  0.00    +0.008 C 
ATOM     18  C   UNL     1      -0.017  -0.214   0.004  0.00  0.00    +0.048 C 
ENDBRANCH  16  18
BRANCH  16  19
ATOM     19  O   UNL     1      -0.036  -0.123  -2.412  0.00  0.00    -0.483 OA
BRANCH  19  20
ATOM     20  C   UNL     1       0.175   1.124  -2.909  0.00  0.00    +0.121 A 
ATOM     21  C   UNL     1       1.167   1.929  -2.367  0.00  0.00    +0.046 A 
ATOM     22  C   UNL     1       1.380   3.196  -2.875  0.00  0.00    +0.007 A 
ATOM     23  C   UNL     1       0.606   3.662  -3.922  0.00  0.00    -0.050 A 
ATOM     24  C   UNL     1      -0.383   2.861  -4.464  0.00  0.00    +0.007 A 
ATOM     25  C   UNL     1      -0.596   1.591  -3.963  0.00  0.00    +0.046 A 
ATOM     26  C   UNL     1       0.841   5.044  -4.474  0.00  0.00    +0.044 C 
ENDBRANCH  19  20
ENDBRANCH  16  19
ENDBRANCH   1  16
TORSDOF 5
