REMARK  Name = ZINC11881811
REMARK  6 active torsions:
REMARK  status: ('A' for Active; 'I' for Inactive)
REMARK    1  A    between atoms: C_3  and  C_13
REMARK    2  A    between atoms: C_13  and  N_63
REMARK    3  A    between atoms: C_20  and  C_24
REMARK    4  A    between atoms: C_24  and  N_65
REMARK    5  A    between atoms: C_29  and  C_31
REMARK    6  A    between atoms: C_31  and  O_32
REMARK                            x       y       z     vdW  Elec       q    Type
REMARK                         _______ _______ _______ _____ _____    ______ ____
ROOT
ATOM      1  C   UNL     1       0.785   0.038   5.411  0.00  0.00    -0.036 C 
ATOM      2  C   UNL     1       1.218   1.488   5.423  0.00  0.00    +0.210 C 
ATOM      3  O   UNL     1       0.138   2.337   5.829  0.00  0.00    -0.494 OA
ATOM      4  C   UNL     1      -0.708   2.719   4.834  0.00  0.00    +0.122 A 
ATOM      5  C   UNL     1      -0.725   4.037   4.400  0.00  0.00    +0.046 A 
ATOM      6  C   UNL     1      -1.568   4.408   3.370  0.00  0.00    +0.005 A 
ATOM      7  C   UNL     1      -2.386   3.470   2.768  0.00  0.00    -0.064 A 
ATOM      8  C   UNL     1      -2.374   2.156   3.204  0.00  0.00    +0.007 A 
ATOM      9  C   UNL     1      -1.538   1.788   4.237  0.00  0.00    -0.022 A 
ATOM     10  C   UNL     1      -1.536   0.359   4.745  0.00  0.00    -0.039 C 
ATOM     11  N   UNL     1      -0.235  -0.250   4.380  0.00  0.00    +0.388 N 
ATOM     12  H   UNL     1       0.077   0.150   3.487  0.00  0.00    -0.081 HD
ENDROOT
BRANCH  11  13
ATOM     13  C   UNL     1      -0.387  -1.705   4.222  0.00  0.00    -0.023 C 
BRANCH  13  16
ATOM     14  C   UNL     1      -2.780  -3.063   6.684  0.00  0.00    +0.020 A 
ATOM     15  C   UNL     1      -2.483  -2.489   5.431  0.00  0.00    +0.021 A 
ATOM     16  C   UNL     1      -1.150  -2.297   5.379  0.00  0.00    +0.009 A 
ATOM     17  N   UNL     1      -0.609  -2.737   6.554  0.00  0.00    -0.307 N 
ATOM     18  C   UNL     1      -1.617  -3.200   7.352  0.00  0.00    +0.093 A 
ATOM     19  C   UNL     1       0.749  -2.713   6.886  0.00  0.00    +0.138 A 
ATOM     20  C   UNL     1       1.147  -3.045   8.175  0.00  0.00    +0.048 A 
ATOM     21  C   UNL     1       2.495  -3.022   8.490  0.00  0.00    +0.025 A 
ATOM     22  C   UNL     1       3.400  -2.657   7.502  0.00  0.00    +0.059 A 
ATOM     23  C   UNL     1       2.931  -2.335   6.242  0.00  0.00    +0.133 A 
ATOM     24  N   UNL     1       1.641  -2.370   5.971  0.00  0.00    -0.236 NA
ATOM     25 CL   UNL     1       5.101  -2.607   7.845  0.00  0.00    -0.082 Cl
ENDBRANCH  13  16
ENDBRANCH  11  13
BRANCH   7  26
ATOM     26  C   UNL     1      -3.297   3.880   1.639  0.00  0.00    -0.043 C 
BRANCH  26  32
ATOM     27  C   UNL     1      -1.413   4.370   0.201  0.00  0.00    -0.078 C 
ATOM     28  C   UNL     1      -0.688   3.936  -1.076  0.00  0.00    -0.019 C 
ATOM     29  C   UNL     1      -1.609   4.157  -2.279  0.00  0.00    -0.003 C 
ATOM     30  C   UNL     1      -2.906   3.371  -2.071  0.00  0.00    -0.013 C 
ATOM     31  C   UNL     1      -3.566   3.821  -0.766  0.00  0.00    -0.042 C 
ATOM     32  N   UNL     1      -2.639   3.559   0.356  0.00  0.00    +0.386 N 
ATOM     33  H   UNL     1      -2.383   2.565   0.351  0.00  0.00    -0.081 HD
BRANCH  31  34
ATOM     34  C   UNL     1      -4.853   3.024  -0.544  0.00  0.00    +0.140 C 
BRANCH  34  35
ATOM     35  O   UNL     1      -4.570   1.627  -0.643  0.00  0.00    -0.397 OA
ATOM     36  H   UNL     1      -5.342   1.059  -0.513  0.00  0.00    +0.209 HD
ENDBRANCH  34  35
ENDBRANCH  31  34
ENDBRANCH  26  32
ENDBRANCH   7  26
TORSDOF 6
