REMARK  Name = ZINC44684890
REMARK  3 active torsions:
REMARK  status: ('A' for Active; 'I' for Inactive)
REMARK    1  A    between atoms: C_8  and  N_13
REMARK    2  A    between atoms: N_13  and  C_14
REMARK    3  A    between atoms: N_18  and  C_20
REMARK                            x       y       z     vdW  Elec       q    Type
REMARK                         _______ _______ _______ _____ _____    ______ ____
ROOT
ATOM      1  C   UNL     1      -0.017   1.378   0.010  0.00  0.00    +0.003 A 
ATOM      2  C   UNL     1       1.164   2.092   0.002  0.00  0.00    +0.024 A 
ATOM      3  C   UNL     1       2.386   1.424  -0.013  0.00  0.00    +0.040 A 
ATOM      4  C   UNL     1       2.393   0.034  -0.021  0.00  0.00    +0.014 A 
ATOM      5  C   UNL     1       1.213  -0.676  -0.014  0.00  0.00    +0.025 A 
ATOM      6  C   UNL     1       0.002  -0.004   0.002  0.00  0.00    +0.016 A 
ATOM      7 BR   UNL     1       1.247  -2.567  -0.025  0.00  0.00    -0.050 Br
ATOM      8  C   UNL     1       3.845  -0.384  -0.037  0.00  0.00    +0.174 C 
ATOM      9  C   UNL     1       4.605   0.925  -0.037  0.00  0.00    +0.239 C 
ATOM     10  O   UNL     1       5.811   1.058  -0.047  0.00  0.00    -0.273 OA
ATOM     11  N   UNL     1       3.693   1.912  -0.023  0.00  0.00    -0.284 N 
ATOM     12  H   UNL     1       3.918   2.856  -0.020  0.00  0.00    +0.155 HD
ENDROOT
BRANCH   8  13
ATOM     13  N   UNL     1       4.145  -1.157  -1.250  0.00  0.00    -0.301 NA
ATOM     14  H   UNL     1       3.337  -1.677  -1.556  0.00  0.00    +0.123 HD
BRANCH  13  15
ATOM     15  C   UNL     1       5.294  -2.046  -1.036  0.00  0.00    +0.036 C 
ATOM     16  C   UNL     1       4.831  -3.418  -0.481  0.00  0.00    -0.002 C 
ATOM     17  C   UNL     1       5.970  -4.352  -0.962  0.00  0.00    -0.077 C 
ATOM     18  N   UNL     1       6.337  -3.841  -2.300  0.00  0.00    +0.383 N 
ATOM     19  C   UNL     1       5.955  -2.416  -2.381  0.00  0.00    -0.060 C 
ATOM     20  H   UNL     1       5.849  -4.366  -3.010  0.00  0.00    -0.081 HD
BRANCH  18  21
ATOM     21  C   UNL     1       7.786  -3.973  -2.499  0.00  0.00    -0.069 C 
ATOM     22  C   UNL     1       8.267  -4.968  -3.557  0.00  0.00    -0.017 C 
ATOM     23  C   UNL     1       8.367  -3.464  -3.820  0.00  0.00    -0.017 C 
ENDBRANCH  18  21
ENDBRANCH  13  15
ENDBRANCH   8  13
TORSDOF 3
