REMARK  Name = ZINC06721717
REMARK  5 active torsions:
REMARK  status: ('A' for Active; 'I' for Inactive)
REMARK    1  A    between atoms: C_1  and  O_2
REMARK    2  A    between atoms: O_2  and  C_3
REMARK    3  A    between atoms: C_10  and  C_25
REMARK    4  A    between atoms: C_16  and  C_18
REMARK    5  A    between atoms: C_23  and  O_24
REMARK                            x       y       z     vdW  Elec       q    Type
REMARK                         _______ _______ _______ _____ _____    ______ ____
ROOT
ATOM      1  C   UNL     1      -0.875  10.203  -2.526  0.00  0.00    +0.162 A 
ATOM      2  C   UNL     1      -2.232  10.288  -2.775  0.00  0.00    +0.049 A 
ATOM      3  C   UNL     1      -3.117   9.497  -2.065  0.00  0.00    +0.004 A 
ATOM      4  C   UNL     1      -2.640   8.630  -1.102  0.00  0.00    +0.009 A 
ATOM      5  C   UNL     1      -1.284   8.545  -0.844  0.00  0.00    +0.020 A 
ATOM      6  C   UNL     1      -0.385   9.320  -1.558  0.00  0.00    +0.170 A 
ATOM      7  O   UNL     1       0.963   9.257  -1.397  0.00  0.00    -0.461 OA
ATOM      8  C   UNL     1       1.516   8.594  -0.274  0.00  0.00    +0.311 C 
ATOM      9  N   UNL     1       0.658   7.435   0.007  0.00  0.00    -0.205 N 
ATOM     10  C   UNL     1      -0.796   7.604   0.226  0.00  0.00    +0.136 C 
ATOM     11  C   UNL     1      -1.333   6.177   0.043  0.00  0.00    +0.086 C 
ATOM     12  C   UNL     1      -0.082   5.323   0.033  0.00  0.00    +0.072 C 
ATOM     13  N   UNL     1       0.962   6.087   0.027  0.00  0.00    -0.184 NA
ENDROOT
BRANCH  12  14
ATOM     14  C   UNL     1      -0.057   3.849   0.024  0.00  0.00    +0.039 A 
ATOM     15  C   UNL     1      -1.252   3.127   0.031  0.00  0.00    +0.013 A 
ATOM     16  C   UNL     1      -1.223   1.748   0.017  0.00  0.00    +0.001 A 
ATOM     17  C   UNL     1      -0.013   1.076   0.008  0.00  0.00    +0.004 A 
ATOM     18  C   UNL     1       1.177   1.779   0.000  0.00  0.00    +0.046 A 
ATOM     19  C   UNL     1       1.165   3.164   0.008  0.00  0.00    +0.126 A 
BRANCH  19  20
ATOM     20  O   UNL     1       2.334   3.856   0.001  0.00  0.00    -0.506 OA
ATOM     21  H   UNL     1       2.664   4.062  -0.885  0.00  0.00    +0.292 HD
ENDBRANCH  19  20
ENDBRANCH  12  14
BRANCH   8  22
ATOM     22  C   UNL     1       2.922   8.137  -0.569  0.00  0.00    +0.013 A 
ATOM     23  C   UNL     1       3.140   6.899  -1.143  0.00  0.00    +0.009 A 
ATOM     24  C   UNL     1       4.429   6.482  -1.418  0.00  0.00    +0.000 A 
ATOM     25  C   UNL     1       5.500   7.300  -1.109  0.00  0.00    +0.000 A 
ATOM     26  C   UNL     1       5.282   8.536  -0.530  0.00  0.00    +0.000 A 
ATOM     27  C   UNL     1       3.993   8.954  -0.259  0.00  0.00    +0.009 A 
ENDBRANCH   8  22
BRANCH   1  29
ATOM     28  C   UNL     1      -0.575  11.865  -4.201  0.00  0.00    +0.277 C 
ATOM     29  O   UNL     1      -0.011  10.985  -3.227  0.00  0.00    -0.491 OA
ENDBRANCH   1  29
TORSDOF 4
