REMARK  Name = ZINC13521027
REMARK  14 active torsions:
REMARK  status: ('A' for Active; 'I' for Inactive)
REMARK    1  A    between atoms: C_3  and  O_36
REMARK    2  A    between atoms: C_6  and  C_7
REMARK    3  A    between atoms: C_7  and  C_8
REMARK    4  A    between atoms: C_8  and  C_9
REMARK    5  A    between atoms: C_9  and  C_11
REMARK    6  A    between atoms: C_12  and  O_35
REMARK    7  A    between atoms: C_14  and  O_34
REMARK    8  A    between atoms: C_16  and  O_17
REMARK    9  A    between atoms: O_17  and  C_18
REMARK   10  A    between atoms: C_20  and  O_33
REMARK   11  A    between atoms: C_22  and  O_32
REMARK   12  A    between atoms: C_24  and  O_31
REMARK   13  A    between atoms: C_26  and  C_29
REMARK   14  A    between atoms: C_29  and  O_30
REMARK                            x       y       z     vdW  Elec       q    Type
REMARK                         _______ _______ _______ _____ _____    ______ ____
ROOT
ATOM      1  C   UNL     1       1.233  -0.686  -0.013  0.00  0.00    +0.101 A 
ATOM      2  C   UNL     1       0.002  -0.004   0.002  0.00  0.00    +0.134 A 
ATOM      3  C   UNL     1      -0.017   1.377   0.010  0.00  0.00    +0.091 A 
ATOM      4  C   UNL     1       1.175   2.093   0.002  0.00  0.00    +0.124 A 
ATOM      5  C   UNL     1       2.394   1.429  -0.013  0.00  0.00    +0.092 A 
ATOM      6  C   UNL     1       2.434   0.047  -0.021  0.00  0.00    +0.141 A 
ENDROOT
BRANCH   1   7
ATOM      7  C   UNL     1       1.264  -2.148  -0.021  0.00  0.00    +0.170 C 
ATOM      8  O   UNL     1       2.328  -2.732  -0.034  0.00  0.00    -0.292 OA
BRANCH   7   9
ATOM      9  C   UNL     1      -0.025  -2.929  -0.012  0.00  0.00    +0.084 C 
BRANCH   9  10
ATOM     10  C   UNL     1       0.287  -4.426  -0.023  0.00  0.00    +0.043 C 
BRANCH  10  16
ATOM     11  C   UNL     1      -1.578  -5.576   1.188  0.00  0.00    +0.007 A 
ATOM     12  C   UNL     1      -2.762  -6.287   1.198  0.00  0.00    +0.045 A 
ATOM     13  C   UNL     1      -3.368  -6.642   0.002  0.00  0.00    +0.117 A 
ATOM     14  C   UNL     1      -2.785  -6.275  -1.203  0.00  0.00    +0.045 A 
ATOM     15  C   UNL     1      -1.604  -5.559  -1.208  0.00  0.00    +0.007 A 
ATOM     16  C   UNL     1      -1.002  -5.207  -0.014  0.00  0.00    -0.047 A 
BRANCH  13  17
ATOM     17  O   UNL     1      -4.530  -7.347   0.009  0.00  0.00    -0.507 OA
ATOM     18  H   UNL     1      -4.408  -8.306   0.004  0.00  0.00    +0.292 HD
ENDBRANCH  13  17
ENDBRANCH  10  16
ENDBRANCH   9  10
ENDBRANCH   7   9
ENDBRANCH   1   7
BRANCH   4  19
ATOM     19  O   UNL     1       1.146   3.450   0.009  0.00  0.00    -0.507 OA
ATOM     20  H   UNL     1       1.146   3.838   0.895  0.00  0.00    +0.292 HD
ENDBRANCH   4  19
BRANCH   2  21
ATOM     21  O   UNL     1      -1.162  -0.700   0.010  0.00  0.00    -0.506 OA
ATOM     22  H   UNL     1      -1.508  -0.897  -0.871  0.00  0.00    +0.292 HD
ENDBRANCH   2  21
BRANCH   6  23
ATOM     23  O   UNL     1       3.626  -0.599  -0.036  0.00  0.00    -0.460 OA
BRANCH  23  24
ATOM     24  C   UNL     1       4.803   0.211  -0.043  0.00  0.00    +0.339 C 
ATOM     25  C   UNL     1       6.027  -0.669  -0.311  0.00  0.00    +0.214 C 
ATOM     26  C   UNL     1       6.171  -1.688   0.823  0.00  0.00    +0.180 C 
ATOM     27  C   UNL     1       6.273  -0.941   2.157  0.00  0.00    +0.177 C 
ATOM     28  C   UNL     1       5.040  -0.051   2.329  0.00  0.00    +0.179 C 
ATOM     29  O   UNL     1       4.948   0.853   1.226  0.00  0.00    -0.331 OA
BRANCH  27  30
ATOM     30  O   UNL     1       6.335  -1.884   3.229  0.00  0.00    -0.386 OA
ATOM     31  H   UNL     1       7.091  -2.485   3.181  0.00  0.00    +0.210 HD
ENDBRANCH  27  30
BRANCH  26  32
ATOM     32  O   UNL     1       7.353  -2.466   0.620  0.00  0.00    -0.386 OA
ATOM     33  H   UNL     1       7.359  -2.961  -0.211  0.00  0.00    +0.210 HD
ENDBRANCH  26  32
BRANCH  25  34
ATOM     34  O   UNL     1       7.199   0.148  -0.371  0.00  0.00    -0.383 OA
ATOM     35  H   UNL     1       7.174   0.820  -1.065  0.00  0.00    +0.210 HD
ENDBRANCH  25  34
BRANCH  28  36
ATOM     36  C   UNL     1       5.162   0.744   3.630  0.00  0.00    +0.190 C 
BRANCH  36  37
ATOM     37  O   UNL     1       3.961   1.487   3.850  0.00  0.00    -0.392 OA
ATOM     38  H   UNL     1       3.968   2.016   4.659  0.00  0.00    +0.210 HD
ENDBRANCH  36  37
ENDBRANCH  28  36
ENDBRANCH  23  24
ENDBRANCH   6  23
TORSDOF 14
