REMARK  Name = ZINC10318012
REMARK  10 active torsions:
REMARK  status: ('A' for Active; 'I' for Inactive)
REMARK    1  A    between atoms: C_4  and  N_7
REMARK    2  A    between atoms: N_10  and  S_13
REMARK    3  A    between atoms: S_13  and  C_16
REMARK    4  A    between atoms: C_20  and  C_22
REMARK    5  A    between atoms: C_22  and  O_24
REMARK    6  A    between atoms: O_24  and  C_25
REMARK    7  A    between atoms: C_25  and  C_26
REMARK    8  A    between atoms: N_28  and  C_29
REMARK    9  A    between atoms: C_29  and  C_30
REMARK   10  A    between atoms: C_30  and  C_31
REMARK                            x       y       z     vdW  Elec       q    Type
REMARK                         _______ _______ _______ _____ _____    ______ ____
ROOT
ATOM      1  C   UNL     1       1.616   4.595  -3.218  0.00  0.00    +0.106 A 
ATOM      2  C   UNL     1       2.977   4.341  -3.232  0.00  0.00    +0.030 A 
ATOM      3  C   UNL     1       3.573   3.796  -4.354  0.00  0.00    +0.023 A 
ATOM      4  C   UNL     1       2.815   3.509  -5.473  0.00  0.00    +0.055 A 
ATOM      5  C   UNL     1       1.442   3.767  -5.466  0.00  0.00    +0.079 A 
ATOM      6  C   UNL     1       0.846   4.314  -4.327  0.00  0.00    +0.045 A 
ATOM      7 CL   UNL     1       3.567   2.829  -6.883  0.00  0.00    -0.083 Cl
ENDROOT
BRANCH   1   8
ATOM      8  S   UNL     1       0.866   5.285  -1.780  0.00  0.00    +0.061 S 
ATOM      9  O   UNL     1      -0.319   5.938  -2.215  0.00  0.00    -0.153 OA
ATOM     10  O   UNL     1       1.894   5.963  -1.072  0.00  0.00    -0.153 OA
BRANCH   8  14
ATOM     11  N   UNL     1      -0.017   1.393   0.010  0.00  0.00    -0.327 N 
ATOM     12  C   UNL     1      -0.808   1.915  -1.113  0.00  0.00    +0.122 C 
ATOM     13  C   UNL     1      -0.955   3.433  -0.967  0.00  0.00    +0.128 C 
ATOM     14  N   UNL     1       0.386   4.021  -0.824  0.00  0.00    -0.174 NA
ATOM     15  C   UNL     1       1.288   3.457   0.191  0.00  0.00    +0.128 C 
ATOM     16  C   UNL     1       1.347   1.938  -0.000  0.00  0.00    +0.122 C 
BRANCH  11  20
ATOM     17  C   UNL     1       0.040  -2.771  -0.014  0.00  0.00    +0.000 A 
ATOM     18  C   UNL     1      -1.168  -2.097   0.002  0.00  0.00    +0.002 A 
ATOM     19  C   UNL     1      -1.190  -0.717   0.010  0.00  0.00    +0.023 A 
ATOM     20  C   UNL     1       0.002  -0.004   0.002  0.00  0.00    +0.030 A 
ATOM     21  C   UNL     1       1.213  -0.684  -0.019  0.00  0.00    +0.023 A 
ATOM     22  C   UNL     1       1.229  -2.065  -0.022  0.00  0.00    +0.002 A 
ENDBRANCH  11  20
ENDBRANCH   8  14
ENDBRANCH   1   8
BRANCH   5  23
ATOM     23  C   UNL     1       0.624   3.464  -6.658  0.00  0.00    +0.341 C 
ATOM     24  O   UNL     1       1.145   2.989  -7.647  0.00  0.00    -0.245 OA
BRANCH  23  25
ATOM     25  O   UNL     1      -0.700   3.714  -6.648  0.00  0.00    -0.452 OA
BRANCH  25  26
ATOM     26  C   UNL     1      -1.440   3.390  -7.854  0.00  0.00    +0.328 C 
BRANCH  26  27
ATOM     27  C   UNL     1      -2.894   3.736  -7.658  0.00  0.00    +0.251 C 
ATOM     28  O   UNL     1      -3.269   4.208  -6.606  0.00  0.00    -0.272 OA
ATOM     29  N   UNL     1      -3.778   3.520  -8.652  0.00  0.00    -0.312 N 
ATOM     30  H   UNL     1      -3.478   3.142  -9.494  0.00  0.00    +0.149 HD
BRANCH  29  31
ATOM     31  C   UNL     1      -5.191   3.855  -8.462  0.00  0.00    +0.119 C 
BRANCH  31  32
ATOM     32  C   UNL     1      -5.972   3.514  -9.733  0.00  0.00    +0.137 C 
BRANCH  32  33
ATOM     33  C   UNL     1      -7.392   3.852  -9.542  0.00  0.00    +0.064 C 
ATOM     34  N   UNL     1      -8.488   4.112  -9.394  0.00  0.00    -0.197 NA
ENDBRANCH  32  33
ENDBRANCH  31  32
ENDBRANCH  29  31
ENDBRANCH  26  27
ENDBRANCH  25  26
ENDBRANCH  23  25
ENDBRANCH   5  23
TORSDOF 10
