REMARK  Name = ZINC39445505
REMARK  10 active torsions:
REMARK  status: ('A' for Active; 'I' for Inactive)
REMARK    1  A    between atoms: C_1  and  C_2
REMARK    2  A    between atoms: C_4  and  C_9
REMARK    3  A    between atoms: C_5  and  C_8
REMARK    4  A    between atoms: C_9  and  N_10
REMARK    5  A    between atoms: C_11  and  C_13
REMARK    6  A    between atoms: C_16  and  C_19
REMARK    7  A    between atoms: C_19  and  N_20
REMARK    8  A    between atoms: N_20  and  C_21
REMARK    9  A    between atoms: N_20  and  C_22
REMARK   10  A    between atoms: C_22  and  C_23
REMARK                            x       y       z     vdW  Elec       q    Type
REMARK                         _______ _______ _______ _____ _____    ______ ____
ROOT
ATOM      1  C   UNL     1      -5.003   2.549  -1.077  0.00  0.00    +0.204 C 
ATOM      2  C   UNL     1      -4.274   3.730  -1.690  0.00  0.00    +0.045 C 
ATOM      3  C   UNL     1      -5.167   4.493  -2.283  0.00  0.00    +0.107 C 
ATOM      4  O   UNL     1      -6.425   4.005  -2.157  0.00  0.00    -0.412 OA
ATOM      5  N   UNL     1      -6.323   2.586  -1.758  0.00  0.00    -0.140 NA
ATOM      6  H   UNL     1      -6.329   1.983  -2.567  0.00  0.00    +0.168 HD
ENDROOT
BRANCH   1   8
ATOM      7  N   UNL     1      -3.233   0.881  -0.621  0.00  0.00    -0.310 N 
ATOM      8  C   UNL     1      -4.281   1.261  -1.379  0.00  0.00    +0.237 C 
ATOM      9  O   UNL     1      -4.644   0.565  -2.304  0.00  0.00    -0.274 OA
ATOM     10  H   UNL     1      -2.944   1.438   0.119  0.00  0.00    +0.149 HD
BRANCH   7  11
ATOM     11  C   UNL     1      -2.532  -0.371  -0.914  0.00  0.00    +0.139 C 
BRANCH  11  14
ATOM     12  C   UNL     1      -0.019   1.526   0.010  0.00  0.00    +0.039 C 
ATOM     13  C   UNL     1       0.002  -0.004   0.002  0.00  0.00    +0.154 C 
ATOM     14  C   UNL     1      -1.409  -0.561   0.072  0.00  0.00    -0.004 C 
ATOM     15  C   UNL     1      -1.423  -1.257   1.211  0.00  0.00    +0.063 C 
ATOM     16  N   UNL     1      -0.222  -1.193   1.828  0.00  0.00    -0.159 NA
ATOM     17  N   UNL     1       0.629  -0.523   1.230  0.00  0.00    -0.180 NA
ATOM     18  C   UNL     1      -2.617  -2.011   1.738  0.00  0.00    +0.067 C 
ENDBRANCH  11  14
ENDBRANCH   7  11
ENDBRANCH   1   8
BRANCH   3  19
ATOM     19  C   UNL     1      -4.829   5.765  -3.017  0.00  0.00    -0.001 C 
BRANCH  19  20
ATOM     20  N   UNL     1      -5.138   5.603  -4.444  0.00  0.00    +0.385 N 
ATOM     21  C   UNL     1      -4.261   4.576  -5.022  0.00  0.00    -0.095 C 
ATOM     22  H   UNL     1      -6.101   5.321  -4.550  0.00  0.00    -0.081 HD
BRANCH  20  23
ATOM     23  C   UNL     1      -4.922   6.878  -5.140  0.00  0.00    -0.043 C 
BRANCH  23  24
ATOM     24  C   UNL     1      -5.355   6.746  -6.577  0.00  0.00    -0.064 A 
ATOM     25  C   UNL     1      -4.451   6.330  -7.536  0.00  0.00    +0.002 A 
ATOM     26  C   UNL     1      -4.848   6.209  -8.855  0.00  0.00    +0.000 A 
ATOM     27  C   UNL     1      -6.150   6.504  -9.214  0.00  0.00    +0.000 A 
ATOM     28  C   UNL     1      -7.054   6.919  -8.255  0.00  0.00    +0.000 A 
ATOM     29  C   UNL     1      -6.659   7.036  -6.936  0.00  0.00    +0.002 A 
ENDBRANCH  23  24
ENDBRANCH  20  23
ENDBRANCH  19  20
ENDBRANCH   3  19
TORSDOF 7
