REMARK  Name = ZINC00845766
REMARK  7 active torsions:
REMARK  status: ('A' for Active; 'I' for Inactive)
REMARK    1  A    between atoms: C_1  and  C_2
REMARK    2  A    between atoms: C_2  and  C_31
REMARK    3  A    between atoms: C_6  and  C_14
REMARK    4  A    between atoms: C_8  and  C_12
REMARK    5  A    between atoms: C_9  and  N_11
REMARK    6  A    between atoms: C_17  and  C_19
REMARK    7  A    between atoms: C_24  and  N_25
REMARK                            x       y       z     vdW  Elec       q    Type
REMARK                         _______ _______ _______ _____ _____    ______ ____
ROOT
ATOM      1  C   UNL     1       2.007   1.115   2.129  0.00  0.00    +0.012 C 
ATOM      2  C   UNL     1       2.365   1.373   0.664  0.00  0.00    -0.021 C 
ATOM      3  C   UNL     1       2.484   0.040  -0.078  0.00  0.00    +0.081 C 
ATOM      4  C   UNL     1       1.161  -0.688  -0.030  0.00  0.00    +0.115 C 
ATOM      5  C   UNL     1       0.002  -0.004   0.002  0.00  0.00    +0.049 C 
ATOM      6  C   UNL     1      -1.320  -0.733   0.026  0.00  0.00    +0.137 C 
ATOM      7  C   UNL     1      -1.134  -2.154  -0.427  0.00  0.00    +0.101 C 
ATOM      8  C   UNL     1       0.098  -2.718  -0.427  0.00  0.00    +0.198 C 
ATOM      9  O   UNL     1       1.180  -2.034  -0.023  0.00  0.00    -0.445 OA
ATOM     10  C   UNL     1      -0.017   1.404   0.010  0.00  0.00    +0.164 C 
ATOM     11  O   UNL     1      -1.083   1.986   0.018  0.00  0.00    -0.292 OA
ATOM     12  C   UNL     1       1.259   2.201   0.002  0.00  0.00    +0.086 C 
ATOM     13  C   UNL     1       3.695   2.126   0.585  0.00  0.00    +0.012 C 
ENDROOT
BRANCH   6  14
ATOM     14  C   UNL     1      -1.868  -0.727   1.430  0.00  0.00    +0.118 A 
ATOM     15  C   UNL     1      -3.044  -0.191   1.811  0.00  0.00    +0.046 A 
ATOM     16  C   UNL     1      -3.165  -0.405   3.199  0.00  0.00    +0.050 A 
ATOM     17  C   UNL     1      -2.044  -1.067   3.592  0.00  0.00    +0.137 A 
ATOM     18  O   UNL     1      -1.269  -1.260   2.507  0.00  0.00    -0.459 OA
BRANCH  17  19
ATOM     19  C   UNL     1      -1.732  -1.504   4.969  0.00  0.00    +0.047 A 
ATOM     20  C   UNL     1      -1.836  -0.603   6.030  0.00  0.00    +0.014 A 
ATOM     21  C   UNL     1      -1.544  -1.017   7.313  0.00  0.00    +0.001 A 
ATOM     22  C   UNL     1      -1.150  -2.323   7.549  0.00  0.00    +0.002 A 
ATOM     23  C   UNL     1      -1.045  -3.220   6.502  0.00  0.00    +0.033 A 
ATOM     24  C   UNL     1      -1.339  -2.820   5.214  0.00  0.00    +0.137 A 
BRANCH  24  25
ATOM     25  N   UNL     1      -1.232  -3.783   4.095  0.00  0.00    +0.057 N 
ATOM     26  O   UNL     1      -0.889  -4.932   4.311  0.00  0.00    -0.126 OA
ATOM     27  O   UNL     1      -1.487  -3.427   2.959  0.00  0.00    -0.126 OA
ENDBRANCH  24  25
ENDBRANCH  17  19
ENDBRANCH   6  14
BRANCH   8  28
ATOM     28  N   UNL     1       0.243  -4.016  -0.850  0.00  0.00    -0.328 N 
ATOM     29  H   UNL     1      -0.532  -4.520  -1.144  0.00  0.00    +0.145 HD
ATOM     30  H   UNL     1       1.120  -4.430  -0.854  0.00  0.00    +0.145 HD
ENDBRANCH   8  28
BRANCH   7  31
ATOM     31  C   UNL     1      -2.266  -2.916  -0.862  0.00  0.00    +0.101 C 
ATOM     32  N   UNL     1      -3.164  -3.521  -1.206  0.00  0.00    -0.191 NA
ENDBRANCH   7  31
TORSDOF 5
