REMARK  Name = ZINC01352976
REMARK  8 active torsions:
REMARK  status: ('A' for Active; 'I' for Inactive)
REMARK    1  A    between atoms: C_1  and  C_2
REMARK    2  A    between atoms: C_2  and  N_3
REMARK    3  A    between atoms: C_7  and  C_9
REMARK    4  A    between atoms: C_9  and  N_10
REMARK    5  A    between atoms: N_10  and  C_11
REMARK    6  A    between atoms: C_11  and  C_12
REMARK    7  A    between atoms: C_17  and  C_24
REMARK    8  A    between atoms: N_27  and  C_28
REMARK                            x       y       z     vdW  Elec       q    Type
REMARK                         _______ _______ _______ _____ _____    ______ ____
ROOT
ATOM      1  N   UNL     1      -2.078  -0.711  -0.058  0.00  0.00    -0.282 N 
ATOM      2  C   UNL     1      -2.514  -1.091  -1.275  0.00  0.00    +0.307 C 
ATOM      3  O   UNL     1      -3.158  -0.319  -1.959  0.00  0.00    -0.252 OA
ATOM      4  N   UNL     1      -2.237  -2.328  -1.734  0.00  0.00    -0.269 N 
ATOM      5  H   UNL     1      -1.729  -3.055  -1.083  0.00  0.00    +0.156 HD
ENDROOT
BRANCH   4   6
ATOM      6  C   UNL     1      -2.595  -2.687  -3.039  0.00  0.00    +0.035 A 
ATOM      7  C   UNL     1      -2.966  -3.995  -3.323  0.00  0.00    +0.026 A 
ATOM      8  C   UNL     1      -3.324  -4.346  -4.610  0.00  0.00    +0.040 A 
ATOM      9  C   UNL     1      -3.303  -3.397  -5.619  0.00  0.00    +0.124 A 
ATOM     10  C   UNL     1      -2.928  -2.094  -5.338  0.00  0.00    +0.040 A 
ATOM     11  C   UNL     1      -2.575  -1.738  -4.052  0.00  0.00    +0.026 A 
ATOM     12  F   UNL     1      -3.648  -3.744  -6.878  0.00  0.00    -0.205 F 
ENDBRANCH   4   6
BRANCH   1  13
ATOM     13  C   UNL     1      -1.302  -1.641   0.766  0.00  0.00    +0.094 C 
BRANCH  13  18
ATOM     14  N   UNL     1      -3.357  -2.996   1.040  0.00  0.00    +0.382 N 
ATOM     15  C   UNL     1      -3.838  -4.036   1.985  0.00  0.00    -0.078 C 
ATOM     16  C   UNL     1      -2.553  -4.615   2.614  0.00  0.00    -0.020 C 
ATOM     17  C   UNL     1      -1.497  -3.500   2.465  0.00  0.00    -0.016 C 
ATOM     18  C   UNL     1      -2.233  -2.342   1.758  0.00  0.00    -0.051 C 
ATOM     19  H   UNL     1      -3.056  -3.412   0.067  0.00  0.00    -0.081 HD
BRANCH  14  21
ATOM     20  C   UNL     1      -5.366  -2.625  -0.310  0.00  0.00    -0.017 C 
ATOM     21  C   UNL     1      -4.420  -2.029   0.734  0.00  0.00    -0.082 C 
ENDBRANCH  14  21
ENDBRANCH  13  18
ENDBRANCH   1  13
BRANCH   1  22
ATOM     22  C   UNL     1      -2.379   0.633   0.441  0.00  0.00    +0.149 C 
BRANCH  22  23
ATOM     23  C   UNL     1      -1.243   1.563   0.098  0.00  0.00    +0.035 A 
ATOM     24  C   UNL     1      -1.295   2.303  -1.036  0.00  0.00    +0.020 A 
ATOM     25  C   UNL     1      -0.178   3.199  -1.339  0.00  0.00    -0.001 A 
ATOM     26  C   UNL     1      -0.176   3.991  -2.491  0.00  0.00    +0.010 A 
ATOM     27  C   UNL     1       0.883   4.814  -2.747  0.00  0.00    +0.004 A 
ATOM     28  C   UNL     1       1.960   4.871  -1.872  0.00  0.00    -0.048 A 
ATOM     29  C   UNL     1       1.981   4.099  -0.731  0.00  0.00    +0.029 A 
ATOM     30  C   UNL     1       0.912   3.254  -0.450  0.00  0.00    +0.049 A 
ATOM     31  N   UNL     1       0.906   2.472   0.685  0.00  0.00    -0.322 N 
ATOM     32  H   UNL     1       1.755   2.510   1.384  0.00  0.00    +0.169 HD
ATOM     33  C   UNL     1      -0.127   1.655   0.957  0.00  0.00    +0.254 A 
ATOM     34  O   UNL     1      -0.098   0.977   1.970  0.00  0.00    -0.268 OA
ATOM     35  C   UNL     1       3.119   5.786  -2.175  0.00  0.00    +0.044 C 
ENDBRANCH  22  23
ENDBRANCH   1  22
TORSDOF 6
