REMARK  Name = ZINC12497371
REMARK  11 active torsions:
REMARK  status: ('A' for Active; 'I' for Inactive)
REMARK    1  A    between atoms: C_1  and  C_2
REMARK    2  A    between atoms: C_2  and  C_3
REMARK    3  A    between atoms: C_3  and  C_4
REMARK    4  A    between atoms: C_4  and  C_5
REMARK    5  A    between atoms: C_5  and  C_31
REMARK    6  A    between atoms: C_10  and  C_12
REMARK    7  A    between atoms: C_15  and  O_18
REMARK    8  A    between atoms: N_21  and  C_24
REMARK    9  A    between atoms: C_27  and  C_30
REMARK   10  A    between atoms: C_31  and  O_33
REMARK   11  A    between atoms: O_33  and  C_34
REMARK                            x       y       z     vdW  Elec       q    Type
REMARK                         _______ _______ _______ _____ _____    ______ ____
ROOT
ATOM      1  C   UNL     1       1.775   1.921   1.412  0.00  0.00    +0.044 C 
ATOM      2  C   UNL     1       0.661   1.339   2.266  0.00  0.00    +0.086 C 
ATOM      3  C   UNL     1      -0.545   1.595   1.283  0.00  0.00    +0.077 C 
ATOM      4  C   UNL     1      -0.013   1.086   0.008  0.00  0.00    -0.027 C 
ATOM      5  C   UNL     1      -1.677   1.431   2.161  0.00  0.00    +0.229 C 
ATOM      6  O   UNL     1      -2.765   0.976   1.884  0.00  0.00    -0.275 OA
ATOM      7  N   UNL     1      -1.254   1.902   3.380  0.00  0.00    -0.210 N 
ATOM      8  C   UNL     1       0.099   2.083   3.436  0.00  0.00    +0.229 C 
ATOM      9  O   UNL     1       0.718   2.717   4.264  0.00  0.00    -0.275 OA
ATOM     10  N   UNL     1       1.379   1.638   0.007  0.00  0.00    +0.395 N 
ATOM     11  H   UNL     1       2.023   0.951  -0.403  0.00  0.00    -0.083 HD
ATOM     12  H   UNL     1       1.407   2.505  -0.542  0.00  0.00    -0.083 HD
ENDROOT
BRANCH   7  13
ATOM     13  C   UNL     1      -2.119   2.168   4.452  0.00  0.00    +0.044 A 
ATOM     14  C   UNL     1      -1.610   2.638   5.655  0.00  0.00    +0.024 A 
ATOM     15  C   UNL     1      -2.464   2.905   6.707  0.00  0.00    +0.005 A 
ATOM     16  C   UNL     1      -3.824   2.693   6.566  0.00  0.00    -0.050 A 
ATOM     17  C   UNL     1      -4.332   2.221   5.371  0.00  0.00    +0.005 A 
ATOM     18  C   UNL     1      -3.484   1.957   4.313  0.00  0.00    +0.024 A 
ATOM     19  C   UNL     1      -4.752   2.980   7.718  0.00  0.00    +0.044 C 
ENDBRANCH   7  13
BRANCH   4  20
ATOM     20  C   UNL     1      -0.807   1.615  -1.158  0.00  0.00    -0.060 A 
ATOM     21  C   UNL     1      -0.616   2.914  -1.590  0.00  0.00    +0.005 A 
ATOM     22  C   UNL     1      -1.339   3.400  -2.663  0.00  0.00    +0.045 A 
ATOM     23  C   UNL     1      -2.265   2.586  -3.299  0.00  0.00    +0.117 A 
ATOM     24  C   UNL     1      -2.459   1.285  -2.860  0.00  0.00    +0.045 A 
ATOM     25  C   UNL     1      -1.730   0.802  -1.790  0.00  0.00    +0.005 A 
BRANCH  23  26
ATOM     26  O   UNL     1      -2.982   3.063  -4.351  0.00  0.00    -0.507 OA
ATOM     27  H   UNL     1      -3.817   3.482  -4.101  0.00  0.00    +0.292 HD
ENDBRANCH  23  26
ENDBRANCH   4  20
BRANCH   1  28
ATOM     28  C   UNL     1       3.085   1.249   1.736  0.00  0.00    +0.297 C 
ATOM     29  O   UNL     1       3.268   0.779   2.833  0.00  0.00    -0.252 OA
BRANCH  28  30
ATOM     30  O   UNL     1       4.048   1.173   0.804  0.00  0.00    -0.469 OA
ATOM     31  C   UNL     1       5.283   0.512   1.185  0.00  0.00    +0.280 C 
ENDBRANCH  28  30
ENDBRANCH   1  28
BRANCH   1  32
ATOM     32  C   UNL     1       1.885   3.430   1.640  0.00  0.00    -0.001 C 
BRANCH  32  33
ATOM     33  C   UNL     1       2.882   4.025   0.643  0.00  0.00    -0.001 C 
BRANCH  33  35
ATOM     34  C   UNL     1       3.988   6.129  -0.126  0.00  0.00    +0.004 C 
ATOM     35  C   UNL     1       2.992   5.534   0.871  0.00  0.00    -0.003 C 
ENDBRANCH  33  35
ENDBRANCH  32  33
ENDBRANCH   1  32
TORSDOF 8
