REMARK  Name = ZINC19224644
REMARK  7 active torsions:
REMARK  status: ('A' for Active; 'I' for Inactive)
REMARK    1  A    between atoms: C_1  and  C_2
REMARK    2  A    between atoms: C_2  and  C_3
REMARK    3  A    between atoms: C_2  and  C_4
REMARK    4  A    between atoms: C_4  and  C_5
REMARK    5  A    between atoms: C_7  and  C_11
REMARK    6  A    between atoms: C_11  and  N_12
REMARK    7  A    between atoms: C_17  and  C_21
REMARK                            x       y       z     vdW  Elec       q    Type
REMARK                         _______ _______ _______ _____ _____    ______ ____
ROOT
ATOM      1  N   UNL     1      -2.968  -1.663   1.619  0.00  0.00    -0.292 NA
ATOM      2  C   UNL     1      -2.194  -2.817   2.099  0.00  0.00    +0.091 C 
ATOM      3  C   UNL     1      -1.274  -3.320   0.975  0.00  0.00    +0.073 C 
ATOM      4  C   UNL     1      -0.531  -2.129   0.422  0.00  0.00    +0.069 A 
ATOM      5  C   UNL     1      -0.909  -0.846   0.653  0.00  0.00    +0.015 A 
ATOM      6  C   UNL     1      -0.006  -0.004  -0.010  0.00  0.00    +0.070 A 
ATOM      7  N   UNL     1       0.893  -0.766  -0.604  0.00  0.00    -0.276 N 
ATOM      8  N   UNL     1       0.568  -2.107  -0.348  0.00  0.00    -0.178 NA
ATOM      9  H   UNL     1       1.712  -0.306  -1.175  0.00  0.00    +0.189 HD
ATOM     10  C   UNL     1      -2.106  -0.469   1.488  0.00  0.00    +0.124 C 
ENDROOT
BRANCH   6  11
ATOM     11  C   UNL     1      -0.032   1.480  -0.010  0.00  0.00    +0.000 A 
ATOM     12  C   UNL     1      -1.249   2.158  -0.004  0.00  0.00    +0.010 A 
ATOM     13  C   UNL     1      -1.267   3.538   0.002  0.00  0.00    +0.001 A 
ATOM     14  C   UNL     1      -0.080   4.248  -0.010  0.00  0.00    +0.000 A 
ATOM     15  C   UNL     1       1.131   3.579  -0.022  0.00  0.00    +0.001 A 
ATOM     16  C   UNL     1       1.161   2.200  -0.021  0.00  0.00    +0.010 A 
ENDBRANCH   6  11
BRANCH   1  17
ATOM     17  C   UNL     1      -4.110  -1.391   2.502  0.00  0.00    +0.139 C 
BRANCH  17  20
ATOM     18  C   UNL     1      -6.192  -4.420   2.848  0.00  0.00    +0.063 A 
ATOM     19  C   UNL     1      -5.146  -3.593   3.268  0.00  0.00    +0.049 A 
ATOM     20  C   UNL     1      -5.088  -2.535   2.426  0.00  0.00    +0.050 A 
ATOM     21  N   UNL     1      -6.066  -2.686   1.508  0.00  0.00    -0.280 N 
ATOM     22  H   UNL     1      -6.204  -1.929   0.722  0.00  0.00    +0.189 HD
ATOM     23  N   UNL     1      -6.743  -3.879   1.792  0.00  0.00    -0.179 NA
BRANCH  18  24
ATOM     24  C   UNL     1      -6.613  -5.712   3.500  0.00  0.00    +0.060 C 
BRANCH  24  26
ATOM     25  C   UNL     1      -8.557  -7.001   4.396  0.00  0.00    +0.007 C 
ATOM     26  C   UNL     1      -8.101  -5.646   3.849  0.00  0.00    -0.011 C 
ATOM     27  C   UNL     1      -8.329  -4.566   4.909  0.00  0.00    +0.007 C 
ENDBRANCH  24  26
ENDBRANCH  18  24
ENDBRANCH  17  20
ENDBRANCH   1  17
TORSDOF 5
