REMARK  Name = ZINC38787547
REMARK  12 active torsions:
REMARK  status: ('A' for Active; 'I' for Inactive)
REMARK    1  A    between atoms: C_1  and  C_2
REMARK    2  A    between atoms: C_4  and  C_36
REMARK    3  A    between atoms: N_10  and  C_11
REMARK    4  A    between atoms: C_11  and  C_13
REMARK    5  A    between atoms: C_13  and  S_14
REMARK    6  A    between atoms: S_14  and  C_15
REMARK    7  A    between atoms: N_20  and  C_21
REMARK    8  A    between atoms: N_22  and  C_23
REMARK    9  A    between atoms: C_23  and  C_24
REMARK   10  A    between atoms: C_24  and  C_25
REMARK   11  A    between atoms: C_28  and  O_34
REMARK   12  A    between atoms: O_34  and  C_35
REMARK                            x       y       z     vdW  Elec       q    Type
REMARK                         _______ _______ _______ _____ _____    ______ ____
ROOT
ATOM      1  C   UNL     1       0.589  -6.612   5.256  0.00  0.00    +0.066 C 
ATOM      2  C   UNL     1       0.616  -5.912   3.922  0.00  0.00    +0.044 A 
ATOM      3  C   UNL     1       0.859  -6.627   2.760  0.00  0.00    +0.046 A 
ATOM      4  C   UNL     1       0.876  -5.944   1.554  0.00  0.00    +0.044 A 
ATOM      5  N   UNL     1       0.661  -4.639   1.548  0.00  0.00    -0.217 NA
ATOM      6  C   UNL     1       0.432  -3.986   2.677  0.00  0.00    +0.231 A 
ATOM      7  N   UNL     1       0.404  -4.609   3.845  0.00  0.00    -0.217 NA
ATOM      8  N   UNL     1       0.211  -2.616   2.635  0.00  0.00    -0.297 N 
ATOM      9  C   UNL     1       0.083  -1.908   3.796  0.00  0.00    +0.196 C 
ATOM     10  N   UNL     1       0.276  -2.508   4.963  0.00  0.00    -0.146 NA
ATOM     11  N   UNL     1      -0.243  -0.586   3.756  0.00  0.00    -0.357 N 
ATOM     12  C   UNL     1       1.135  -6.680   0.264  0.00  0.00    +0.066 C 
ATOM     13  H   UNL     1       0.148  -2.161   1.780  0.00  0.00    +0.171 HD
ATOM     14  H   UNL     1      -0.246  -0.062   4.572  0.00  0.00    +0.162 HD
ENDROOT
BRANCH  10  15
ATOM     15  C   UNL     1       0.268  -1.795   6.088  0.00  0.00    +0.249 C 
ATOM     16  O   UNL     1      -0.014  -0.613   6.056  0.00  0.00    -0.273 OA
BRANCH  15  17
ATOM     17  C   UNL     1       0.607  -2.454   7.400  0.00  0.00    +0.170 C 
BRANCH  17  18
ATOM     18  S   UNL     1       0.508  -1.229   8.735  0.00  0.00    -0.106 S 
BRANCH  18  19
ATOM     19  C   UNL     1       1.086  -2.129  10.200  0.00  0.00    +0.276 C 
ATOM     20  N   UNL     1       2.554  -2.171  10.231  0.00  0.00    -0.139 NA
ATOM     21  N   UNL     1       2.948  -1.600  11.250  0.00  0.00    -0.069 NA
ATOM     22  N   UNL     1       1.905  -1.107  12.033  0.00  0.00    -0.179 N 
ATOM     23  N   UNL     1       0.707  -1.406  11.432  0.00  0.00    -0.180 NA
ATOM     24  C   UNL     1      -0.044  -0.184  11.115  0.00  0.00    +0.132 C 
ATOM     25  H   UNL     1       2.009  -0.629  12.871  0.00  0.00    +0.191 HD
ENDBRANCH  18  19
ENDBRANCH  17  18
ENDBRANCH  15  17
ENDBRANCH  10  15
BRANCH  11  26
ATOM     26  C   UNL     1      -0.588   0.045   2.479  0.00  0.00    +0.120 C 
BRANCH  26  27
ATOM     27  C   UNL     1      -0.791   1.546   2.691  0.00  0.00    +0.058 C 
BRANCH  27  28
ATOM     28  C   UNL     1      -1.265   2.175   1.405  0.00  0.00    -0.021 A 
ATOM     29  C   UNL     1      -2.634   2.167   0.885  0.00  0.00    +0.006 A 
ATOM     30  C   UNL     1      -3.842   1.637   1.342  0.00  0.00    +0.056 A 
ATOM     31  C   UNL     1      -4.990   1.809   0.594  0.00  0.00    +0.121 A 
ATOM     32  C   UNL     1      -4.944   2.507  -0.610  0.00  0.00    +0.047 A 
ATOM     33  C   UNL     1      -3.758   3.034  -1.071  0.00  0.00    +0.030 A 
ATOM     34  C   UNL     1      -2.592   2.872  -0.332  0.00  0.00    +0.047 A 
ATOM     35  N   UNL     1      -1.286   3.272  -0.524  0.00  0.00    -0.360 N 
ATOM     36  C   UNL     1      -0.513   2.853   0.524  0.00  0.00    +0.087 A 
ATOM     37  H   UNL     1      -0.965   3.779  -1.286  0.00  0.00    +0.165 HD
BRANCH  31  38
ATOM     38  O   UNL     1      -6.169   1.295   1.035  0.00  0.00    -0.495 OA
ATOM     39  C   UNL     1      -7.318   1.509   0.212  0.00  0.00    +0.277 C 
ENDBRANCH  31  38
ENDBRANCH  27  28
ENDBRANCH  26  27
ENDBRANCH  11  26
TORSDOF 8
