REMARK  Name = ZINC38653224
REMARK  8 active torsions:
REMARK  status: ('A' for Active; 'I' for Inactive)
REMARK    1  A    between atoms: C_1  and  C_2
REMARK    2  A    between atoms: C_4  and  C_31
REMARK    3  A    between atoms: C_8  and  C_12
REMARK    4  A    between atoms: C_12  and  C_14
REMARK    5  A    between atoms: C_12  and  S_15
REMARK    6  A    between atoms: S_15  and  C_16
REMARK    7  A    between atoms: C_20  and  C_23
REMARK    8  A    between atoms: N_21  and  N_22
REMARK                            x       y       z     vdW  Elec       q    Type
REMARK                         _______ _______ _______ _____ _____    ______ ____
ROOT
ATOM      1  C   UNL     1       7.584  -5.162  -0.611  0.00  0.00    +0.252 C 
ATOM      2  N   UNL     1       6.900  -6.181   0.203  0.00  0.00    -0.236 N 
ATOM      3  N   UNL     1       7.347  -6.000   1.517  0.00  0.00    -0.167 NA
ATOM      4  C   UNL     1       8.194  -5.027   1.600  0.00  0.00    +0.162 C 
ATOM      5  N   UNL     1       8.423  -4.434   0.356  0.00  0.00    -0.220 N 
ATOM      6  H   UNL     1       6.265  -6.845  -0.109  0.00  0.00    +0.171 HD
ENDROOT
BRANCH   4   7
ATOM      7  C   UNL     1       8.842  -4.596   2.857  0.00  0.00    +0.019 A 
ATOM      8  C   UNL     1       9.118  -5.528   3.859  0.00  0.00    +0.011 A 
ATOM      9  C   UNL     1       9.724  -5.119   5.029  0.00  0.00    +0.002 A 
ATOM     10  C   UNL     1      10.056  -3.789   5.212  0.00  0.00    +0.020 A 
ATOM     11  C   UNL     1       9.785  -2.859   4.223  0.00  0.00    +0.042 A 
ATOM     12  C   UNL     1       9.184  -3.256   3.044  0.00  0.00    +0.031 A 
ATOM     13 CL   UNL     1      10.206  -1.192   4.461  0.00  0.00    -0.084 Cl
ENDBRANCH   4   7
BRANCH   5  14
ATOM     14  N   UNL     1       9.257  -3.386   0.089  0.00  0.00    -0.250 NA
ATOM     15  H   UNL     1       9.782  -3.123   0.909  0.00  0.00    +0.141 HD
ATOM     16  H   UNL     1       9.873  -3.602  -0.680  0.00  0.00    +0.141 HD
ENDBRANCH   5  14
BRANCH   1  17
ATOM     17  S   UNL     1       6.378  -4.043  -1.376  0.00  0.00    -0.106 S 
BRANCH  17  18
ATOM     18  C   UNL     1       5.443  -3.380   0.029  0.00  0.00    +0.112 C 
ATOM     19  C   UNL     1       6.370  -2.538   0.907  0.00  0.00    +0.027 C 
BRANCH  18  26
ATOM     20  C   UNL     1       0.585   2.054  -0.709  0.00  0.00    +0.024 C 
ATOM     21  C   UNL     1       0.480   0.532  -0.598  0.00  0.00    +0.076 C 
ATOM     22  C   UNL     1       1.223  -0.146  -1.727  0.00  0.00    -0.045 C 
ATOM     23  C   UNL     1       2.253  -0.943  -1.407  0.00  0.00    +0.071 C 
ATOM     24  C   UNL     1       2.583  -1.097   0.026  0.00  0.00    +0.111 C 
ATOM     25  N   UNL     1       3.579  -1.863   0.403  0.00  0.00    -0.226 NA
ATOM     26  C   UNL     1       4.315  -2.519  -0.480  0.00  0.00    +0.136 C 
ATOM     27  N   UNL     1       4.116  -2.459  -1.775  0.00  0.00    -0.160 NA
ATOM     28  C   UNL     1       3.143  -1.723  -2.324  0.00  0.00    +0.271 C 
ATOM     29  O   UNL     1       2.986  -1.690  -3.533  0.00  0.00    -0.268 OA
ATOM     30  S   UNL     1       1.394  -0.085   0.874  0.00  0.00    -0.098 S 
ATOM     31  C   UNL     1       0.818   0.066  -3.163  0.00  0.00    +0.041 C 
ENDBRANCH  18  26
ENDBRANCH  17  18
ENDBRANCH   1  17
TORSDOF 5
