REMARK  Name = ZINC56054058
REMARK  5 active torsions:
REMARK  status: ('A' for Active; 'I' for Inactive)
REMARK    1  A    between atoms: C_3  and  C_7
REMARK    2  A    between atoms: C_7  and  C_9
REMARK    3  A    between atoms: C_11  and  C_23
REMARK    4  A    between atoms: C_17  and  C_18
REMARK    5  A    between atoms: C_17  and  O_22
REMARK                            x       y       z     vdW  Elec       q    Type
REMARK                         _______ _______ _______ _____ _____    ______ ____
ROOT
ATOM      1  C   UNL     1       5.421   1.392  -0.481  0.00  0.00    +0.144 C 
ATOM      2  C   UNL     1       6.093   1.843   0.820  0.00  0.00    +0.118 C 
ATOM      3  N   UNL     1       6.169   3.305   0.840  0.00  0.00    -0.319 N 
ATOM      4  C   UNL     1       6.255   4.015  -0.295  0.00  0.00    +0.133 C 
ATOM      5  S   UNL     1       6.355   5.721  -0.193  0.00  0.00    -0.019 S 
ATOM      6  N   UNL     1       6.265   3.441  -1.507  0.00  0.00    -0.291 N 
ATOM      7  C   UNL     1       6.194   1.983  -1.664  0.00  0.00    +0.241 C 
ATOM      8  H   UNL     1       6.156   3.770   1.691  0.00  0.00    +0.148 HD
ATOM      9  H   UNL     1       6.321   4.000  -2.298  0.00  0.00    +0.151 HD
ENDROOT
BRANCH   2  10
ATOM     10  C   UNL     1       7.483   1.265   0.896  0.00  0.00    -0.019 A 
ATOM     11  C   UNL     1       7.680  -0.033   1.330  0.00  0.00    +0.013 A 
ATOM     12  C   UNL     1       8.942  -0.522   1.386  0.00  0.00    +0.045 A 
ATOM     13  S   UNL     1       9.904   0.869   0.815  0.00  0.00    -0.105 S 
ATOM     14  C   UNL     1       8.558   2.007   0.534  0.00  0.00    +0.050 A 
ENDBRANCH   2  10
BRANCH   7  15
ATOM     15  C   UNL     1       5.474   1.637  -2.969  0.00  0.00    +0.436 C 
ATOM     16  F   UNL     1       4.233   2.284  -3.002  0.00  0.00    -0.166 F 
ATOM     17  F   UNL     1       6.248   2.059  -4.055  0.00  0.00    -0.166 F 
ATOM     18  F   UNL     1       5.281   0.254  -3.043  0.00  0.00    -0.166 F 
ENDBRANCH   7  15
BRANCH   1  19
ATOM     19  C   UNL     1       3.996   1.883  -0.511  0.00  0.00    +0.174 C 
ATOM     20  O   UNL     1       3.744   3.030  -0.208  0.00  0.00    -0.291 OA
BRANCH  19  23
ATOM     21  C   UNL     1       0.592   0.487  -1.226  0.00  0.00    +0.020 A 
ATOM     22  C   UNL     1       1.573   1.384  -0.842  0.00  0.00    +0.014 A 
ATOM     23  C   UNL     1       2.912   0.971  -0.907  0.00  0.00    +0.036 A 
ATOM     24  C   UNL     1       3.198  -0.322  -1.357  0.00  0.00    +0.122 A 
ATOM     25  N   UNL     1       2.227  -1.136  -1.712  0.00  0.00    -0.263 NA
ATOM     26  C   UNL     1       0.959  -0.774  -1.660  0.00  0.00    +0.111 A 
ENDBRANCH  19  23
ENDBRANCH   1  19
BRANCH   7  27
ATOM     27  O   UNL     1       7.516   1.441  -1.689  0.00  0.00    -0.364 OA
ATOM     28  H   UNL     1       8.063   1.772  -2.415  0.00  0.00    +0.212 HD
ENDBRANCH   7  27
TORSDOF 5
