REMARK  Name = ZINC05024340
REMARK  4 active torsions:
REMARK  status: ('A' for Active; 'I' for Inactive)
REMARK    1  A    between atoms: C_3  and  C_7
REMARK    2  A    between atoms: C_10  and  C_21
REMARK    3  A    between atoms: C_16  and  N_20
REMARK    4  A    between atoms: C_17  and  C_18
REMARK                            x       y       z     vdW  Elec       q    Type
REMARK                         _______ _______ _______ _____ _____    ______ ____
ROOT
ATOM      1  C   UNL     1       3.696   2.049  -0.023  0.00  0.00    +0.103 C 
ATOM      2  C   UNL     1       4.473   1.655  -1.253  0.00  0.00    +0.058 A 
ATOM      3  C   UNL     1       4.274   1.995  -2.536  0.00  0.00    +0.146 A 
ATOM      4  N   UNL     1       5.233   1.388  -3.274  0.00  0.00    -0.269 N 
ATOM      5  H   UNL     1       5.337   1.453  -4.236  0.00  0.00    +0.189 HD
ATOM      6  N   UNL     1       6.050   0.648  -2.404  0.00  0.00    -0.135 NA
ATOM      7  C   UNL     1       5.599   0.805  -1.193  0.00  0.00    +0.245 A 
ATOM      8  O   UNL     1       6.055   0.294  -0.019  0.00  0.00    -0.421 OA
ATOM      9  C   UNL     1       5.572   0.828   1.120  0.00  0.00    +0.201 C 
ATOM     10  C   UNL     1       4.497   1.642   1.189  0.00  0.00    +0.098 C 
ENDROOT
BRANCH   1  13
ATOM     11  C   UNL     1      -0.017   1.378   0.010  0.00  0.00    +0.020 A 
ATOM     12  C   UNL     1       1.185   2.070   0.002  0.00  0.00    +0.007 A 
ATOM     13  C   UNL     1       2.365   1.343  -0.013  0.00  0.00    -0.016 A 
ATOM     14  C   UNL     1       2.305  -0.038  -0.020  0.00  0.00    +0.115 A 
ATOM     15  N   UNL     1       1.144  -0.663  -0.013  0.00  0.00    -0.263 NA
ATOM     16  C   UNL     1       0.002  -0.004   0.002  0.00  0.00    +0.111 A 
ENDBRANCH   1  13
BRANCH   3  17
ATOM     17  C   UNL     1       3.182   2.890  -3.060  0.00  0.00    +0.434 C 
ATOM     18  F   UNL     1       3.301   3.008  -4.449  0.00  0.00    -0.164 F 
ATOM     19  F   UNL     1       1.935   2.338  -2.745  0.00  0.00    -0.164 F 
ATOM     20  F   UNL     1       3.293   4.155  -2.473  0.00  0.00    -0.164 F 
ENDBRANCH   3  17
BRANCH   9  21
ATOM     21  N   UNL     1       6.218   0.525   2.293  0.00  0.00    -0.328 N 
ATOM     22  H   UNL     1       6.994  -0.057   2.282  0.00  0.00    +0.145 HD
ATOM     23  H   UNL     1       5.898   0.891   3.132  0.00  0.00    +0.145 HD
ENDBRANCH   9  21
BRANCH  10  24
ATOM     24  C   UNL     1       4.098   2.143   2.470  0.00  0.00    +0.101 C 
ATOM     25  N   UNL     1       3.782   2.540   3.486  0.00  0.00    -0.191 NA
ENDBRANCH  10  24
TORSDOF 4
