REMARK  Name = ZINC58069438
REMARK  12 active torsions:
REMARK  status: ('A' for Active; 'I' for Inactive)
REMARK    1  A    between atoms: C_1  and  C_2
REMARK    2  A    between atoms: C_2  and  C_3
REMARK    3  A    between atoms: C_2  and  C_4
REMARK    4  A    between atoms: C_7  and  C_10
REMARK    5  A    between atoms: C_10  and  C_12
REMARK    6  A    between atoms: C_10  and  N_17
REMARK    7  A    between atoms: N_17  and  C_18
REMARK    8  A    between atoms: C_18  and  C_19
REMARK    9  A    between atoms: N_24  and  C_25
REMARK   10  A    between atoms: C_25  and  C_26
REMARK   11  A    between atoms: C_25  and  C_27
REMARK   12  A    between atoms: C_25  and  C_28
REMARK                            x       y       z     vdW  Elec       q    Type
REMARK                         _______ _______ _______ _____ _____    ______ ____
ROOT
ATOM      1  C   UNL     1       2.797  -1.919   4.683  0.00  0.00    +0.122 C 
ENDROOT
BRANCH   1   5
ATOM      2  C   UNL     1       0.731  -0.503   1.223  0.00  0.00    -0.045 A 
ATOM      3  C   UNL     1       2.050  -0.148   1.434  0.00  0.00    +0.004 A 
ATOM      4  C   UNL     1       2.719  -0.606   2.554  0.00  0.00    +0.006 A 
ATOM      5  C   UNL     1       2.068  -1.419   3.463  0.00  0.00    -0.026 A 
ATOM      6  C   UNL     1       0.749  -1.773   3.252  0.00  0.00    +0.006 A 
ATOM      7  C   UNL     1       0.079  -1.312   2.135  0.00  0.00    +0.004 A 
BRANCH   2   9
ATOM      8  C   UNL     1      -0.019   1.526   0.010  0.00  0.00    +0.012 C 
ATOM      9  C   UNL     1       0.002  -0.004   0.002  0.00  0.00    +0.013 C 
ATOM     10  C   UNL     1       0.718  -0.497  -1.257  0.00  0.00    +0.012 C 
ENDBRANCH   2   9
ENDBRANCH   1   5
BRANCH   1  11
ATOM     11  C   UNL     1       2.420  -1.076   5.874  0.00  0.00    +0.011 A 
ATOM     12  C   UNL     1       3.101  -0.052   6.445  0.00  0.00    +0.013 A 
ATOM     13  C   UNL     1       2.556   0.585   7.544  0.00  0.00    +0.008 A 
ATOM     14  C   UNL     1       1.357   0.168   8.018  0.00  0.00    +0.045 A 
ATOM     15  S   UNL     1       0.958  -1.161   6.895  0.00  0.00    -0.100 S 
ENDBRANCH   1  11
BRANCH   1  16
ATOM     16  N   UNL     1       2.426  -3.317   4.936  0.00  0.00    -0.297 NA
ATOM     17  H   UNL     1       1.542  -3.375   5.419  0.00  0.00    +0.123 HD
BRANCH  16  18
ATOM     18  C   UNL     1       3.481  -4.015   5.684  0.00  0.00    +0.178 C 
BRANCH  18  19
ATOM     19  C   UNL     1       3.066  -5.443   5.925  0.00  0.00    +0.234 C 
ATOM     20  O   UNL     1       1.997  -5.841   5.514  0.00  0.00    -0.274 OA
ATOM     21  N   UNL     1       3.883  -6.279   6.597  0.00  0.00    -0.239 N 
ATOM     22  C   UNL     1       3.511  -7.556   6.812  0.00  0.00    +0.306 C 
ATOM     23  O   UNL     1       2.440  -7.955   6.400  0.00  0.00    -0.252 OA
ATOM     24  N   UNL     1       4.328  -8.391   7.484  0.00  0.00    -0.294 N 
ATOM     25  H   UNL     1       4.738  -5.960   6.926  0.00  0.00    +0.159 HD
ATOM     26  H   UNL     1       5.184  -8.073   7.813  0.00  0.00    +0.151 HD
BRANCH  24  27
ATOM     27  C   UNL     1       3.925  -9.780   7.717  0.00  0.00    +0.028 C 
ATOM     28  C   UNL     1       3.704 -10.480   6.375  0.00  0.00    +0.031 C 
ATOM     29  C   UNL     1       5.023 -10.506   8.496  0.00  0.00    +0.031 C 
ATOM     30  C   UNL     1       2.626  -9.805   8.525  0.00  0.00    +0.031 C 
ENDBRANCH  24  27
ENDBRANCH  18  19
ENDBRANCH  16  18
ENDBRANCH   1  16
TORSDOF 7
