REMARK  Name = ZINC65380771
REMARK  8 active torsions:
REMARK  status: ('A' for Active; 'I' for Inactive)
REMARK    1  A    between atoms: C_1  and  C_2
REMARK    2  A    between atoms: C_2  and  C_3
REMARK    3  A    between atoms: C_2  and  C_4
REMARK    4  A    between atoms: C_2  and  C_5
REMARK    5  A    between atoms: C_7  and  C_11
REMARK    6  A    between atoms: C_11  and  N_12
REMARK    7  A    between atoms: N_12  and  C_13
REMARK    8  A    between atoms: C_16  and  N_21
REMARK                            x       y       z     vdW  Elec       q    Type
REMARK                         _______ _______ _______ _____ _____    ______ ____
ROOT
ATOM      1  N   UNL     1       3.845  -2.668  -2.869  0.00  0.00    -0.312 N 
ATOM      2  C   UNL     1       3.547  -3.751  -3.810  0.00  0.00    +0.131 C 
ATOM      3  C   UNL     1       4.768  -2.866  -1.854  0.00  0.00    +0.128 A 
ATOM      4  C   UNL     1       4.978  -1.884  -0.891  0.00  0.00    +0.087 A 
ATOM      5  C   UNL     1       5.915  -2.127   0.110  0.00  0.00    +0.128 A 
ATOM      6  N   UNL     1       6.574  -3.283   0.113  0.00  0.00    -0.200 NA
ATOM      7  C   UNL     1       6.348  -4.195  -0.821  0.00  0.00    +0.216 A 
ATOM      8  N   UNL     1       5.461  -4.000  -1.785  0.00  0.00    -0.200 NA
ATOM      9  N   UNL     1       7.053  -5.385  -0.784  0.00  0.00    -0.327 N 
ATOM     10  H   UNL     1       7.703  -5.543  -0.082  0.00  0.00    +0.145 HD
ATOM     11  H   UNL     1       6.898  -6.062  -1.462  0.00  0.00    +0.145 HD
ENDROOT
BRANCH   5  12
ATOM     12  N   UNL     1       6.157  -1.177   1.090  0.00  0.00    -0.311 N 
ATOM     13  C   UNL     1       6.978  -1.498   2.268  0.00  0.00    +0.134 C 
ATOM     14  C   UNL     1       8.048  -0.411   2.423  0.00  0.00    +0.178 C 
ATOM     15  O   UNL     1       7.419   0.873   2.417  0.00  0.00    -0.377 OA
ATOM     16  C   UNL     1       6.740   1.187   1.199  0.00  0.00    +0.178 C 
ATOM     17  C   UNL     1       5.607   0.183   0.979  0.00  0.00    +0.134 C 
ENDBRANCH   5  12
BRANCH   1  18
ATOM     18  C   UNL     1       3.168  -1.376  -3.002  0.00  0.00    +0.160 C 
BRANCH  18  21
ATOM     19  C   UNL     1       0.421  -1.130  -0.547  0.00  0.00    +0.068 A 
ATOM     20  C   UNL     1       1.752  -0.933  -0.926  0.00  0.00    +0.049 A 
ATOM     21  C   UNL     1       1.897  -1.390  -2.192  0.00  0.00    +0.054 A 
ATOM     22  N   UNL     1       0.699  -1.860  -2.599  0.00  0.00    -0.280 N 
ATOM     23  H   UNL     1       0.503  -2.249  -3.465  0.00  0.00    +0.189 HD
ATOM     24  N   UNL     1      -0.210  -1.690  -1.547  0.00  0.00    -0.178 NA
BRANCH  19  26
ATOM     25  C   UNL     1      -0.389   0.749   0.855  0.00  0.00    +0.017 C 
ATOM     26  C   UNL     1      -0.182  -0.766   0.786  0.00  0.00    +0.006 C 
ATOM     27  C   UNL     1       0.761  -1.204   1.908  0.00  0.00    +0.017 C 
ATOM     28  C   UNL     1      -1.529  -1.473   0.946  0.00  0.00    +0.017 C 
ENDBRANCH  19  26
ENDBRANCH  18  21
ENDBRANCH   1  18
TORSDOF 4
