REMARK  Name = ZINC63362778
REMARK  10 active torsions:
REMARK  status: ('A' for Active; 'I' for Inactive)
REMARK    1  A    between atoms: C_1  and  C_2
REMARK    2  A    between atoms: C_2  and  C_35
REMARK    3  A    between atoms: C_3  and  C_21
REMARK    4  A    between atoms: C_12  and  O_19
REMARK    5  A    between atoms: C_13  and  O_17
REMARK    6  A    between atoms: O_17  and  C_18
REMARK    7  A    between atoms: O_19  and  C_20
REMARK    8  A    between atoms: N_23  and  C_24
REMARK    9  A    between atoms: C_24  and  C_25
REMARK   10  A    between atoms: C_25  and  C_26
REMARK                            x       y       z     vdW  Elec       q    Type
REMARK                         _______ _______ _______ _____ _____    ______ ____
ROOT
ATOM      1  C   UNL     1      -0.019   1.526   0.010  0.00  0.00    +0.025 C 
ATOM      2  C   UNL     1       0.002  -0.004   0.002  0.00  0.00    +0.040 C 
ATOM      3  C   UNL     1       0.855  -0.541  -1.172  0.00  0.00    +0.179 C 
ATOM      4  N   UNL     1       1.903  -1.474  -0.752  0.00  0.00    -0.268 N 
ATOM      5  C   UNL     1       2.481  -1.078   0.566  0.00  0.00    +0.167 C 
ATOM      6  S   UNL     1       0.924  -0.661   1.460  0.00  0.00    -0.125 S 
ATOM      7  C   UNL     1       3.107  -2.325   1.121  0.00  0.00    -0.001 A 
ATOM      8  C   UNL     1       3.577  -2.681   2.362  0.00  0.00    +0.011 A 
ATOM      9  C   UNL     1       4.133  -3.934   2.565  0.00  0.00    +0.050 A 
ATOM     10  C   UNL     1       4.217  -4.838   1.519  0.00  0.00    +0.162 A 
ATOM     11  C   UNL     1       3.737  -4.494   0.259  0.00  0.00    +0.174 A 
ATOM     12  C   UNL     1       3.169  -3.231   0.055  0.00  0.00    +0.088 A 
ATOM     13  C   UNL     1       2.538  -2.608  -1.114  0.00  0.00    +0.252 C 
ATOM     14  O   UNL     1       2.600  -3.043  -2.248  0.00  0.00    -0.270 OA
ATOM     15  C   UNL     1      -1.419  -0.569  -0.048  0.00  0.00    +0.025 C 
ENDROOT
BRANCH   3  16
ATOM     16  C   UNL     1       1.504   0.626  -1.871  0.00  0.00    +0.235 C 
ATOM     17  O   UNL     1       2.662   0.904  -1.641  0.00  0.00    -0.274 OA
ATOM     18  N   UNL     1       0.797   1.361  -2.752  0.00  0.00    -0.313 N 
ATOM     19  H   UNL     1      -0.129   1.139  -2.937  0.00  0.00    +0.149 HD
BRANCH  18  20
ATOM     20  C   UNL     1       1.427   2.496  -3.432  0.00  0.00    +0.108 C 
BRANCH  20  21
ATOM     21  C   UNL     1       0.415   3.154  -4.371  0.00  0.00    +0.052 C 
BRANCH  21  22
ATOM     22  C   UNL     1       1.063   4.321  -5.071  0.00  0.00    -0.040 C 
ATOM     23  C   UNL     1       1.643   4.317  -6.293  0.00  0.00    -0.001 A 
ATOM     24  C   UNL     1       1.837   3.265  -7.298  0.00  0.00    +0.010 A 
ATOM     25  C   UNL     1       2.469   3.571  -8.453  0.00  0.00    +0.001 A 
ATOM     26  C   UNL     1       2.944   4.863  -8.714  0.00  0.00    +0.002 A 
ATOM     27  C   UNL     1       2.804   5.882  -7.840  0.00  0.00    +0.026 A 
ATOM     28  C   UNL     1       2.153   5.674  -6.593  0.00  0.00    +0.043 A 
ATOM     29  N   UNL     1       1.899   6.486  -5.595  0.00  0.00    -0.380 N 
ATOM     30  C   UNL     1       1.192   5.735  -4.550  0.00  0.00    +0.144 C 
ATOM     31  H   UNL     1       2.134   7.426  -5.556  0.00  0.00    +0.160 HD
ENDBRANCH  21  22
ENDBRANCH  20  21
ENDBRANCH  18  20
ENDBRANCH   3  16
BRANCH  11  32
ATOM     32  O   UNL     1       3.819  -5.379  -0.767  0.00  0.00    -0.491 OA
ATOM     33  C   UNL     1       2.714  -6.267  -0.948  0.00  0.00    +0.277 C 
ENDBRANCH  11  32
BRANCH  10  34
ATOM     34  O   UNL     1       4.771  -6.063   1.724  0.00  0.00    -0.491 OA
ATOM     35  C   UNL     1       5.244  -6.349   3.042  0.00  0.00    +0.277 C 
ENDBRANCH  10  34
TORSDOF 6
