REMARK  Name = ZINC12672790
REMARK  8 active torsions:
REMARK  status: ('A' for Active; 'I' for Inactive)
REMARK    1  A    between atoms: C_1  and  C_2
REMARK    2  A    between atoms: C_5  and  S_8
REMARK    3  A    between atoms: S_8  and  C_9
REMARK    4  A    between atoms: C_9  and  C_10
REMARK    5  A    between atoms: N_12  and  N_13
REMARK    6  A    between atoms: C_14  and  C_16
REMARK    7  A    between atoms: C_19  and  N_25
REMARK    8  A    between atoms: C_20  and  N_22
REMARK                            x       y       z     vdW  Elec       q    Type
REMARK                         _______ _______ _______ _____ _____    ______ ____
ROOT
ATOM      1  N   UNL     1       1.075   3.675   0.705  0.00  0.00    -0.230 N 
ATOM      2  C   UNL     1       2.238   4.323   0.496  0.00  0.00    +0.260 C 
ATOM      3  O   UNL     1       3.288   3.708   0.512  0.00  0.00    -0.269 OA
ATOM      4  H   UNL     1       0.238   4.166   0.692  0.00  0.00    +0.173 HD
ENDROOT
BRANCH   2   5
ATOM      5  C   UNL     1       2.239   5.777   0.249  0.00  0.00    +0.040 A 
ATOM      6  C   UNL     1       1.033   6.484   0.226  0.00  0.00    +0.015 A 
ATOM      7  C   UNL     1       1.038   7.842   0.001  0.00  0.00    +0.026 A 
ATOM      8  C   UNL     1       2.240   8.509  -0.214  0.00  0.00    +0.055 A 
ATOM      9  C   UNL     1       3.442   7.807  -0.197  0.00  0.00    +0.147 A 
ATOM     10  C   UNL     1       3.445   6.450   0.033  0.00  0.00    +0.047 A 
BRANCH   9  11
ATOM     11  N   UNL     1       4.719   8.521  -0.425  0.00  0.00    +0.058 N 
ATOM     12  O   UNL     1       5.758   7.894  -0.523  0.00  0.00    -0.126 OA
ATOM     13  O   UNL     1       4.730   9.736  -0.516  0.00  0.00    -0.126 OA
ENDBRANCH   9  11
BRANCH   8  14
ATOM     14  N   UNL     1       2.241   9.880  -0.447  0.00  0.00    -0.356 N 
ATOM     15  H   UNL     1       2.971  10.289  -0.939  0.00  0.00    +0.142 HD
ATOM     16  H   UNL     1       1.512  10.429  -0.117  0.00  0.00    +0.142 HD
ENDBRANCH   8  14
ENDBRANCH   2   5
BRANCH   1  19
ATOM     17  C   UNL     1      -0.089   1.647   1.147  0.00  0.00    +0.239 C 
ATOM     18  O   UNL     1      -1.136   2.259   1.127  0.00  0.00    -0.273 OA
ATOM     19  N   UNL     1       1.074   2.294   0.939  0.00  0.00    -0.233 N 
ATOM     20  H   UNL     1       1.911   1.804   0.951  0.00  0.00    +0.173 HD
BRANCH  17  21
ATOM     21  C   UNL     1      -0.090   0.161   1.399  0.00  0.00    +0.171 C 
BRANCH  21  22
ATOM     22  S   UNL     1      -1.794  -0.411   1.641  0.00  0.00    -0.116 S 
BRANCH  22  27
ATOM     23  C   UNL     1      -1.224  -6.343   2.598  0.00  0.00    +0.044 C 
ATOM     24  C   UNL     1      -1.366  -4.862   2.359  0.00  0.00    -0.050 A 
ATOM     25  C   UNL     1      -2.620  -4.280   2.367  0.00  0.00    +0.004 A 
ATOM     26  C   UNL     1      -2.755  -2.923   2.148  0.00  0.00    +0.015 A 
ATOM     27  C   UNL     1      -1.628  -2.143   1.921  0.00  0.00    +0.008 A 
ATOM     28  C   UNL     1      -0.369  -2.732   1.908  0.00  0.00    +0.015 A 
ATOM     29  C   UNL     1      -0.242  -4.089   2.133  0.00  0.00    +0.004 A 
ENDBRANCH  22  27
ENDBRANCH  21  22
ENDBRANCH  17  21
ENDBRANCH   1  19
TORSDOF 7
