REMARK  Name = ZINC65638275
REMARK  11 active torsions:
REMARK  status: ('A' for Active; 'I' for Inactive)
REMARK    1  A    between atoms: C_1  and  C_2
REMARK    2  A    between atoms: C_2  and  O_3
REMARK    3  A    between atoms: O_3  and  C_4
REMARK    4  A    between atoms: C_9  and  N_10
REMARK    5  A    between atoms: C_11  and  C_13
REMARK    6  A    between atoms: N_15  and  C_16
REMARK    7  A    between atoms: C_16  and  C_17
REMARK    8  A    between atoms: N_20  and  C_22
REMARK    9  A    between atoms: C_22  and  C_23
REMARK   10  A    between atoms: C_22  and  C_24
REMARK   11  A    between atoms: C_26  and  C_28
REMARK                            x       y       z     vdW  Elec       q    Type
REMARK                         _______ _______ _______ _____ _____    ______ ____
ROOT
ATOM      1  N   UNL     1       2.012  -1.508   3.374  0.00  0.00    -0.275 N 
ATOM      2  C   UNL     1       2.562  -2.022   4.492  0.00  0.00    +0.303 C 
ATOM      3  O   UNL     1       2.663  -3.225   4.622  0.00  0.00    -0.265 OA
ATOM      4  H   UNL     1       2.004  -0.548   3.235  0.00  0.00    +0.155 HD
ENDROOT
BRANCH   1  10
ATOM      5  C   UNL     1       1.356  -1.944   1.089  0.00  0.00    +0.142 A 
ATOM      6  C   UNL     1       0.802  -2.793   0.144  0.00  0.00    +0.055 A 
ATOM      7  C   UNL     1       0.347  -4.039   0.519  0.00  0.00    +0.001 A 
ATOM      8  C   UNL     1       0.440  -4.466   1.838  0.00  0.00    +0.126 A 
ATOM      9  C   UNL     1       0.992  -3.612   2.787  0.00  0.00    +0.073 A 
ATOM     10  C   UNL     1       1.453  -2.359   2.415  0.00  0.00    +0.079 A 
ATOM     11  O   UNL     1      -0.046  -5.731   1.982  0.00  0.00    -0.488 OA
ATOM     12  C   UNL     1      -0.891  -6.043   0.861  0.00  0.00    +0.175 C 
ATOM     13  C   UNL     1      -0.304  -5.161  -0.267  0.00  0.00    +0.083 C 
ATOM     14  C   UNL     1      -2.343  -5.656   1.152  0.00  0.00    +0.052 C 
BRANCH   5  15
ATOM     15  O   UNL     1       1.807  -0.714   0.722  0.00  0.00    -0.490 OA
BRANCH  15  17
ATOM     16  C   UNL     1       2.232   1.050  -0.875  0.00  0.00    +0.048 C 
ATOM     17  C   UNL     1       1.674  -0.358  -0.655  0.00  0.00    +0.226 C 
ENDBRANCH  15  17
ENDBRANCH   5  15
ENDBRANCH   1  10
BRANCH   2  18
ATOM     18  C   UNL     1       3.047  -1.111   5.572  0.00  0.00    +0.299 C 
ATOM     19  O   UNL     1       2.946   0.091   5.442  0.00  0.00    -0.265 OA
ATOM     20  N   UNL     1       3.598  -1.625   6.690  0.00  0.00    -0.307 N 
ATOM     21  H   UNL     1       3.679  -2.586   6.793  0.00  0.00    +0.149 HD
BRANCH  20  22
ATOM     22  C   UNL     1       4.074  -0.732   7.749  0.00  0.00    +0.106 C 
BRANCH  22  23
ATOM     23  C   UNL     1       4.649  -1.563   8.897  0.00  0.00    -0.012 C 
ATOM     24  C   UNL     1       5.998  -2.209   8.485  0.00  0.00    -0.015 C 
ATOM     25  C   UNL     1       6.694  -2.383   9.857  0.00  0.00    -0.078 C 
ATOM     26  N   UNL     1       6.308  -1.184  10.631  0.00  0.00    +0.381 N 
ATOM     27  C   UNL     1       5.045  -0.657  10.082  0.00  0.00    -0.074 C 
ATOM     28  H   UNL     1       7.030  -0.483  10.555  0.00  0.00    -0.081 HD
BRANCH  26  29
ATOM     29  C   UNL     1       6.120  -1.546  12.043  0.00  0.00    -0.075 C 
ATOM     30  C   UNL     1       7.436  -2.079  12.612  0.00  0.00    -0.014 C 
ATOM     31  C   UNL     1       5.686  -0.309  12.833  0.00  0.00    -0.014 C 
ENDBRANCH  26  29
ENDBRANCH  22  23
ENDBRANCH  20  22
ENDBRANCH   2  18
TORSDOF 7
