REMARK  Name = ZINC41095699
REMARK  9 active torsions:
REMARK  status: ('A' for Active; 'I' for Inactive)
REMARK    1  A    between atoms: C_1  and  C_2
REMARK    2  A    between atoms: C_2  and  O_3
REMARK    3  A    between atoms: O_3  and  C_4
REMARK    4  A    between atoms: C_6  and  C_24
REMARK    5  A    between atoms: C_7  and  C_21
REMARK    6  A    between atoms: C_9  and  S_10
REMARK    7  A    between atoms: S_10  and  N_13
REMARK    8  A    between atoms: C_21  and  C_22
REMARK    9  A    between atoms: C_21  and  C_23
REMARK                            x       y       z     vdW  Elec       q    Type
REMARK                         _______ _______ _______ _____ _____    ______ ____
ROOT
ATOM      1  C   UNL     1      -1.640  -2.211  -0.390  0.00  0.00    +0.147 A 
ATOM      2  C   UNL     1      -0.615  -3.142  -0.479  0.00  0.00    +0.051 A 
ATOM      3  C   UNL     1      -0.842  -4.453  -0.109  0.00  0.00    -0.043 A 
ATOM      4  C   UNL     1      -2.088  -4.839   0.349  0.00  0.00    -0.040 A 
ATOM      5  C   UNL     1      -3.111  -3.913   0.438  0.00  0.00    +0.036 A 
ATOM      6  C   UNL     1      -2.888  -2.599   0.075  0.00  0.00    +0.150 A 
ATOM      7  C   UNL     1       0.271  -5.465  -0.205  0.00  0.00    +0.044 C 
ENDROOT
BRANCH   6   8
ATOM      8  S   UNL     1      -4.190  -1.418   0.195  0.00  0.00    +0.077 S 
ATOM      9  O   UNL     1      -5.330  -2.117   0.677  0.00  0.00    -0.150 OA
ATOM     10  O   UNL     1      -3.652  -0.286   0.865  0.00  0.00    -0.150 OA
BRANCH   8  11
ATOM     11  N   UNL     1      -4.551  -0.928  -1.345  0.00  0.00    -0.199 N 
ATOM     12  C   UNL     1      -5.031  -1.847  -2.272  0.00  0.00    +0.138 A 
ATOM     13  C   UNL     1      -5.226  -1.456  -3.593  0.00  0.00    +0.046 A 
ATOM     14  C   UNL     1      -5.703  -2.379  -4.505  0.00  0.00    +0.025 A 
ATOM     15  C   UNL     1      -5.969  -3.670  -4.064  0.00  0.00    +0.059 A 
ATOM     16  C   UNL     1      -5.752  -3.990  -2.738  0.00  0.00    +0.133 A 
ATOM     17  N   UNL     1      -5.291  -3.088  -1.891  0.00  0.00    -0.238 NA
ATOM     18 CL   UNL     1      -6.570  -4.868  -5.168  0.00  0.00    -0.082 Cl
ATOM     19  H   UNL     1      -4.429  -0.001  -1.600  0.00  0.00    +0.175 HD
ENDBRANCH   8  11
ENDBRANCH   6   8
BRANCH   4  20
ATOM     20  C   UNL     1      -2.332  -6.270   0.752  0.00  0.00    +0.013 C 
ATOM     21  C   UNL     1      -2.904  -6.310   2.171  0.00  0.00    +0.012 C 
ATOM     22  C   UNL     1      -3.327  -6.910  -0.217  0.00  0.00    +0.012 C 
ENDBRANCH   4  20
BRANCH   1  23
ATOM     23  O   UNL     1      -1.420  -0.920  -0.753  0.00  0.00    -0.490 OA
BRANCH  23  25
ATOM     24  C   UNL     1      -0.062   0.886  -1.610  0.00  0.00    +0.048 C 
ATOM     25  C   UNL     1      -0.144  -0.614  -1.319  0.00  0.00    +0.226 C 
ENDBRANCH  23  25
ENDBRANCH   1  23
TORSDOF 5
