REMARK  Name = ZINC06669830
REMARK  10 active torsions:
REMARK  status: ('A' for Active; 'I' for Inactive)
REMARK    1  A    between atoms: C_1  and  C_2
REMARK    2  A    between atoms: C_2  and  C_23
REMARK    3  A    between atoms: C_7  and  N_11
REMARK    4  A    between atoms: C_8  and  C_9
REMARK    5  A    between atoms: N_14  and  C_15
REMARK    6  A    between atoms: N_14  and  C_18
REMARK    7  A    between atoms: C_15  and  C_16
REMARK    8  A    between atoms: C_16  and  O_17
REMARK    9  A    between atoms: C_18  and  C_19
REMARK   10  A    between atoms: C_19  and  O_20
REMARK                            x       y       z     vdW  Elec       q    Type
REMARK                         _______ _______ _______ _____ _____    ______ ____
ROOT
ATOM      1  C   UNL     1       1.530  -1.966  -0.242  0.00  0.00    +0.041 C 
ATOM      2  C   UNL     1       1.394  -0.456  -0.451  0.00  0.00    +0.068 C 
ATOM      3  C   UNL     1       0.002  -0.004   0.002  0.00  0.00    +0.071 C 
ATOM      4  C   UNL     1      -0.019   1.520   0.010  0.00  0.00    -0.013 A 
ATOM      5  C   UNL     1       1.147   2.209   0.003  0.00  0.00    +0.022 A 
ATOM      6  S   UNL     1       0.665   3.910   0.015  0.00  0.00    -0.075 S 
ATOM      7  C   UNL     1      -1.057   3.712   0.030  0.00  0.00    +0.091 A 
ATOM      8  C   UNL     1      -1.218   2.333   0.020  0.00  0.00    +0.084 A 
ATOM      9  C   UNL     1       2.521   1.616  -0.012  0.00  0.00    +0.203 C 
ATOM     10  O   UNL     1       2.402   0.220   0.306  0.00  0.00    -0.368 OA
ATOM     11  C   UNL     1       1.575  -0.131  -1.935  0.00  0.00    +0.041 C 
ENDROOT
BRANCH   7  12
ATOM     12  N   UNL     1      -2.037   4.695   0.044  0.00  0.00    -0.263 N 
ATOM     13  C   UNL     1      -1.687   5.996   0.047  0.00  0.00    +0.307 C 
ATOM     14  O   UNL     1      -0.512   6.309   0.037  0.00  0.00    -0.252 OA
ATOM     15  N   UNL     1      -2.638   6.950   0.060  0.00  0.00    -0.281 N 
ATOM     16  H   UNL     1      -2.974   4.445   0.051  0.00  0.00    +0.157 HD
BRANCH  15  17
ATOM     17  C   UNL     1      -2.257   8.365   0.063  0.00  0.00    +0.137 C 
BRANCH  17  18
ATOM     18  C   UNL     1      -2.138   8.864  -1.379  0.00  0.00    +0.175 C 
BRANCH  18  19
ATOM     19  O   UNL     1      -3.421   8.820  -2.006  0.00  0.00    -0.393 OA
ATOM     20  H   UNL     1      -3.421   9.123  -2.924  0.00  0.00    +0.209 HD
ENDBRANCH  18  19
ENDBRANCH  17  18
ENDBRANCH  15  17
BRANCH  15  21
ATOM     21  C   UNL     1      -4.054   6.573   0.071  0.00  0.00    +0.137 C 
BRANCH  21  22
ATOM     22  C   UNL     1      -4.533   6.435   1.518  0.00  0.00    +0.175 C 
BRANCH  22  23
ATOM     23  O   UNL     1      -4.477   7.709   2.162  0.00  0.00    -0.393 OA
ATOM     24  H   UNL     1      -4.767   7.697   3.084  0.00  0.00    +0.209 HD
ENDBRANCH  22  23
ENDBRANCH  21  22
ENDBRANCH  15  21
ENDBRANCH   7  12
BRANCH   8  25
ATOM     25  C   UNL     1      -2.521   1.737   0.024  0.00  0.00    +0.102 C 
ATOM     26  N   UNL     1      -3.553   1.265   0.027  0.00  0.00    -0.191 NA
ENDBRANCH   8  25
TORSDOF 8
