REMARK  Name = ZINC50376069
REMARK  7 active torsions:
REMARK  status: ('A' for Active; 'I' for Inactive)
REMARK    1  A    between atoms: C_1  and  O_2
REMARK    2  A    between atoms: O_2  and  C_3
REMARK    3  A    between atoms: C_8  and  N_10
REMARK    4  A    between atoms: N_10  and  S_11
REMARK    5  A    between atoms: S_11  and  C_14
REMARK    6  A    between atoms: C_19  and  N_20
REMARK    7  A    between atoms: N_20  and  N_21
REMARK                            x       y       z     vdW  Elec       q    Type
REMARK                         _______ _______ _______ _____ _____    ______ ____
ROOT
ATOM      1  S   UNL     1      -1.930  -3.335  -0.409  0.00  0.00    +0.061 S 
ATOM      2  O   UNL     1      -2.472  -3.661   0.863  0.00  0.00    -0.153 OA
ATOM      3  O   UNL     1      -2.614  -2.507  -1.339  0.00  0.00    -0.153 OA
ENDROOT
BRANCH   1   4
ATOM      4  C   UNL     1      -1.615  -4.862  -1.230  0.00  0.00    +0.127 A 
ATOM      5  C   UNL     1      -2.078  -5.064  -2.515  0.00  0.00    +0.030 A 
ATOM      6  C   UNL     1      -1.832  -6.262  -3.160  0.00  0.00    +0.002 A 
ATOM      7  C   UNL     1      -1.123  -7.262  -2.520  0.00  0.00    +0.002 A 
ATOM      8  C   UNL     1      -0.657  -7.067  -1.235  0.00  0.00    +0.026 A 
ATOM      9  C   UNL     1      -0.898  -5.862  -0.586  0.00  0.00    +0.067 A 
BRANCH   9  10
ATOM     10  N   UNL     1      -0.424  -5.659   0.712  0.00  0.00    -0.281 N 
ATOM     11  H   UNL     1      -0.550  -4.801   1.146  0.00  0.00    +0.166 HD
BRANCH  10  12
ATOM     12  N   UNL     1       0.217  -6.670   1.371  0.00  0.00    -0.256 NA
ATOM     13  H   UNL     1       1.006  -7.004   0.839  0.00  0.00    +0.140 HD
ATOM     14  H   UNL     1       0.500  -6.377   2.294  0.00  0.00    +0.140 HD
ENDBRANCH  10  12
ENDBRANCH   9  10
ENDBRANCH   1   4
BRANCH   1  15
ATOM     15  N   UNL     1      -0.463  -2.619  -0.128  0.00  0.00    -0.184 NA
ATOM     16  H   UNL     1      -0.155  -2.485   0.782  0.00  0.00    +0.148 HD
BRANCH  15  21
ATOM     17  C   UNL     1       0.751  -0.702  -1.090  0.00  0.00    +0.136 C 
ATOM     18  C   UNL     1       2.150  -0.738  -0.425  0.00  0.00    +0.033 C 
ATOM     19  C   UNL     1       2.826  -1.948  -1.116  0.00  0.00    +0.004 C 
ATOM     20  C   UNL     1       1.690  -2.981  -1.268  0.00  0.00    +0.023 C 
ATOM     21  C   UNL     1       0.369  -2.188  -1.254  0.00  0.00    +0.105 C 
BRANCH  17  23
ATOM     22  C   UNL     1      -0.324   1.362  -0.518  0.00  0.00    +0.194 C 
ATOM     23  O   UNL     1      -0.188  -0.034  -0.245  0.00  0.00    -0.378 OA
ENDBRANCH  17  23
ENDBRANCH  15  21
ENDBRANCH   1  15
TORSDOF 6
