REMARK  Name = ZINC08781474
REMARK  6 active torsions:
REMARK  status: ('A' for Active; 'I' for Inactive)
REMARK    1  A    between atoms: C_1  and  O_2
REMARK    2  A    between atoms: O_2  and  C_3
REMARK    3  A    between atoms: C_3  and  C_5
REMARK    4  A    between atoms: C_5  and  C_31
REMARK    5  A    between atoms: C_10  and  C_12
REMARK    6  A    between atoms: N_21  and  C_24
REMARK                            x       y       z     vdW  Elec       q    Type
REMARK                         _______ _______ _______ _____ _____    ______ ____
ROOT
ATOM      1  C   UNL     1      -5.148   0.988  -0.205  0.00  0.00    +0.070 C 
ATOM      2  C   UNL     1      -4.820   0.869   1.298  0.00  0.00    +0.090 C 
ATOM      3  C   UNL     1      -3.274   0.977   1.378  0.00  0.00    +0.078 C 
ATOM      4  C   UNL     1      -2.813   1.150  -0.084  0.00  0.00    -0.026 C 
ATOM      5  C   UNL     1      -3.069   2.290   2.132  0.00  0.00    +0.229 C 
ATOM      6  O   UNL     1      -1.993   2.771   2.417  0.00  0.00    -0.275 OA
ATOM      7  N   UNL     1      -4.258   2.823   2.433  0.00  0.00    -0.210 N 
ATOM      8  C   UNL     1      -5.309   2.109   2.013  0.00  0.00    +0.229 C 
ATOM      9  O   UNL     1      -6.472   2.409   2.180  0.00  0.00    -0.275 OA
ATOM     10  N   UNL     1      -3.991   1.691  -0.761  0.00  0.00    +0.398 N 
ATOM     11  H   UNL     1      -4.071   2.699  -0.584  0.00  0.00    -0.083 HD
ATOM     12  H   UNL     1      -3.928   1.525  -1.772  0.00  0.00    -0.083 HD
ENDROOT
BRANCH   4  13
ATOM     13  C   UNL     1      -1.649   2.104  -0.158  0.00  0.00    -0.059 A 
ATOM     14  C   UNL     1      -1.862   3.465  -0.041  0.00  0.00    +0.002 A 
ATOM     15  C   UNL     1      -0.795   4.341  -0.115  0.00  0.00    +0.002 A 
ATOM     16  C   UNL     1       0.486   3.856  -0.299  0.00  0.00    +0.020 A 
ATOM     17  C   UNL     1       0.701   2.494  -0.411  0.00  0.00    +0.041 A 
ATOM     18  C   UNL     1      -0.367   1.618  -0.337  0.00  0.00    +0.022 A 
ATOM     19 CL   UNL     1       2.310   1.885  -0.642  0.00  0.00    -0.084 Cl
ENDBRANCH   4  13
BRANCH   7  20
ATOM     20  C   UNL     1      -4.393   4.031   3.133  0.00  0.00    +0.044 A 
ATOM     21  C   UNL     1      -4.015   4.108   4.466  0.00  0.00    +0.025 A 
ATOM     22  C   UNL     1      -4.143   5.300   5.152  0.00  0.00    +0.022 A 
ATOM     23  C   UNL     1      -4.659   6.414   4.513  0.00  0.00    +0.041 A 
ATOM     24  C   UNL     1      -5.042   6.338   3.186  0.00  0.00    +0.022 A 
ATOM     25  C   UNL     1      -4.910   5.150   2.495  0.00  0.00    +0.025 A 
ATOM     26 CL   UNL     1      -4.825   7.909   5.379  0.00  0.00    -0.084 Cl
ENDBRANCH   7  20
BRANCH   1  27
ATOM     27  C   UNL     1      -5.272  -0.380  -0.825  0.00  0.00    -0.047 A 
ATOM     28  C   UNL     1      -5.769  -1.433  -0.081  0.00  0.00    +0.003 A 
ATOM     29  C   UNL     1      -5.888  -2.687  -0.651  0.00  0.00    +0.000 A 
ATOM     30  C   UNL     1      -5.500  -2.889  -1.962  0.00  0.00    +0.000 A 
ATOM     31  C   UNL     1      -4.997  -1.837  -2.705  0.00  0.00    +0.000 A 
ATOM     32  C   UNL     1      -4.884  -0.582  -2.136  0.00  0.00    +0.003 A 
ENDBRANCH   1  27
BRANCH   1  33
ATOM     33  C   UNL     1      -6.419   1.772  -0.407  0.00  0.00    +0.301 C 
ATOM     34  O   UNL     1      -7.466   1.193  -0.573  0.00  0.00    -0.252 OA
BRANCH  33  36
ATOM     35  C   UNL     1      -7.649   3.804  -0.605  0.00  0.00    +0.280 C 
ATOM     36  O   UNL     1      -6.387   3.114  -0.404  0.00  0.00    -0.469 OA
ENDBRANCH  33  36
ENDBRANCH   1  33
TORSDOF 5
