REMARK  Name = ZINC58382017
REMARK  4 active torsions:
REMARK  status: ('A' for Active; 'I' for Inactive)
REMARK    1  A    between atoms: C_9  and  C_11
REMARK    2  A    between atoms: C_12  and  C_13
REMARK    3  A    between atoms: N_15  and  N_16
REMARK    4  A    between atoms: C_17  and  C_19
REMARK                            x       y       z     vdW  Elec       q    Type
REMARK                         _______ _______ _______ _____ _____    ______ ____
ROOT
ATOM      1  C   UNL     1       0.092  -4.319  -0.023  0.00  0.00    +0.253 C 
ATOM      2  O   UNL     1       1.154  -4.912  -0.037  0.00  0.00    -0.269 OA
ATOM      3  N   UNL     1      -1.066  -5.009  -0.016  0.00  0.00    -0.231 N 
ATOM      4  H   UNL     1      -1.913  -4.537  -0.005  0.00  0.00    +0.173 HD
ENDROOT
BRANCH   3   5
ATOM      5  N   UNL     1      -1.045  -6.410  -0.024  0.00  0.00    -0.230 N 
ATOM      6  C   UNL     1      -2.203  -7.101  -0.016  0.00  0.00    +0.262 C 
ATOM      7  O   UNL     1      -3.264  -6.509  -0.003  0.00  0.00    -0.269 OA
ATOM      8  H   UNL     1      -0.199  -6.883  -0.035  0.00  0.00    +0.173 HD
BRANCH   6   9
ATOM      9  C   UNL     1      -2.181  -8.579  -0.025  0.00  0.00    +0.056 A 
ATOM     10  C   UNL     1      -3.377  -9.308  -0.023  0.00  0.00    +0.017 A 
ATOM     11  C   UNL     1      -3.303 -10.689  -0.032  0.00  0.00    +0.041 A 
ATOM     12  C   UNL     1      -2.060 -11.301  -0.042  0.00  0.00    +0.129 A 
ATOM     13  N   UNL     1      -0.950 -10.587  -0.043  0.00  0.00    -0.243 NA
ATOM     14  C   UNL     1      -0.970  -9.270  -0.040  0.00  0.00    +0.125 A 
ATOM     15 CL   UNL     1      -1.962 -13.034  -0.053  0.00  0.00    -0.062 Cl
ENDBRANCH   6   9
ENDBRANCH   3   5
BRANCH   1  17
ATOM     16  C   UNL     1       1.231  -2.164  -0.022  0.00  0.00    +0.015 C 
ATOM     17  C   UNL     1       0.070  -2.856  -0.015  0.00  0.00    +0.069 C 
BRANCH  16  26
ATOM     18  C   UNL     1      -0.017   1.383   0.010  0.00  0.00    +0.001 A 
ATOM     19  C   UNL     1       1.132   2.115   0.003  0.00  0.00    +0.010 A 
ATOM     20  C   UNL     1       2.385   1.482  -0.013  0.00  0.00    +0.001 A 
ATOM     21  C   UNL     1       3.582   2.224  -0.021  0.00  0.00    +0.011 A 
ATOM     22  C   UNL     1       4.764   1.538  -0.035  0.00  0.00    +0.020 A 
ATOM     23  C   UNL     1       4.761   0.146  -0.043  0.00  0.00    +0.111 A 
ATOM     24  N   UNL     1       3.642  -0.540  -0.036  0.00  0.00    -0.254 NA
ATOM     25  C   UNL     1       2.457   0.068  -0.021  0.00  0.00    +0.078 A 
ATOM     26  C   UNL     1       1.209  -0.697  -0.014  0.00  0.00    +0.001 A 
ATOM     27  C   UNL     1       0.002  -0.004   0.002  0.00  0.00    +0.010 A 
ENDBRANCH  16  26
ENDBRANCH   1  17
TORSDOF 4
