REMARK  Name = ZINC39946772
REMARK  6 active torsions:
REMARK  status: ('A' for Active; 'I' for Inactive)
REMARK    1  A    between atoms: C_4  and  C_7
REMARK    2  A    between atoms: C_7  and  C_9
REMARK    3  A    between atoms: C_7  and  S_20
REMARK    4  A    between atoms: C_9  and  C_11
REMARK    5  A    between atoms: S_20  and  C_21
REMARK    6  A    between atoms: C_25  and  C_27
REMARK                            x       y       z     vdW  Elec       q    Type
REMARK                         _______ _______ _______ _____ _____    ______ ____
ROOT
ATOM      1  C   UNL     1       3.711  -0.707  -0.038  0.00  0.00    +0.152 C 
ENDROOT
BRANCH   1   5
ATOM      2  C   UNL     1      -0.017   1.378   0.010  0.00  0.00    +0.000 A 
ATOM      3  C   UNL     1       1.171   2.086   0.002  0.00  0.00    +0.000 A 
ATOM      4  C   UNL     1       2.377   1.411  -0.013  0.00  0.00    +0.005 A 
ATOM      5  C   UNL     1       2.396   0.029  -0.020  0.00  0.00    -0.027 A 
ATOM      6  C   UNL     1       1.208  -0.679  -0.012  0.00  0.00    +0.005 A 
ATOM      7  C   UNL     1       0.002  -0.004   0.002  0.00  0.00    +0.000 A 
ENDBRANCH   1   5
BRANCH   1   8
ATOM      8  C   UNL     1       3.816  -1.579   1.188  0.00  0.00    +0.179 C 
ATOM      9  O   UNL     1       3.492  -2.748   1.131  0.00  0.00    -0.291 OA
BRANCH   8  10
ATOM     10  C   UNL     1       4.290  -1.036   2.401  0.00  0.00    +0.024 C 
ATOM     11  C   UNL     1       4.450  -1.696   3.606  0.00  0.00    +0.006 A 
ATOM     12  C   UNL     1       4.216  -3.031   4.011  0.00  0.00    +0.010 A 
ATOM     13  C   UNL     1       4.467  -3.411   5.284  0.00  0.00    +0.001 A 
ATOM     14  C   UNL     1       4.963  -2.523   6.251  0.00  0.00    +0.002 A 
ATOM     15  C   UNL     1       5.221  -1.228   5.968  0.00  0.00    +0.026 A 
ATOM     16  C   UNL     1       4.975  -0.732   4.604  0.00  0.00    +0.043 A 
ATOM     17  N   UNL     1       5.131   0.444   4.065  0.00  0.00    -0.380 N 
ATOM     18  C   UNL     1       4.735   0.388   2.655  0.00  0.00    +0.152 C 
ATOM     19  H   UNL     1       5.461   1.232   4.524  0.00  0.00    +0.160 HD
ENDBRANCH   8  10
ENDBRANCH   1   8
BRANCH   1  20
ATOM     20  S   UNL     1       3.806  -1.741  -1.525  0.00  0.00    -0.080 S 
BRANCH  20  21
ATOM     21  C   UNL     1       3.820  -0.546  -2.890  0.00  0.00    +0.340 C 
ATOM     22  N   UNL     1       2.615   0.301  -2.846  0.00  0.00    -0.219 N 
ATOM     23  N   UNL     1       3.087   1.611  -2.676  0.00  0.00    -0.145 NA
ATOM     24  C   UNL     1       4.377   1.619  -2.618  0.00  0.00    +0.240 C 
ATOM     25  O   UNL     1       4.909   0.376  -2.738  0.00  0.00    -0.442 OA
ATOM     26  H   UNL     1       1.692   0.013  -2.920  0.00  0.00    +0.173 HD
BRANCH  24  27
ATOM     27  C   UNL     1       5.184   2.845  -2.443  0.00  0.00    +0.042 A 
ATOM     28  C   UNL     1       6.578   2.764  -2.397  0.00  0.00    +0.017 A 
ATOM     29  C   UNL     1       7.329   3.909  -2.234  0.00  0.00    +0.050 A 
ATOM     30  C   UNL     1       6.706   5.143  -2.115  0.00  0.00    +0.166 A 
ATOM     31  C   UNL     1       5.315   5.229  -2.160  0.00  0.00    +0.167 A 
ATOM     32  C   UNL     1       4.556   4.086  -2.329  0.00  0.00    +0.062 A 
ATOM     33  O   UNL     1       4.955   6.539  -2.020  0.00  0.00    -0.453 OA
ATOM     34  C   UNL     1       6.115   7.201  -1.481  0.00  0.00    +0.466 C 
ATOM     35  O   UNL     1       7.215   6.398  -1.948  0.00  0.00    -0.453 OA
ENDBRANCH  24  27
ENDBRANCH  20  21
ENDBRANCH   1  20
TORSDOF 6
