REMARK  Name = ZINC22453294
REMARK  5 active torsions:
REMARK  status: ('A' for Active; 'I' for Inactive)
REMARK    1  A    between atoms: C_1  and  C_2
REMARK    2  A    between atoms: C_2  and  C_3
REMARK    3  A    between atoms: C_3  and  C_4
REMARK    4  A    between atoms: C_13  and  C_21
REMARK    5  A    between atoms: C_18  and  C_20
REMARK                            x       y       z     vdW  Elec       q    Type
REMARK                         _______ _______ _______ _____ _____    ______ ____
ROOT
ATOM      1  C   UNL     1       1.925   0.123  -1.017  0.00  0.00    +0.050 A 
ATOM      2  C   UNL     1       1.297  -0.651  -0.084  0.00  0.00    +0.093 A 
ATOM      3  C   UNL     1       0.547  -0.024   0.926  0.00  0.00    +0.253 A 
ATOM      4  O   UNL     1      -0.027  -0.685   1.776  0.00  0.00    -0.268 OA
ATOM      5  N   UNL     1       0.473   1.324   0.937  0.00  0.00    -0.295 N 
ATOM      6  H   UNL     1      -0.108   1.837   1.718  0.00  0.00    +0.172 HD
ATOM      7  C   UNL     1       1.120   2.044  -0.019  0.00  0.00    +0.199 A 
ATOM      8  N   UNL     1       1.822   1.449  -0.963  0.00  0.00    -0.221 NA
ATOM      9  N   UNL     1       1.040   3.411  -0.001  0.00  0.00    -0.296 N 
ATOM     10  C   UNL     1       1.797   3.967   1.128  0.00  0.00    +0.073 C 
ATOM     11  C   UNL     1       1.807   5.495   1.034  0.00  0.00    +0.022 C 
ATOM     12  C   UNL     1       0.367   6.012   1.056  0.00  0.00    +0.004 C 
ATOM     13  C   UNL     1      -0.412   5.380  -0.101  0.00  0.00    +0.022 C 
ATOM     14  C   UNL     1      -0.358   3.856   0.026  0.00  0.00    +0.073 C 
ATOM     15  C   UNL     1      -1.119   3.221  -1.139  0.00  0.00    +0.028 C 
ATOM     16  C   UNL     1       1.138   3.542   2.442  0.00  0.00    +0.028 C 
ENDROOT
BRANCH   1  17
ATOM     17  C   UNL     1       2.736  -0.525  -2.110  0.00  0.00    +0.055 C 
BRANCH  17  19
ATOM     18  C   UNL     1       2.693  -1.345  -4.469  0.00  0.00    +0.004 C 
ATOM     19  C   UNL     1       1.869  -0.688  -3.360  0.00  0.00    +0.003 C 
ENDBRANCH  17  19
ENDBRANCH   1  17
TORSDOF 2
