REMARK  Name = ZINC15009693
REMARK  10 active torsions:
REMARK  status: ('A' for Active; 'I' for Inactive)
REMARK    1  A    between atoms: C_1  and  C_2
REMARK    2  A    between atoms: C_2  and  C_3
REMARK    3  A    between atoms: C_9  and  C_25
REMARK    4  A    between atoms: C_11  and  C_14
REMARK    5  A    between atoms: N_16  and  C_17
REMARK    6  A    between atoms: C_20  and  C_24
REMARK    7  A    between atoms: C_22  and  C_23
REMARK    8  A    between atoms: C_28  and  O_31
REMARK    9  A    between atoms: O_31  and  C_32
REMARK   10  A    between atoms: C_32  and  C_33
REMARK                            x       y       z     vdW  Elec       q    Type
REMARK                         _______ _______ _______ _____ _____    ______ ____
ROOT
ATOM      1  C   UNL     1       2.769   6.259  -1.920  0.00  0.00    +0.151 A 
ATOM      2  N   UNL     1       2.619   7.504  -1.560  0.00  0.00    -0.132 NA
ATOM      3  N   UNL     1       2.025   7.567  -0.418  0.00  0.00    -0.121 NA
ATOM      4  C   UNL     1       1.765   6.361   0.003  0.00  0.00    +0.209 A 
ATOM      5  N   UNL     1       2.235   5.483  -0.932  0.00  0.00    -0.225 N 
ATOM      6  N   UNL     1       2.183   4.127  -0.880  0.00  0.00    -0.272 N 
ATOM      7  C   UNL     1       1.145   3.611   0.013  0.00  0.00    +0.140 C 
ATOM      8  C   UNL     1       1.373   4.109   1.446  0.00  0.00    +0.166 C 
ATOM      9  S   UNL     1       0.953   5.877   1.494  0.00  0.00    -0.069 S 
ATOM     10  H   UNL     1       3.085   3.739  -0.647  0.00  0.00    +0.167 HD
ENDROOT
BRANCH   7  11
ATOM     11  C   UNL     1       1.178   2.104  -0.003  0.00  0.00    -0.024 A 
ATOM     12  C   UNL     1      -0.004   1.387   0.002  0.00  0.00    +0.009 A 
ATOM     13  C   UNL     1       0.024   0.006  -0.012  0.00  0.00    +0.046 A 
ATOM     14  C   UNL     1       1.240  -0.661  -0.030  0.00  0.00    +0.121 A 
ATOM     15  C   UNL     1       2.425   0.060  -0.034  0.00  0.00    +0.046 A 
ATOM     16  C   UNL     1       2.391   1.441  -0.021  0.00  0.00    +0.009 A 
BRANCH  14  17
ATOM     17  O   UNL     1       1.270  -2.020  -0.043  0.00  0.00    -0.492 OA
BRANCH  17  18
ATOM     18  C   UNL     1       2.557  -2.640  -0.061  0.00  0.00    +0.225 C 
ATOM     19  C   UNL     1       2.391  -4.161  -0.074  0.00  0.00    +0.048 C 
ENDBRANCH  17  18
ENDBRANCH  14  17
ENDBRANCH   7  11
BRANCH   8  20
ATOM     20  C   UNL     1       0.487   3.348   2.398  0.00  0.00    +0.233 C 
ATOM     21  O   UNL     1      -0.584   2.921   2.020  0.00  0.00    -0.274 OA
ATOM     22  N   UNL     1       0.884   3.141   3.669  0.00  0.00    -0.284 N 
ATOM     23  H   UNL     1       1.773   3.411   3.949  0.00  0.00    +0.155 HD
BRANCH  22  24
ATOM     24  C   UNL     1       0.015   2.537   4.584  0.00  0.00    +0.036 A 
ATOM     25  C   UNL     1      -1.359   2.612   4.393  0.00  0.00    +0.024 A 
ATOM     26  C   UNL     1      -2.214   2.009   5.295  0.00  0.00    +0.005 A 
ATOM     27  C   UNL     1      -1.704   1.342   6.393  0.00  0.00    -0.050 A 
ATOM     28  C   UNL     1      -0.337   1.270   6.590  0.00  0.00    +0.008 A 
ATOM     29  C   UNL     1       0.524   1.866   5.688  0.00  0.00    -0.029 A 
ATOM     30  C   UNL     1       2.013   1.788   5.903  0.00  0.00    +0.045 C 
ATOM     31  C   UNL     1      -2.640   0.690   7.378  0.00  0.00    +0.044 C 
ENDBRANCH  22  24
ENDBRANCH   8  20
BRANCH   1  33
ATOM     32  C   UNL     1       2.352   5.640  -4.285  0.00  0.00    +0.012 C 
ATOM     33  C   UNL     1       3.414   5.769  -3.191  0.00  0.00    +0.074 C 
ENDBRANCH   1  33
TORSDOF 6
