REMARK  Name = ZINC56229120
REMARK  5 active torsions:
REMARK  status: ('A' for Active; 'I' for Inactive)
REMARK    1  A    between atoms: C_1  and  C_2
REMARK    2  A    between atoms: C_2  and  C_4
REMARK    3  A    between atoms: C_2  and  S_12
REMARK    4  A    between atoms: S_12  and  C_13
REMARK    5  A    between atoms: C_13  and  C_14
REMARK                            x       y       z     vdW  Elec       q    Type
REMARK                         _______ _______ _______ _____ _____    ______ ____
ROOT
ATOM      1  C   UNL     1       2.582  -0.025   1.234  0.00  0.00    +0.146 C 
ENDROOT
BRANCH   1   2
ATOM      2  C   UNL     1       3.429  -0.463   2.401  0.00  0.00    +0.146 A 
ATOM      3  N   UNL     1       3.541   0.315   3.463  0.00  0.00    -0.199 NA
ATOM      4  C   UNL     1       4.288  -0.068   4.496  0.00  0.00    +0.217 A 
ATOM      5  N   UNL     1       4.922  -1.235   4.458  0.00  0.00    -0.181 NA
ATOM      6  C   UNL     1       4.807  -2.015   3.389  0.00  0.00    +0.217 A 
ATOM      7  N   UNL     1       4.054  -1.627   2.362  0.00  0.00    -0.199 NA
ATOM      8  N   UNL     1       5.463  -3.228   3.345  0.00  0.00    -0.327 N 
ATOM      9  N   UNL     1       4.404   0.746   5.604  0.00  0.00    -0.327 N 
ATOM     10  H   UNL     1       6.008  -3.512   4.095  0.00  0.00    +0.145 HD
ATOM     11  H   UNL     1       5.379  -3.797   2.563  0.00  0.00    +0.145 HD
ATOM     12  H   UNL     1       3.942   1.598   5.631  0.00  0.00    +0.145 HD
ATOM     13  H   UNL     1       4.949   0.466   6.356  0.00  0.00    +0.145 HD
ENDBRANCH   1   2
BRANCH   1  14
ATOM     14  S   UNL     1       0.879  -0.605   1.472  0.00  0.00    -0.145 S 
BRANCH  14  16
ATOM     15  C   UNL     1      -0.019   1.526   0.010  0.00  0.00    +0.024 C 
ATOM     16  C   UNL     1       0.002  -0.004   0.002  0.00  0.00    +0.077 C 
BRANCH  16  17
ATOM     17  C   UNL     1      -1.412  -0.526   0.013  0.00  0.00    +0.003 A 
ATOM     18  C   UNL     1      -2.033  -0.862  -1.175  0.00  0.00    +0.046 A 
ATOM     19  C   UNL     1      -3.332  -1.341  -1.165  0.00  0.00    +0.124 A 
ATOM     20  C   UNL     1      -4.008  -1.484   0.035  0.00  0.00    +0.041 A 
ATOM     21  C   UNL     1      -3.387  -1.148   1.222  0.00  0.00    +0.041 A 
ATOM     22  C   UNL     1      -2.086  -0.674   1.213  0.00  0.00    +0.128 A 
ATOM     23  F   UNL     1      -1.476  -0.350   2.374  0.00  0.00    -0.205 F 
ATOM     24  F   UNL     1      -3.940  -1.669  -2.326  0.00  0.00    -0.205 F 
ENDBRANCH  16  17
ENDBRANCH  14  16
ENDBRANCH   1  14
TORSDOF 4
