REMARK  Name = ZINC09488164
REMARK  6 active torsions:
REMARK  status: ('A' for Active; 'I' for Inactive)
REMARK    1  A    between atoms: C_4  and  C_7
REMARK    2  A    between atoms: N_9  and  C_10
REMARK    3  A    between atoms: C_10  and  C_30
REMARK    4  A    between atoms: N_13  and  C_17
REMARK    5  A    between atoms: C_17  and  C_18
REMARK    6  A    between atoms: C_18  and  C_19
REMARK                            x       y       z     vdW  Elec       q    Type
REMARK                         _______ _______ _______ _____ _____    ______ ____
ROOT
ATOM      1  C   UNL     1       4.987  -2.751  -0.171  0.00  0.00    +0.278 C 
ATOM      2  C   UNL     1       5.674  -2.353  -1.462  0.00  0.00    +0.274 C 
ATOM      3  O   UNL     1       6.045  -1.244  -1.783  0.00  0.00    -0.271 OA
ATOM      4  N   UNL     1       5.788  -3.488  -2.180  0.00  0.00    -0.222 N 
ATOM      5  C   UNL     1       5.274  -4.537  -1.528  0.00  0.00    +0.311 C 
ATOM      6  O   UNL     1       5.260  -5.668  -1.973  0.00  0.00    -0.252 OA
ATOM      7  N   UNL     1       4.774  -4.200  -0.326  0.00  0.00    -0.263 N 
ATOM      8  H   UNL     1       4.355  -4.796   0.315  0.00  0.00    +0.153 HD
ENDROOT
BRANCH   1  11
ATOM      9  C   UNL     1       3.656  -0.711  -0.138  0.00  0.00    +0.246 C 
ATOM     10  O   UNL     1       4.683  -0.071  -0.256  0.00  0.00    -0.270 OA
ATOM     11  N   UNL     1       3.707  -2.053  -0.032  0.00  0.00    -0.276 N 
ATOM     12  H   UNL     1       2.896  -2.558   0.136  0.00  0.00    +0.152 HD
BRANCH   9  16
ATOM     13  C   UNL     1      -0.092   1.286  -0.058  0.00  0.00    +0.000 A 
ATOM     14  C   UNL     1       1.075   2.017  -0.193  0.00  0.00    +0.001 A 
ATOM     15  C   UNL     1       2.295   1.375  -0.219  0.00  0.00    +0.013 A 
ATOM     16  C   UNL     1       2.351  -0.016  -0.110  0.00  0.00    +0.037 A 
ATOM     17  C   UNL     1       1.170  -0.747   0.026  0.00  0.00    +0.013 A 
ATOM     18  C   UNL     1      -0.044  -0.093   0.051  0.00  0.00    +0.001 A 
ENDBRANCH   9  16
ENDBRANCH   1  11
BRANCH   1  19
ATOM     19  C   UNL     1       5.888  -2.465   1.032  0.00  0.00    +0.436 C 
ATOM     20  F   UNL     1       5.290  -2.968   2.192  0.00  0.00    -0.166 F 
ATOM     21  F   UNL     1       7.130  -3.082   0.843  0.00  0.00    -0.166 F 
ATOM     22  F   UNL     1       6.069  -1.084   1.162  0.00  0.00    -0.166 F 
ENDBRANCH   1  19
BRANCH   4  23
ATOM     23  C   UNL     1       6.399  -3.563  -3.510  0.00  0.00    +0.123 C 
BRANCH  23  24
ATOM     24  C   UNL     1       7.896  -3.843  -3.368  0.00  0.00    +0.057 C 
BRANCH  24  25
ATOM     25  C   UNL     1       8.524  -3.920  -4.736  0.00  0.00    -0.021 A 
ATOM     26  C   UNL     1       8.741  -5.034  -5.453  0.00  0.00    +0.087 A 
ATOM     27  N   UNL     1       9.329  -4.714  -6.646  0.00  0.00    -0.360 N 
ATOM     28  H   UNL     1       9.581  -5.352  -7.332  0.00  0.00    +0.165 HD
ATOM     29  C   UNL     1       9.510  -3.351  -6.728  0.00  0.00    +0.047 A 
ATOM     30  C   UNL     1       9.008  -2.794  -5.537  0.00  0.00    +0.004 A 
ATOM     31  C   UNL     1       9.053  -1.412  -5.341  0.00  0.00    +0.030 A 
ATOM     32  C   UNL     1       9.588  -0.602  -6.319  0.00  0.00    +0.042 A 
ATOM     33  C   UNL     1      10.080  -1.153  -7.495  0.00  0.00    +0.022 A 
ATOM     34  C   UNL     1      10.050  -2.515  -7.699  0.00  0.00    +0.027 A 
ATOM     35 CL   UNL     1       9.646   1.116  -6.079  0.00  0.00    -0.084 Cl
ENDBRANCH  24  25
ENDBRANCH  23  24
ENDBRANCH   4  23
TORSDOF 6
