REMARK  Name = ZINC12315338
REMARK  10 active torsions:
REMARK  status: ('A' for Active; 'I' for Inactive)
REMARK    1  A    between atoms: C_1  and  C_2
REMARK    2  A    between atoms: C_2  and  O_3
REMARK    3  A    between atoms: O_3  and  C_4
REMARK    4  A    between atoms: C_4  and  C_6
REMARK    5  A    between atoms: C_6  and  C_7
REMARK    6  A    between atoms: C_7  and  N_13
REMARK    7  A    between atoms: C_14  and  C_16
REMARK    8  A    between atoms: N_22  and  C_24
REMARK    9  A    between atoms: C_24  and  C_25
REMARK   10  A    between atoms: C_25  and  N_67
REMARK                            x       y       z     vdW  Elec       q    Type
REMARK                         _______ _______ _______ _____ _____    ______ ____
ROOT
ATOM      1  N   UNL     1      -4.960   2.745   3.542  0.00  0.00    -0.309 N 
ATOM      2  C   UNL     1      -4.306   2.566   2.377  0.00  0.00    +0.218 C 
ATOM      3  O   UNL     1      -4.864   2.800   1.326  0.00  0.00    -0.275 OA
ATOM      4  H   UNL     1      -4.543   2.483   4.378  0.00  0.00    +0.149 HD
ENDROOT
BRANCH   2   5
ATOM      5  C   UNL     1      -2.881   2.076   2.381  0.00  0.00    +0.093 C 
ATOM      6  C   UNL     1      -1.998   3.065   3.151  0.00  0.00    +0.023 C 
ATOM      7  C   UNL     1      -0.602   2.456   3.295  0.00  0.00    +0.097 C 
ATOM      8  C   UNL     1      -0.124   1.951   1.964  0.00  0.00    +0.216 C 
ATOM      9  O   UNL     1       1.062   1.740   1.823  0.00  0.00    -0.276 OA
ATOM     10  N   UNL     1      -0.934   1.723   0.929  0.00  0.00    -0.303 N 
ATOM     11  C   UNL     1      -2.368   1.983   0.941  0.00  0.00    +0.120 C 
BRANCH  10  12
ATOM     12  C   UNL     1      -0.344   1.183  -0.298  0.00  0.00    +0.089 C 
BRANCH  12  13
ATOM     13  C   UNL     1      -0.372  -0.345  -0.248  0.00  0.00    -0.059 C 
BRANCH  13  19
ATOM     14  C   UNL     1      -0.612  -0.567  -2.648  0.00  0.00    -0.050 C 
ATOM     15  C   UNL     1       0.069  -1.096  -3.912  0.00  0.00    +0.141 C 
ATOM     16  O   UNL     1       0.292  -2.502  -3.775  0.00  0.00    -0.383 OA
ATOM     17  C   UNL     1       1.099  -2.850  -2.647  0.00  0.00    +0.141 C 
ATOM     18  C   UNL     1       0.428  -2.338  -1.369  0.00  0.00    -0.050 C 
ATOM     19  N   UNL     1       0.244  -0.876  -1.484  0.00  0.00    +0.384 N 
ATOM     20  H   UNL     1       1.161  -0.433  -1.616  0.00  0.00    -0.082 HD
ENDBRANCH  13  19
ENDBRANCH  12  13
ENDBRANCH  10  12
ENDBRANCH   2   5
BRANCH   1  21
ATOM     21  C   UNL     1      -6.301   3.334   3.546  0.00  0.00    +0.045 C 
ATOM     22  C   UNL     1      -6.779   3.506   4.989  0.00  0.00    +0.026 C 
ATOM     23  C   UNL     1      -6.819   2.141   5.679  0.00  0.00    +0.002 C 
ATOM     24  C   UNL     1      -7.783   1.219   4.930  0.00  0.00    +0.000 C 
ATOM     25  C   UNL     1      -7.306   1.047   3.486  0.00  0.00    +0.002 C 
ATOM     26  C   UNL     1      -7.266   2.412   2.797  0.00  0.00    +0.026 C 
BRANCH  21  27
ATOM     27  C   UNL     1      -6.261   4.699   2.856  0.00  0.00    +0.146 C 
BRANCH  27  28
ATOM     28  C   UNL     1      -5.206   5.559   3.504  0.00  0.00    +0.309 C 
ATOM     29  O   UNL     1      -4.605   5.151   4.470  0.00  0.00    -0.251 OA
BRANCH  28  30
ATOM     30  O   UNL     1      -4.936   6.776   3.009  0.00  0.00    -0.465 OA
BRANCH  30  32
ATOM     31  C   UNL     1      -3.740   8.898   2.982  0.00  0.00    +0.048 C 
ATOM     32  C   UNL     1      -3.908   7.549   3.684  0.00  0.00    +0.229 C 
ENDBRANCH  30  32
ENDBRANCH  28  30
ENDBRANCH  27  28
ENDBRANCH  21  27
ENDBRANCH   1  21
TORSDOF 9
