REMARK  Name = ZINC36277819
REMARK  3 active torsions:
REMARK  status: ('A' for Active; 'I' for Inactive)
REMARK    1  A    between atoms: C_1  and  C_2
REMARK    2  A    between atoms: C_2  and  C_3
REMARK    3  A    between atoms: C_16  and  C_19
REMARK                            x       y       z     vdW  Elec       q    Type
REMARK                         _______ _______ _______ _____ _____    ______ ____
ROOT
ATOM      1  C   UNL     1       3.661   1.702  -5.003  0.00  0.00    -0.008 A 
ATOM      2  C   UNL     1       4.136   0.823  -4.108  0.00  0.00    +0.024 A 
ATOM      3  C   UNL     1       3.491  -0.472  -3.975  0.00  0.00    +0.048 A 
ATOM      4  C   UNL     1       3.802  -1.558  -3.111  0.00  0.00    +0.134 A 
ATOM      5  N   UNL     1       3.066  -2.656  -3.164  0.00  0.00    -0.202 NA
ATOM      6  C   UNL     1       2.045  -2.780  -3.996  0.00  0.00    +0.225 A 
ATOM      7  N   UNL     1       1.708  -1.806  -4.821  0.00  0.00    -0.210 NA
ATOM      8  C   UNL     1       2.389  -0.677  -4.834  0.00  0.00    +0.115 A 
ATOM      9  S   UNL     1       2.283   0.844  -5.740  0.00  0.00    -0.073 S 
ATOM     10 CL   UNL     1       1.129  -4.254  -4.003  0.00  0.00    -0.041 Cl
ATOM     11  N   UNL     1       4.862  -1.468  -2.228  0.00  0.00    -0.315 N 
ATOM     12  C   UNL     1       4.666  -0.923  -0.877  0.00  0.00    +0.107 C 
ATOM     13  C   UNL     1       5.194  -1.935   0.145  0.00  0.00    +0.031 C 
ATOM     14  C   UNL     1       6.647  -2.281  -0.189  0.00  0.00    +0.078 C 
ATOM     15  C   UNL     1       6.715  -2.918  -1.579  0.00  0.00    +0.031 C 
ATOM     16  C   UNL     1       6.203  -1.923  -2.619  0.00  0.00    +0.107 C 
ENDROOT
BRANCH  14  17
ATOM     17  C   UNL     1       7.180  -3.250   0.834  0.00  0.00    +0.214 C 
ATOM     18  O   UNL     1       6.468  -3.627   1.741  0.00  0.00    -0.276 OA
ATOM     19  N   UNL     1       8.448  -3.698   0.742  0.00  0.00    -0.329 N 
ATOM     20  H   UNL     1       9.017  -3.397   0.016  0.00  0.00    +0.145 HD
ATOM     21  H   UNL     1       8.791  -4.322   1.400  0.00  0.00    +0.145 HD
ENDBRANCH  14  17
BRANCH   1  23
ATOM     22  C   UNL     1       5.217   3.014  -6.419  0.00  0.00    +0.009 C 
ATOM     23  C   UNL     1       4.168   3.088  -5.308  0.00  0.00    +0.039 C 
ENDBRANCH   1  23
TORSDOF 2
