REMARK  Name = ZINC40707799
REMARK  5 active torsions:
REMARK  status: ('A' for Active; 'I' for Inactive)
REMARK    1  A    between atoms: C_1  and  C_2
REMARK    2  A    between atoms: C_5  and  C_9
REMARK    3  A    between atoms: C_6  and  C_8
REMARK    4  A    between atoms: C_14  and  N_23
REMARK    5  A    between atoms: C_15  and  C_17
REMARK                            x       y       z     vdW  Elec       q    Type
REMARK                         _______ _______ _______ _____ _____    ______ ____
ROOT
ATOM      1  C   UNL     1       0.059  -4.251  -0.021  0.00  0.00    +0.064 A 
ATOM      2  C   UNL     1       1.196  -4.908   0.277  0.00  0.00    +0.075 A 
ATOM      3  S   UNL     1       0.691  -6.614   0.126  0.00  0.00    -0.057 S 
ATOM      4  C   UNL     1      -1.005  -6.326  -0.325  0.00  0.00    +0.180 A 
ATOM      5  N   UNL     1      -1.095  -4.955  -0.331  0.00  0.00    -0.274 N 
ATOM      6  C   UNL     1      -2.413  -4.677  -0.674  0.00  0.00    +0.129 A 
ATOM      7  C   UNL     1      -3.050  -5.867  -0.852  0.00  0.00    +0.113 A 
ATOM      8  N   UNL     1      -2.148  -6.860  -0.636  0.00  0.00    -0.219 NA
ENDROOT
BRANCH   1  13
ATOM      9  C   UNL     1      -0.018   1.503   0.010  0.00  0.00    +0.044 C 
ATOM     10  C   UNL     1       0.002  -0.004   0.002  0.00  0.00    -0.050 A 
ATOM     11  C   UNL     1       0.006  -0.686  -1.202  0.00  0.00    +0.004 A 
ATOM     12  C   UNL     1       0.024  -2.065  -1.217  0.00  0.00    +0.010 A 
ATOM     13  C   UNL     1       0.040  -2.773  -0.013  0.00  0.00    +0.002 A 
ATOM     14  C   UNL     1       0.036  -2.079   1.198  0.00  0.00    -0.041 A 
ATOM     15  C   UNL     1       0.023  -0.699   1.198  0.00  0.00    +0.007 A 
ATOM     16  C   UNL     1       0.052  -2.834   2.501  0.00  0.00    +0.044 C 
ENDBRANCH   1  13
BRANCH   7  17
ATOM     17  C   UNL     1      -4.471  -6.047  -1.227  0.00  0.00    +0.022 A 
ATOM     18  C   UNL     1      -4.862  -7.111  -2.049  0.00  0.00    +0.013 A 
ATOM     19  C   UNL     1      -6.202  -7.234  -2.369  0.00  0.00    +0.020 A 
ATOM     20  C   UNL     1      -7.105  -6.312  -1.872  0.00  0.00    +0.111 A 
ATOM     21  N   UNL     1      -6.708  -5.319  -1.100  0.00  0.00    -0.263 NA
ATOM     22  C   UNL     1      -5.445  -5.163  -0.762  0.00  0.00    +0.120 A 
ENDBRANCH   7  17
BRANCH   6  23
ATOM     23  N   UNL     1      -2.979  -3.409  -0.811  0.00  0.00    -0.342 N 
ATOM     24  H   UNL     1      -2.439  -2.617  -0.661  0.00  0.00    +0.144 HD
ATOM     25  H   UNL     1      -3.914  -3.319  -1.056  0.00  0.00    +0.144 HD
ENDBRANCH   6  23
TORSDOF 3
