REMARK  Name = ZINC40725497
REMARK  2 active torsions:
REMARK  status: ('A' for Active; 'I' for Inactive)
REMARK    1  A    between atoms: C_12  and  N_24
REMARK    2  A    between atoms: C_13  and  N_17
REMARK                            x       y       z     vdW  Elec       q    Type
REMARK                         _______ _______ _______ _____ _____    ______ ____
ROOT
ATOM      1  C   UNL     1      -1.129  -2.241  -1.616  0.00  0.00    +0.000 A 
ATOM      2  C   UNL     1      -1.288  -1.720  -0.345  0.00  0.00    +0.000 A 
ATOM      3  C   UNL     1      -0.179  -1.483   0.440  0.00  0.00    +0.005 A 
ATOM      4  C   UNL     1       1.095  -1.766  -0.035  0.00  0.00    -0.027 A 
ATOM      5  C   UNL     1       1.254  -2.293  -1.296  0.00  0.00    -0.041 A 
ATOM      6  C   UNL     1       0.135  -2.525  -2.088  0.00  0.00    +0.004 A 
ATOM      7  C   UNL     1       2.600  -2.654  -1.867  0.00  0.00    +0.054 C 
ATOM      8  C   UNL     1       3.719  -1.923  -1.127  0.00  0.00    +0.111 C 
ATOM      9  N   UNL     1       3.481  -2.077   0.318  0.00  0.00    -0.309 N 
ATOM     10  C   UNL     1       2.265  -1.469   0.869  0.00  0.00    +0.142 C 
ATOM     11  C   UNL     1       4.373  -2.769   1.128  0.00  0.00    +0.148 A 
ATOM     12  C   UNL     1       5.457  -2.112   1.714  0.00  0.00    +0.106 A 
ATOM     13  C   UNL     1       6.322  -2.855   2.518  0.00  0.00    +0.147 A 
ATOM     14  N   UNL     1       6.083  -4.152   2.696  0.00  0.00    -0.219 NA
ATOM     15  C   UNL     1       5.049  -4.734   2.124  0.00  0.00    +0.225 A 
ATOM     16  N   UNL     1       4.205  -4.069   1.362  0.00  0.00    -0.219 NA
ENDROOT
BRANCH  13  17
ATOM     17  N   UNL     1       7.416  -2.249   3.125  0.00  0.00    -0.314 N 
ATOM     18  C   UNL     1       8.671  -2.207   2.407  0.00  0.00    +0.106 C 
ATOM     19  C   UNL     1       9.494  -3.479   2.725  0.00  0.00    +0.019 C 
ATOM     20  C   UNL     1       9.999  -3.429   4.106  0.00  0.00    +0.002 C 
ATOM     21  C   UNL     1       8.909  -3.408   5.173  0.00  0.00    +0.002 C 
ATOM     22  C   UNL     1       8.448  -1.988   5.389  0.00  0.00    +0.019 C 
ATOM     23  C   UNL     1       7.248  -1.670   4.472  0.00  0.00    +0.106 C 
ENDBRANCH  13  17
BRANCH  12  24
ATOM     24  N   UNL     1       5.670  -0.740   1.498  0.00  0.00    -0.353 N 
ATOM     25  H   UNL     1       5.015  -0.218   1.009  0.00  0.00    +0.143 HD
ATOM     26  H   UNL     1       6.473  -0.315   1.839  0.00  0.00    +0.143 HD
ENDBRANCH  12  24
TORSDOF 2
