REMARK  Name = ZINC20077919
REMARK  5 active torsions:
REMARK  status: ('A' for Active; 'I' for Inactive)
REMARK    1  A    between atoms: C_1  and  C_2
REMARK    2  A    between atoms: C_5  and  O_9
REMARK    3  A    between atoms: O_9  and  C_10
REMARK    4  A    between atoms: C_10  and  C_11
REMARK    5  A    between atoms: C_14  and  C_17
REMARK                            x       y       z     vdW  Elec       q    Type
REMARK                         _______ _______ _______ _____ _____    ______ ____
ROOT
ATOM      1  C   UNL     1      -0.017   1.379   0.010  0.00  0.00    -0.010 A 
ATOM      2  C   UNL     1       1.169   2.093   0.002  0.00  0.00    +0.007 A 
ATOM      3  C   UNL     1       2.377   1.428  -0.013  0.00  0.00    +0.011 A 
ATOM      4  C   UNL     1       2.403   0.033  -0.020  0.00  0.00    +0.012 A 
ATOM      5  C   UNL     1       1.205  -0.680  -0.013  0.00  0.00    +0.011 A 
ATOM      6  C   UNL     1       0.002  -0.004   0.002  0.00  0.00    +0.007 A 
ENDROOT
BRANCH   4   7
ATOM      7  C   UNL     1       3.697  -0.687  -0.035  0.00  0.00    +0.094 C 
ATOM      8  N   UNL     1       3.718  -1.989  -0.042  0.00  0.00    -0.387 N 
ATOM      9  N   UNL     1       4.879   0.021  -0.043  0.00  0.00    -0.345 N 
ATOM     10  H   UNL     1       4.679  -2.523  -0.053  0.00  0.00    +0.157 HD
ATOM     11  H   UNL     1       5.840  -0.513  -0.054  0.00  0.00    +0.144 HD
ATOM     12  H   UNL     1       4.861   1.121  -0.038  0.00  0.00    +0.144 HD
ATOM     13  H   UNL     1       2.774  -2.554  -0.036  0.00  0.00    +0.157 HD
ENDBRANCH   4   7
BRANCH   1  14
ATOM     14  C   UNL     1      -1.334   2.112   0.020  0.00  0.00    +0.264 C 
BRANCH  14  15
ATOM     15  O   UNL     1      -1.744   2.336   1.370  0.00  0.00    -0.486 OA
BRANCH  15  20
ATOM     16  C   UNL     1      -6.622   5.045   2.145  0.00  0.00    +0.044 C 
ATOM     17  C   UNL     1      -5.316   4.320   1.938  0.00  0.00    -0.049 A 
ATOM     18  C   UNL     1      -4.861   4.072   0.657  0.00  0.00    +0.007 A 
ATOM     19  C   UNL     1      -3.665   3.407   0.464  0.00  0.00    +0.047 A 
ATOM     20  C   UNL     1      -2.920   2.990   1.558  0.00  0.00    +0.135 A 
ATOM     21  C   UNL     1      -3.382   3.236   2.843  0.00  0.00    +0.060 A 
ATOM     22  C   UNL     1      -4.577   3.905   3.030  0.00  0.00    +0.022 A 
ATOM     23 BR   UNL     1      -2.374   2.663   4.337  0.00  0.00    -0.047 Br
ENDBRANCH  15  20
ENDBRANCH  14  15
ENDBRANCH   1  14
TORSDOF 4
