REMARK  Name = ZINC22804342
REMARK  6 active torsions:
REMARK  status: ('A' for Active; 'I' for Inactive)
REMARK    1  A    between atoms: C_7  and  C_28
REMARK    2  A    between atoms: C_7  and  O_36
REMARK    3  A    between atoms: N_10  and  C_11
REMARK    4  A    between atoms: C_11  and  N_12
REMARK    5  A    between atoms: N_15  and  C_18
REMARK    6  A    between atoms: C_18  and  C_19
REMARK                            x       y       z     vdW  Elec       q    Type
REMARK                         _______ _______ _______ _____ _____    ______ ____
ROOT
ATOM      1  C   UNL     1      -0.017   1.380   0.010  0.00  0.00    +0.000 A 
ATOM      2  C   UNL     1       1.174   2.084   0.002  0.00  0.00    +0.002 A 
ATOM      3  C   UNL     1       2.380   1.415  -0.013  0.00  0.00    +0.024 A 
ATOM      4  C   UNL     1       2.407   0.021  -0.021  0.00  0.00    +0.044 A 
ATOM      5  C   UNL     1       1.205  -0.674  -0.013  0.00  0.00    +0.016 A 
ATOM      6  C   UNL     1       0.002  -0.004   0.002  0.00  0.00    +0.009 A 
ATOM      7  C   UNL     1       1.563  -2.143  -0.025  0.00  0.00    +0.189 C 
ATOM      8  C   UNL     1       3.077  -2.152  -0.040  0.00  0.00    +0.259 C 
ATOM      9  O   UNL     1       3.791  -3.132  -0.052  0.00  0.00    -0.272 OA
ATOM     10  N   UNL     1       3.480  -0.870  -0.037  0.00  0.00    -0.255 N 
ENDROOT
BRANCH   7  11
ATOM     11  C   UNL     1       1.010  -2.820  -1.280  0.00  0.00    +0.187 C 
ATOM     12  C   UNL     1       1.267  -4.322  -1.262  0.00  0.00    +0.255 C 
ATOM     13  O   UNL     1       2.378  -4.815  -1.255  0.00  0.00    -0.272 OA
ATOM     14  N   UNL     1       0.163  -5.025  -1.255  0.00  0.00    -0.159 NA
ATOM     15  C   UNL     1      -1.049  -4.503  -1.263  0.00  0.00    +0.145 C 
ATOM     16  S   UNL     1      -0.830  -2.832  -1.283  0.00  0.00    -0.077 S 
ATOM     17  N   UNL     1      -2.235  -5.176  -1.256  0.00  0.00    -0.340 N 
ATOM     18  H   UNL     1      -2.242  -6.146  -1.245  0.00  0.00    +0.144 HD
ATOM     19  H   UNL     1      -3.072  -4.685  -1.263  0.00  0.00    +0.144 HD
ENDBRANCH   7  11
BRANCH   7  20
ATOM     20  O   UNL     1       1.070  -2.787   1.152  0.00  0.00    -0.373 OA
ATOM     21  H   UNL     1       1.413  -2.417   1.976  0.00  0.00    +0.211 HD
ENDBRANCH   7  20
BRANCH  10  22
ATOM     22  C   UNL     1       4.885  -0.456  -0.048  0.00  0.00    +0.200 C 
BRANCH  22  23
ATOM     23  N   UNL     1       5.369  -0.325   1.333  0.00  0.00    -0.284 NA
ATOM     24  C   UNL     1       5.736  -1.635   1.888  0.00  0.00    +0.101 C 
ATOM     25  C   UNL     1       6.158  -1.466   3.350  0.00  0.00    +0.100 C 
ATOM     26  N   UNL     1       7.288  -0.530   3.426  0.00  0.00    -0.296 NA
ATOM     27  C   UNL     1       6.920   0.780   2.870  0.00  0.00    +0.100 C 
ATOM     28  C   UNL     1       6.499   0.611   1.408  0.00  0.00    +0.101 C 
BRANCH  26  29
ATOM     29  C   UNL     1       7.771  -0.399   4.807  0.00  0.00    +0.119 C 
BRANCH  29  30
ATOM     30  C   UNL     1       9.069   0.367   4.814  0.00  0.00    -0.030 A 
ATOM     31  C   UNL     1      10.269  -0.310   4.697  0.00  0.00    +0.009 A 
ATOM     32  C   UNL     1      11.463   0.388   4.702  0.00  0.00    +0.050 A 
ATOM     33  C   UNL     1      11.458   1.768   4.826  0.00  0.00    +0.166 A 
ATOM     34  C   UNL     1      10.249   2.449   4.945  0.00  0.00    +0.167 A 
ATOM     35  C   UNL     1       9.057   1.744   4.932  0.00  0.00    +0.054 A 
ATOM     36  O   UNL     1      10.510   3.785   5.052  0.00  0.00    -0.453 OA
ATOM     37  C   UNL     1      11.902   3.878   5.409  0.00  0.00    +0.466 C 
ATOM     38  O   UNL     1      12.476   2.677   4.860  0.00  0.00    -0.453 OA
ENDBRANCH  29  30
ENDBRANCH  26  29
ENDBRANCH  22  23
ENDBRANCH  10  22
TORSDOF 6
