REMARK  Name = ZINC05505987
REMARK  4 active torsions:
REMARK  status: ('A' for Active; 'I' for Inactive)
REMARK    1  A    between atoms: C_4  and  C_7
REMARK    2  A    between atoms: C_7  and  C_9
REMARK    3  A    between atoms: C_7  and  S_17
REMARK    4  A    between atoms: S_17  and  C_18
REMARK                            x       y       z     vdW  Elec       q    Type
REMARK                         _______ _______ _______ _____ _____    ______ ____
ROOT
ATOM      1  C   UNL     1       1.978   5.980   0.015  0.00  0.00    +0.170 C 
ENDROOT
BRANCH   1   2
ATOM      2  C   UNL     1       3.124   6.951   0.133  0.00  0.00    +0.233 C 
ATOM      3  O   UNL     1       4.232   6.631  -0.243  0.00  0.00    -0.274 OA
ATOM      4  N   UNL     1       2.919   8.176   0.657  0.00  0.00    -0.296 N 
ATOM      5  C   UNL     1       1.583   8.589   1.115  0.00  0.00    +0.136 C 
ATOM      6  C   UNL     1       1.716   9.148   2.540  0.00  0.00    +0.179 C 
ATOM      7  O   UNL     1       2.731  10.155   2.556  0.00  0.00    -0.377 OA
ATOM      8  C   UNL     1       4.035   9.675   2.220  0.00  0.00    +0.179 C 
ATOM      9  C   UNL     1       4.022   9.141   0.783  0.00  0.00    +0.136 C 
ENDBRANCH   1   2
BRANCH   1  13
ATOM     10  C   UNL     1      -0.151   6.726  -3.613  0.00  0.00    +0.000 A 
ATOM     11  C   UNL     1      -0.801   6.826  -2.397  0.00  0.00    +0.000 A 
ATOM     12  C   UNL     1      -0.112   6.585  -1.223  0.00  0.00    +0.005 A 
ATOM     13  C   UNL     1       1.227   6.243  -1.265  0.00  0.00    -0.025 A 
ATOM     14  C   UNL     1       1.879   6.148  -2.481  0.00  0.00    +0.005 A 
ATOM     15  C   UNL     1       1.188   6.385  -3.655  0.00  0.00    +0.000 A 
ENDBRANCH   1  13
BRANCH   1  16
ATOM     16  S   UNL     1       2.621   4.288   0.000  0.00  0.00    -0.068 S 
BRANCH  16  17
ATOM     17  C   UNL     1       1.107   3.386   0.009  0.00  0.00    +0.195 A 
ATOM     18  N   UNL     1       1.125   2.056   0.002  0.00  0.00    -0.189 NA
ATOM     19  C   UNL     1      -0.017   1.376   0.010  0.00  0.00    +0.218 A 
ATOM     20  N   UNL     1      -1.177   2.025   0.019  0.00  0.00    -0.181 NA
ATOM     21  C   UNL     1      -1.195   3.354   0.031  0.00  0.00    +0.218 A 
ATOM     22  N   UNL     1      -0.054   4.035   0.023  0.00  0.00    -0.189 NA
ATOM     23  N   UNL     1      -2.400   4.028   0.045  0.00  0.00    -0.327 N 
ATOM     24  N   UNL     1       0.002  -0.004   0.002  0.00  0.00    -0.327 N 
ATOM     25  H   UNL     1      -2.414   4.997   0.050  0.00  0.00    +0.145 HD
ATOM     26  H   UNL     1      -3.233   3.531   0.051  0.00  0.00    +0.145 HD
ATOM     27  H   UNL     1       0.849  -0.478  -0.009  0.00  0.00    +0.145 HD
ATOM     28  H   UNL     1      -0.831  -0.500   0.007  0.00  0.00    +0.145 HD
ENDBRANCH  16  17
ENDBRANCH   1  16
TORSDOF 4
