REMARK  Name = ZINC50925396
REMARK  13 active torsions:
REMARK  status: ('A' for Active; 'I' for Inactive)
REMARK    1  A    between atoms: C_1  and  C_2
REMARK    2  A    between atoms: C_4  and  O_26
REMARK    3  A    between atoms: C_5  and  C_11
REMARK    4  A    between atoms: C_7  and  C_8
REMARK    5  A    between atoms: C_8  and  C_9
REMARK    6  A    between atoms: C_8  and  C_10
REMARK    7  A    between atoms: C_11  and  N_12
REMARK    8  A    between atoms: C_16  and  C_18
REMARK    9  A    between atoms: C_18  and  N_19
REMARK   10  A    between atoms: N_19  and  S_20
REMARK   11  A    between atoms: S_20  and  C_23
REMARK   12  A    between atoms: C_23  and  C_24
REMARK   13  A    between atoms: C_23  and  C_25
REMARK                            x       y       z     vdW  Elec       q    Type
REMARK                         _______ _______ _______ _____ _____    ______ ____
ROOT
ATOM      1  N   UNL     1      -0.745  -4.955  -0.197  0.00  0.00    +0.383 N 
ATOM      2  C   UNL     1      -1.550  -4.727   1.009  0.00  0.00    -0.078 C 
ATOM      3  C   UNL     1      -2.910  -5.409   0.856  0.00  0.00    -0.018 C 
ATOM      4  C   UNL     1      -2.702  -6.913   0.656  0.00  0.00    +0.001 C 
ATOM      5  C   UNL     1      -1.800  -7.136  -0.562  0.00  0.00    -0.012 C 
ATOM      6  C   UNL     1      -0.480  -6.389  -0.356  0.00  0.00    -0.074 C 
ATOM      7  H   UNL     1      -1.248  -4.615  -1.004  0.00  0.00    -0.081 HD
ENDROOT
BRANCH   1   8
ATOM      8  C   UNL     1       0.529  -4.233  -0.078  0.00  0.00    -0.039 C 
BRANCH   8  13
ATOM      9  C   UNL     1      -0.484   1.457   0.078  0.00  0.00    +0.044 C 
ATOM     10  C   UNL     1      -0.221  -0.026   0.034  0.00  0.00    -0.044 A 
ATOM     11  C   UNL     1      -0.322  -0.710  -1.162  0.00  0.00    +0.049 A 
ATOM     12  C   UNL     1      -0.079  -2.075  -1.201  0.00  0.00    +0.118 A 
ATOM     13  C   UNL     1       0.265  -2.750  -0.039  0.00  0.00    -0.022 A 
ATOM     14  C   UNL     1       0.365  -2.062   1.154  0.00  0.00    +0.009 A 
ATOM     15  C   UNL     1       0.127  -0.700   1.190  0.00  0.00    -0.041 A 
BRANCH  15  16
ATOM     16  C   UNL     1       0.243   0.050   2.492  0.00  0.00    +0.013 C 
ATOM     17  C   UNL     1      -0.844  -0.430   3.456  0.00  0.00    +0.012 C 
ATOM     18  C   UNL     1       1.620  -0.206   3.108  0.00  0.00    +0.012 C 
ENDBRANCH  15  16
BRANCH  12  19
ATOM     19  O   UNL     1      -0.179  -2.750  -2.376  0.00  0.00    -0.507 OA
ATOM     20  H   UNL     1       0.647  -2.789  -2.879  0.00  0.00    +0.292 HD
ENDBRANCH  12  19
ENDBRANCH   8  13
ENDBRANCH   1   8
BRANCH   5  21
ATOM     21  C   UNL     1      -1.521  -8.632  -0.724  0.00  0.00    +0.107 C 
BRANCH  21  22
ATOM     22  N   UNL     1      -2.771  -9.331  -1.034  0.00  0.00    -0.194 NA
ATOM     23  H   UNL     1      -3.622  -8.887  -0.894  0.00  0.00    +0.148 HD
BRANCH  22  24
ATOM     24  S   UNL     1      -2.730 -10.877  -1.624  0.00  0.00    +0.032 S 
ATOM     25  O   UNL     1      -4.093 -11.223  -1.830  0.00  0.00    -0.158 OA
ATOM     26  O   UNL     1      -1.823 -10.825  -2.717  0.00  0.00    -0.158 OA
BRANCH  24  27
ATOM     27  C   UNL     1      -2.029 -11.871  -0.278  0.00  0.00    +0.142 C 
ATOM     28  C   UNL     1      -2.925 -11.760   0.957  0.00  0.00    +0.033 C 
ATOM     29  C   UNL     1      -1.944 -13.335  -0.716  0.00  0.00    +0.033 C 
ENDBRANCH  24  27
ENDBRANCH  22  24
ENDBRANCH  21  22
ENDBRANCH   5  21
TORSDOF 8
