REMARK  Name = ZINC02914803
REMARK  4 active torsions:
REMARK  status: ('A' for Active; 'I' for Inactive)
REMARK    1  A    between atoms: C_1  and  O_2
REMARK    2  A    between atoms: O_2  and  C_3
REMARK    3  A    between atoms: C_8  and  C_13
REMARK    4  A    between atoms: C_16  and  C_24
REMARK                            x       y       z     vdW  Elec       q    Type
REMARK                         _______ _______ _______ _____ _____    ______ ____
ROOT
ATOM      1  C   UNL     1      -6.295  -4.611   0.041  0.00  0.00    +0.106 C 
ATOM      2  C   UNL     1      -6.640  -5.077  -1.378  0.00  0.00    +0.058 C 
ATOM      3  C   UNL     1      -8.022  -5.743  -1.382  0.00  0.00    +0.143 C 
ATOM      4  N   UNL     1      -8.077  -6.723  -0.298  0.00  0.00    -0.226 N 
ATOM      5  C   UNL     1      -7.235  -6.734   0.764  0.00  0.00    +0.215 A 
ATOM      6  N   UNL     1      -7.564  -7.739   1.530  0.00  0.00    -0.202 NA
ATOM      7  C   UNL     1      -8.605  -8.386   0.994  0.00  0.00    +0.247 A 
ATOM      8  N   UNL     1      -8.950  -7.797  -0.123  0.00  0.00    -0.156 NA
ATOM      9  N   UNL     1      -6.228  -5.790   0.925  0.00  0.00    -0.307 N 
ATOM     10  H   UNL     1      -5.520  -5.901   1.579  0.00  0.00    +0.149 HD
ENDROOT
BRANCH   1  16
ATOM     11  C   UNL     1      -1.200  -0.637   0.010  0.00  0.00    +0.121 A 
ATOM     12  C   UNL     1      -2.378   0.117   0.020  0.00  0.00    +0.046 A 
ATOM     13  C   UNL     1      -3.595  -0.488   0.028  0.00  0.00    +0.012 A 
ATOM     14  C   UNL     1      -3.677  -1.891   0.026  0.00  0.00    -0.017 A 
ATOM     15  C   UNL     1      -4.919  -2.549   0.034  0.00  0.00    +0.014 A 
ATOM     16  C   UNL     1      -4.961  -3.909   0.032  0.00  0.00    -0.027 A 
ATOM     17  C   UNL     1      -3.789  -4.664   0.022  0.00  0.00    +0.006 A 
ATOM     18  C   UNL     1      -2.568  -4.061   0.014  0.00  0.00    +0.009 A 
ATOM     19  C   UNL     1      -2.485  -2.658   0.016  0.00  0.00    -0.014 A 
ATOM     20  C   UNL     1      -1.243  -2.002   0.003  0.00  0.00    +0.054 A 
BRANCH  11  22
ATOM     21  C   UNL     1      -0.017   1.425   0.010  0.00  0.00    +0.277 C 
ATOM     22  O   UNL     1       0.002  -0.004   0.002  0.00  0.00    -0.495 OA
ENDBRANCH  11  22
ENDBRANCH   1  16
BRANCH   3  23
ATOM     23  C   UNL     1      -8.245  -6.434  -2.703  0.00  0.00    -0.023 A 
ATOM     24  C   UNL     1      -7.393  -7.445  -3.107  0.00  0.00    +0.007 A 
ATOM     25  C   UNL     1      -7.598  -8.079  -4.318  0.00  0.00    +0.020 A 
ATOM     26  C   UNL     1      -8.655  -7.702  -5.126  0.00  0.00    +0.041 A 
ATOM     27  C   UNL     1      -9.508  -6.690  -4.721  0.00  0.00    +0.020 A 
ATOM     28  C   UNL     1      -9.306  -6.060  -3.507  0.00  0.00    +0.007 A 
ATOM     29 CL   UNL     1      -8.913  -8.497  -6.647  0.00  0.00    -0.084 Cl
ENDBRANCH   3  23
TORSDOF 3
