REMARK  Name = ZINC04988452
REMARK  8 active torsions:
REMARK  status: ('A' for Active; 'I' for Inactive)
REMARK    1  A    between atoms: C_1  and  C_2
REMARK    2  A    between atoms: C_2  and  C_3
REMARK    3  A    between atoms: N_5  and  C_6
REMARK    4  A    between atoms: C_8  and  C_24
REMARK    5  A    between atoms: C_9  and  O_23
REMARK    6  A    between atoms: C_10  and  C_12
REMARK    7  A    between atoms: C_16  and  C_22
REMARK    8  A    between atoms: C_18  and  C_21
REMARK                            x       y       z     vdW  Elec       q    Type
REMARK                         _______ _______ _______ _____ _____    ______ ____
ROOT
ATOM      1  C   UNL     1      -2.971  -2.286  -0.072  0.00  0.00    +0.035 A 
ATOM      2  C   UNL     1      -3.998  -1.353  -0.159  0.00  0.00    +0.030 A 
ATOM      3  C   UNL     1      -5.312  -1.770  -0.238  0.00  0.00    -0.007 A 
ATOM      4  C   UNL     1      -5.616  -3.123  -0.232  0.00  0.00    +0.132 A 
ATOM      5  C   UNL     1      -4.586  -4.068  -0.146  0.00  0.00    +0.080 A 
ATOM      6  C   UNL     1      -3.259  -3.640  -0.071  0.00  0.00    +0.040 A 
ATOM      7  C   UNL     1      -6.420  -0.752  -0.331  0.00  0.00    +0.047 C 
ENDROOT
BRANCH   5   8
ATOM      8  C   UNL     1      -4.901  -5.510  -0.139  0.00  0.00    +0.232 A 
ATOM      9  N   UNL     1      -6.107  -6.015  -0.215  0.00  0.00    -0.209 NA
ATOM     10  C   UNL     1      -6.016  -7.370  -0.182  0.00  0.00    +0.110 A 
ATOM     11  C   UNL     1      -6.957  -8.401  -0.228  0.00  0.00    +0.035 A 
ATOM     12  C   UNL     1      -6.537  -9.711  -0.172  0.00  0.00    -0.048 A 
ATOM     13  C   UNL     1      -5.187 -10.012  -0.070  0.00  0.00    +0.010 A 
ATOM     14  C   UNL     1      -4.246  -9.004  -0.023  0.00  0.00    -0.006 A 
ATOM     15  C   UNL     1      -4.650  -7.679  -0.078  0.00  0.00    +0.159 A 
ATOM     16  O   UNL     1      -3.991  -6.499  -0.059  0.00  0.00    -0.435 OA
ATOM     17  C   UNL     1      -2.782  -9.343   0.088  0.00  0.00    +0.047 C 
ATOM     18  C   UNL     1      -7.551 -10.825  -0.222  0.00  0.00    +0.044 C 
ENDBRANCH   5   8
BRANCH   1  21
ATOM     19  C   UNL     1      -0.664  -2.565  -0.591  0.00  0.00    +0.217 C 
ATOM     20  O   UNL     1      -0.924  -3.621  -1.127  0.00  0.00    -0.275 OA
ATOM     21  N   UNL     1      -1.640  -1.854   0.008  0.00  0.00    -0.285 N 
ATOM     22  H   UNL     1      -1.421  -1.044   0.494  0.00  0.00    +0.155 HD
BRANCH  19  24
ATOM     23  C   UNL     1       1.655  -3.037  -1.333  0.00  0.00    +0.013 C 
ATOM     24  C   UNL     1       0.751  -2.047  -0.594  0.00  0.00    +0.093 C 
ENDBRANCH  19  24
ENDBRANCH   1  21
BRANCH   4  25
ATOM     25  O   UNL     1      -6.909  -3.530  -0.310  0.00  0.00    -0.506 OA
ATOM     26  H   UNL     1      -7.225  -3.666  -1.214  0.00  0.00    +0.292 HD
ENDBRANCH   4  25
TORSDOF 4
