REMARK  Name = ZINC58890223
REMARK  12 active torsions:
REMARK  status: ('A' for Active; 'I' for Inactive)
REMARK    1  A    between atoms: C_1  and  O_2
REMARK    2  A    between atoms: O_2  and  C_3
REMARK    3  A    between atoms: C_5  and  C_15
REMARK    4  A    between atoms: C_8  and  O_9
REMARK    5  A    between atoms: O_9  and  C_10
REMARK    6  A    between atoms: C_10  and  C_11
REMARK    7  A    between atoms: N_16  and  N_17
REMARK    8  A    between atoms: C_18  and  C_20
REMARK    9  A    between atoms: C_20  and  C_21
REMARK   10  A    between atoms: C_21  and  C_22
REMARK   11  A    between atoms: C_22  and  C_24
REMARK   12  A    between atoms: C_22  and  O_30
REMARK                            x       y       z     vdW  Elec       q    Type
REMARK                         _______ _______ _______ _____ _____    ______ ____
ROOT
ATOM      1  C   UNL     1       2.407   0.300   4.212  0.00  0.00    +0.139 C 
ATOM      2  N   UNL     1       2.953  -0.287   5.232  0.00  0.00    -0.188 NA
ENDROOT
BRANCH   1   5
ATOM      3  C   UNL     1      -0.134  -2.233   3.105  0.00  0.00    +0.162 A 
ATOM      4  C   UNL     1       0.786  -1.559   3.886  0.00  0.00    +0.060 A 
ATOM      5  C   UNL     1       1.426  -0.423   3.383  0.00  0.00    +0.012 A 
ATOM      6  C   UNL     1       1.132   0.025   2.092  0.00  0.00    +0.030 A 
ATOM      7  C   UNL     1       0.213  -0.653   1.319  0.00  0.00    +0.065 A 
ATOM      8  C   UNL     1      -0.417  -1.784   1.817  0.00  0.00    +0.164 A 
ATOM      9 BR   UNL     1       1.995   1.562   1.406  0.00  0.00    -0.050 Br
BRANCH   3  11
ATOM     10  C   UNL     1      -0.419  -3.744   4.920  0.00  0.00    +0.277 C 
ATOM     11  O   UNL     1      -0.758  -3.339   3.592  0.00  0.00    -0.491 OA
ENDBRANCH   3  11
BRANCH   8  12
ATOM     12  O   UNL     1      -1.319  -2.452   1.049  0.00  0.00    -0.477 OA
BRANCH  12  13
ATOM     13  C   UNL     1      -1.562  -1.937  -0.261  0.00  0.00    +0.354 C 
BRANCH  13  14
ATOM     14  C   UNL     1      -2.581  -2.801  -0.959  0.00  0.00    +0.393 C 
ATOM     15  O   UNL     1      -3.055  -3.767  -0.387  0.00  0.00    -0.243 OA
ATOM     16  O   UNL     1      -2.932  -2.533  -2.095  0.00  0.00    -0.243 OA
ENDBRANCH  13  14
ENDBRANCH  12  13
ENDBRANCH   8  12
ENDBRANCH   1   5
BRANCH   2  17
ATOM     17  N   UNL     1       3.023  -1.686   5.281  0.00  0.00    -0.207 N 
ATOM     18  C   UNL     1       3.457  -2.300   6.399  0.00  0.00    +0.232 C 
ATOM     19  O   UNL     1       3.882  -1.643   7.326  0.00  0.00    -0.274 OA
ATOM     20  H   UNL     1       2.759  -2.212   4.510  0.00  0.00    +0.177 HD
BRANCH  18  21
ATOM     21  C   UNL     1       3.416  -3.803   6.497  0.00  0.00    +0.100 C 
BRANCH  21  22
ATOM     22  C   UNL     1       3.961  -4.241   7.858  0.00  0.00    +0.045 C 
BRANCH  22  23
ATOM     23  C   UNL     1       3.919  -5.767   7.958  0.00  0.00    +0.145 C 
BRANCH  23  24
ATOM     24  C   UNL     1       4.341  -6.192   9.341  0.00  0.00    -0.019 A 
ATOM     25  C   UNL     1       5.682  -6.236   9.671  0.00  0.00    +0.006 A 
ATOM     26  C   UNL     1       6.069  -6.626  10.940  0.00  0.00    +0.000 A 
ATOM     27  C   UNL     1       5.114  -6.971  11.878  0.00  0.00    +0.000 A 
ATOM     28  C   UNL     1       3.772  -6.926  11.548  0.00  0.00    +0.000 A 
ATOM     29  C   UNL     1       3.385  -6.532  10.280  0.00  0.00    +0.006 A 
ENDBRANCH  23  24
BRANCH  23  30
ATOM     30  O   UNL     1       4.810  -6.332   6.994  0.00  0.00    -0.387 OA
ATOM     31  H   UNL     1       5.733  -6.064   7.106  0.00  0.00    +0.210 HD
ENDBRANCH  23  30
ENDBRANCH  22  23
ENDBRANCH  21  22
ENDBRANCH  18  21
ENDBRANCH   2  17
TORSDOF 11
