REMARK  Name = ZINC67119335
REMARK  6 active torsions:
REMARK  status: ('A' for Active; 'I' for Inactive)
REMARK    1  A    between atoms: C_1  and  C_2
REMARK    2  A    between atoms: C_8  and  C_10
REMARK    3  A    between atoms: N_15  and  C_17
REMARK    4  A    between atoms: C_17  and  C_19
REMARK    5  A    between atoms: C_17  and  C_20
REMARK    6  A    between atoms: C_26  and  C_29
REMARK                            x       y       z     vdW  Elec       q    Type
REMARK                         _______ _______ _______ _____ _____    ______ ____
ROOT
ATOM      1  C   UNL     1      -0.456  -4.464   2.580  0.00  0.00    +0.059 C 
ATOM      2  C   UNL     1       0.876  -4.999   2.049  0.00  0.00    +0.009 C 
ATOM      3  C   UNL     1       1.794  -5.323   3.232  0.00  0.00    -0.018 C 
ATOM      4  C   UNL     1       1.093  -6.324   4.154  0.00  0.00    -0.078 C 
ATOM      5  N   UNL     1      -0.161  -5.744   4.649  0.00  0.00    +0.388 N 
ATOM      6  C   UNL     1      -1.074  -5.496   3.527  0.00  0.00    -0.065 C 
ATOM      7  H   UNL     1       0.036  -4.873   5.120  0.00  0.00    -0.081 HD
ENDROOT
BRANCH   1  15
ATOM      8  C   UNL     1      -1.670   0.818  -0.648  0.00  0.00    +0.007 C 
ATOM      9  C   UNL     1      -1.223  -0.644  -0.596  0.00  0.00    -0.011 C 
ATOM     10  C   UNL     1      -2.452  -1.555  -0.639  0.00  0.00    +0.022 C 
ATOM     11  C   UNL     1      -1.998  -3.018  -0.621  0.00  0.00    +0.108 C 
ATOM     12  N   UNL     1      -1.131  -3.230   0.545  0.00  0.00    -0.301 N 
ATOM     13  C   UNL     1       0.030  -2.349   0.732  0.00  0.00    +0.108 C 
ATOM     14  C   UNL     1      -0.446  -0.893   0.699  0.00  0.00    +0.022 C 
ATOM     15  C   UNL     1      -1.394  -4.214   1.427  0.00  0.00    +0.217 C 
ATOM     16  O   UNL     1      -2.386  -4.899   1.294  0.00  0.00    -0.275 OA
ENDBRANCH   1  15
BRANCH   5  17
ATOM     17  C   UNL     1      -0.790  -6.676   5.594  0.00  0.00    +0.016 C 
ATOM     18  C   UNL     1       0.174  -6.962   6.747  0.00  0.00    -0.004 C 
BRANCH  17  19
ATOM     19  C   UNL     1      -2.055  -6.063   6.137  0.00  0.00    +0.202 C 
ATOM     20  O   UNL     1      -2.196  -4.858   6.131  0.00  0.00    -0.277 OA
ATOM     21  N   UNL     1      -3.029  -6.853   6.630  0.00  0.00    -0.302 N 
ATOM     22  C   UNL     1      -2.825  -8.303   6.755  0.00  0.00    +0.108 C 
ATOM     23  C   UNL     1      -3.129  -8.721   8.197  0.00  0.00    +0.020 C 
ATOM     24  C   UNL     1      -4.535  -8.249   8.576  0.00  0.00    +0.016 C 
ATOM     25  C   UNL     1      -4.602  -6.722   8.491  0.00  0.00    +0.092 C 
ATOM     26  C   UNL     1      -4.313  -6.281   7.058  0.00  0.00    +0.120 C 
BRANCH  25  27
ATOM     27  C   UNL     1      -5.977  -6.256   8.896  0.00  0.00    +0.215 C 
ATOM     28  O   UNL     1      -6.660  -5.630   8.113  0.00  0.00    -0.276 OA
ATOM     29  N   UNL     1      -6.447  -6.534  10.127  0.00  0.00    -0.329 N 
ATOM     30  H   UNL     1      -5.901  -7.034  10.754  0.00  0.00    +0.145 HD
ATOM     31  H   UNL     1      -7.332  -6.234  10.388  0.00  0.00    +0.145 HD
ENDBRANCH  25  27
ENDBRANCH  17  19
ENDBRANCH   5  17
TORSDOF 4
