REMARK  Name = ZINC04885530
REMARK  7 active torsions:
REMARK  status: ('A' for Active; 'I' for Inactive)
REMARK    1  A    between atoms: C_1  and  C_2
REMARK    2  A    between atoms: C_2  and  O_3
REMARK    3  A    between atoms: O_3  and  C_4
REMARK    4  A    between atoms: C_4  and  C_6
REMARK    5  A    between atoms: C_6  and  C_31
REMARK    6  A    between atoms: C_11  and  C_13
REMARK    7  A    between atoms: N_22  and  C_25
REMARK                            x       y       z     vdW  Elec       q    Type
REMARK                         _______ _______ _______ _____ _____    ______ ____
ROOT
ATOM      1  C   UNL     1      -0.692   1.671  -1.328  0.00  0.00    +0.041 C 
ATOM      2  C   UNL     1      -0.131   1.058  -0.028  0.00  0.00    +0.086 C 
ATOM      3  C   UNL     1       1.282   1.683   0.129  0.00  0.00    +0.077 C 
ATOM      4  C   UNL     1       1.434   2.626  -1.082  0.00  0.00    -0.024 C 
ATOM      5  C   UNL     1       1.161   2.508   1.391  0.00  0.00    +0.229 C 
ATOM      6  O   UNL     1       2.049   3.170   1.882  0.00  0.00    -0.275 OA
ATOM      7  N   UNL     1      -0.079   2.392   1.880  0.00  0.00    -0.210 N 
ATOM      8  C   UNL     1      -0.887   1.603   1.163  0.00  0.00    +0.229 C 
ATOM      9  O   UNL     1      -2.046   1.361   1.427  0.00  0.00    -0.275 OA
ATOM     10  C   UNL     1      -0.428   0.741  -2.513  0.00  0.00    +0.002 C 
ATOM     11  N   UNL     1       0.056   2.927  -1.465  0.00  0.00    +0.395 N 
ATOM     12  H   UNL     1      -0.337   3.645  -0.846  0.00  0.00    -0.083 HD
ATOM     13  H   UNL     1       0.021   3.257  -2.437  0.00  0.00    -0.083 HD
ENDROOT
BRANCH   4  14
ATOM     14  C   UNL     1       2.181   3.873  -0.685  0.00  0.00    -0.025 A 
ATOM     15  C   UNL     1       1.486   5.028  -0.379  0.00  0.00    +0.005 A 
ATOM     16  C   UNL     1       2.171   6.172  -0.014  0.00  0.00    +0.000 A 
ATOM     17  C   UNL     1       3.553   6.162   0.045  0.00  0.00    +0.003 A 
ATOM     18  C   UNL     1       4.250   5.009  -0.261  0.00  0.00    +0.038 A 
ATOM     19  C   UNL     1       3.564   3.861  -0.622  0.00  0.00    +0.125 A 
ATOM     20  F   UNL     1       4.245   2.732  -0.916  0.00  0.00    -0.205 F 
ENDBRANCH   4  14
BRANCH   7  21
ATOM     21  C   UNL     1      -0.497   3.045   3.048  0.00  0.00    +0.044 A 
ATOM     22  C   UNL     1      -0.807   2.308   4.184  0.00  0.00    +0.024 A 
ATOM     23  C   UNL     1      -1.212   2.954   5.335  0.00  0.00    +0.002 A 
ATOM     24  C   UNL     1      -1.322   4.333   5.354  0.00  0.00    +0.000 A 
ATOM     25  C   UNL     1      -1.020   5.068   4.223  0.00  0.00    +0.002 A 
ATOM     26  C   UNL     1      -0.608   4.428   3.070  0.00  0.00    +0.024 A 
ENDBRANCH   7  21
BRANCH   1  27
ATOM     27  C   UNL     1      -2.169   1.938  -1.187  0.00  0.00    +0.297 C 
ATOM     28  O   UNL     1      -2.970   1.109  -1.549  0.00  0.00    -0.252 OA
BRANCH  27  29
ATOM     29  O   UNL     1      -2.594   3.098  -0.660  0.00  0.00    -0.466 OA
BRANCH  29  31
ATOM     30  C   UNL     1      -4.320   4.655   0.064  0.00  0.00    +0.048 C 
ATOM     31  C   UNL     1      -4.030   3.287  -0.556  0.00  0.00    +0.228 C 
ENDBRANCH  29  31
ENDBRANCH  27  29
ENDBRANCH   1  27
TORSDOF 5
