REMARK  Name = ZINC65727201
REMARK  7 active torsions:
REMARK  status: ('A' for Active; 'I' for Inactive)
REMARK    1  A    between atoms: C_4  and  C_7
REMARK    2  A    between atoms: C_7  and  C_8
REMARK    3  A    between atoms: C_8  and  C_9
REMARK    4  A    between atoms: C_8  and  N_12
REMARK    5  A    between atoms: C_13  and  C_15
REMARK    6  A    between atoms: C_16  and  C_17
REMARK    7  A    between atoms: C_22  and  N_23
REMARK                            x       y       z     vdW  Elec       q    Type
REMARK                         _______ _______ _______ _____ _____    ______ ____
ROOT
ATOM      1  N   UNL     1       2.668  -1.230   2.138  0.00  0.00    -0.300 N 
ATOM      2  C   UNL     1       2.538  -1.266   3.479  0.00  0.00    +0.238 C 
ATOM      3  O   UNL     1       3.039  -0.393   4.162  0.00  0.00    -0.271 OA
ATOM      4  H   UNL     1       2.269  -1.926   1.593  0.00  0.00    +0.150 HD
ENDROOT
BRANCH   2   5
ATOM      5  C   UNL     1       1.792  -2.355   4.113  0.00  0.00    +0.068 C 
ATOM      6  C   UNL     1       1.662  -2.391   5.455  0.00  0.00    +0.015 C 
BRANCH   6   7
ATOM      7  C   UNL     1       0.913  -3.486   6.092  0.00  0.00    +0.005 A 
ATOM      8  C   UNL     1       0.067  -4.297   5.329  0.00  0.00    +0.010 A 
ATOM      9  C   UNL     1      -0.630  -5.321   5.933  0.00  0.00    +0.001 A 
ATOM     10  C   UNL     1      -0.497  -5.547   7.293  0.00  0.00    +0.002 A 
ATOM     11  C   UNL     1       0.337  -4.748   8.055  0.00  0.00    +0.033 A 
ATOM     12  C   UNL     1       1.047  -3.724   7.464  0.00  0.00    +0.133 A 
BRANCH  12  13
ATOM     13  N   UNL     1       1.943  -2.874   8.280  0.00  0.00    +0.057 N 
ATOM     14  O   UNL     1       2.992  -2.486   7.820  0.00  0.00    -0.126 OA
ATOM     15  O   UNL     1       1.627  -2.568   9.406  0.00  0.00    -0.126 OA
ENDBRANCH  12  13
ENDBRANCH   6   7
ENDBRANCH   2   5
BRANCH   1  16
ATOM     16  C   UNL     1       3.414  -0.141   1.503  0.00  0.00    +0.163 C 
BRANCH  16  17
ATOM     17  C   UNL     1       4.883  -0.476   1.493  0.00  0.00    +0.231 C 
ATOM     18  O   UNL     1       5.269  -1.523   1.969  0.00  0.00    -0.274 OA
ATOM     19  N   UNL     1       5.767   0.386   0.955  0.00  0.00    -0.328 N 
ATOM     20  H   UNL     1       5.458   1.223   0.574  0.00  0.00    +0.145 HD
ATOM     21  H   UNL     1       6.713   0.170   0.948  0.00  0.00    +0.145 HD
ENDBRANCH  16  17
BRANCH  16  22
ATOM     22  C   UNL     1       2.922   0.044   0.066  0.00  0.00    +0.067 C 
BRANCH  22  26
ATOM     23  C   UNL     1      -1.149   1.334   0.105  0.00  0.00    +0.000 A 
ATOM     24  C   UNL     1      -0.129   2.267   0.123  0.00  0.00    +0.000 A 
ATOM     25  C   UNL     1       1.189   1.849   0.110  0.00  0.00    +0.004 A 
ATOM     26  C   UNL     1       1.486   0.499   0.081  0.00  0.00    -0.045 A 
ATOM     27  C   UNL     1       0.465  -0.433   0.064  0.00  0.00    +0.004 A 
ATOM     28  C   UNL     1      -0.852  -0.015   0.075  0.00  0.00    +0.000 A 
ENDBRANCH  22  26
ENDBRANCH  16  22
ENDBRANCH   1  16
TORSDOF 7
