REMARK  Name = ZINC12718465
REMARK  8 active torsions:
REMARK  status: ('A' for Active; 'I' for Inactive)
REMARK    1  A    between atoms: C_1  and  C_2
REMARK    2  A    between atoms: C_2  and  C_3
REMARK    3  A    between atoms: C_2  and  C_4
REMARK    4  A    between atoms: C_4  and  C_5
REMARK    5  A    between atoms: C_5  and  C_7
REMARK    6  A    between atoms: C_5  and  N_10
REMARK    7  A    between atoms: C_11  and  C_13
REMARK    8  A    between atoms: C_13  and  N_57
REMARK                            x       y       z     vdW  Elec       q    Type
REMARK                         _______ _______ _______ _____ _____    ______ ____
ROOT
ATOM      1  C   UNL     1       2.660  -0.367   2.382  0.00  0.00    +0.021 C 
ATOM      2  C   UNL     1       2.131   0.003   3.784  0.00  0.00    +0.033 C 
ATOM      3  C   UNL     1       3.372   0.175   4.639  0.00  0.00    -0.045 A 
ATOM      4  C   UNL     1       3.515   0.195   6.016  0.00  0.00    +0.004 A 
ATOM      5  C   UNL     1       4.763   0.365   6.583  0.00  0.00    +0.000 A 
ATOM      6  C   UNL     1       5.874   0.515   5.774  0.00  0.00    +0.000 A 
ATOM      7  C   UNL     1       5.733   0.494   4.400  0.00  0.00    +0.004 A 
ATOM      8  C   UNL     1       4.483   0.324   3.830  0.00  0.00    -0.045 A 
ATOM      9  C   UNL     1       4.067   0.267   2.375  0.00  0.00    +0.033 C 
ENDROOT
BRANCH   1  15
ATOM     10  C   UNL     1       1.753   1.684   1.469  0.00  0.00    -0.077 C 
ATOM     11  C   UNL     1       0.755   2.249   0.456  0.00  0.00    -0.019 C 
ATOM     12  C   UNL     1       1.200   1.868  -0.959  0.00  0.00    -0.004 C 
ATOM     13  C   UNL     1       1.306   0.344  -1.059  0.00  0.00    -0.019 C 
ATOM     14  C   UNL     1       2.288  -0.166  -0.002  0.00  0.00    -0.077 C 
ATOM     15  N   UNL     1       1.789   0.212   1.338  0.00  0.00    +0.390 N 
ATOM     16  H   UNL     1       0.838  -0.156   1.455  0.00  0.00    -0.080 HD
ENDBRANCH   1  15
BRANCH   1  18
ATOM     17  N   UNL     1       1.674  -2.555   1.784  0.00  0.00    -0.305 N 
ATOM     18  C   UNL     1       2.746  -1.863   2.219  0.00  0.00    +0.204 C 
ATOM     19  O   UNL     1       3.778  -2.443   2.479  0.00  0.00    -0.277 OA
ATOM     20  H   UNL     1       0.873  -2.085   1.505  0.00  0.00    +0.149 HD
BRANCH  17  21
ATOM     21  C   UNL     1       1.720  -4.019   1.733  0.00  0.00    +0.159 C 
BRANCH  21  22
ATOM     22  C   UNL     1       2.349  -4.457   0.436  0.00  0.00    +0.231 C 
ATOM     23  O   UNL     1       2.722  -3.629  -0.367  0.00  0.00    -0.274 OA
ATOM     24  N   UNL     1       2.497  -5.770   0.168  0.00  0.00    -0.328 N 
ATOM     25  H   UNL     1       2.198  -6.432   0.810  0.00  0.00    +0.145 HD
ATOM     26  H   UNL     1       2.901  -6.052  -0.667  0.00  0.00    +0.145 HD
ENDBRANCH  21  22
BRANCH  21  27
ATOM     27  C   UNL     1       0.298  -4.577   1.825  0.00  0.00    +0.034 C 
BRANCH  27  29
ATOM     28  C   UNL     1      -1.787  -4.611   3.201  0.00  0.00    +0.007 C 
ATOM     29  C   UNL     1      -0.317  -4.185   3.170  0.00  0.00    -0.015 C 
ATOM     30  C   UNL     1       0.440  -4.884   4.300  0.00  0.00    +0.007 C 
ENDBRANCH  27  29
ENDBRANCH  21  27
ENDBRANCH  17  21
ENDBRANCH   1  18
TORSDOF 6
