REMARK  Name = ZINC12526015
REMARK  9 active torsions:
REMARK  status: ('A' for Active; 'I' for Inactive)
REMARK    1  A    between atoms: C_1  and  C_2
REMARK    2  A    between atoms: C_5  and  C_21
REMARK    3  A    between atoms: C_7  and  N_8
REMARK    4  A    between atoms: N_8  and  S_9
REMARK    5  A    between atoms: S_9  and  C_12
REMARK    6  A    between atoms: C_13  and  C_20
REMARK    7  A    between atoms: C_15  and  C_19
REMARK    8  A    between atoms: C_17  and  C_18
REMARK    9  A    between atoms: C_25  and  O_30
REMARK                            x       y       z     vdW  Elec       q    Type
REMARK                         _______ _______ _______ _____ _____    ______ ____
ROOT
ATOM      1  C   UNL     1       4.319  -2.891  -4.301  0.00  0.00    +0.046 C 
ATOM      2  C   UNL     1       4.694  -1.505  -3.844  0.00  0.00    -0.028 A 
ATOM      3  C   UNL     1       4.780  -0.476  -4.763  0.00  0.00    +0.006 A 
ATOM      4  C   UNL     1       5.123   0.796  -4.352  0.00  0.00    +0.013 A 
ATOM      5  C   UNL     1       5.386   1.047  -3.004  0.00  0.00    +0.039 A 
ATOM      6  C   UNL     1       5.295   0.010  -2.075  0.00  0.00    +0.037 A 
ATOM      7  C   UNL     1       4.954  -1.266  -2.499  0.00  0.00    +0.052 A 
ENDROOT
BRANCH   5   8
ATOM      8  C   UNL     1       5.754   2.409  -2.561  0.00  0.00    +0.249 C 
ATOM      9  O   UNL     1       5.982   2.625  -1.387  0.00  0.00    -0.270 OA
ATOM     10  N   UNL     1       5.836   3.410  -3.459  0.00  0.00    -0.263 N 
ATOM     11  C   UNL     1       6.184   4.695  -3.041  0.00  0.00    +0.167 A 
ATOM     12  C   UNL     1       6.267   5.727  -3.976  0.00  0.00    +0.157 A 
ATOM     13  C   UNL     1       6.614   7.000  -3.543  0.00  0.00    +0.050 A 
ATOM     14  C   UNL     1       6.864   7.193  -2.192  0.00  0.00    +0.023 A 
ATOM     15  C   UNL     1       6.762   6.124  -1.324  0.00  0.00    +0.113 A 
ATOM     16  N   UNL     1       6.426   4.925  -1.761  0.00  0.00    -0.237 NA
ATOM     17  H   UNL     1       5.654   3.237  -4.396  0.00  0.00    +0.157 HD
BRANCH  12  18
ATOM     18  O   UNL     1       6.014   5.490  -5.290  0.00  0.00    -0.503 OA
ATOM     19  H   UNL     1       5.087   5.609  -5.540  0.00  0.00    +0.292 HD
ENDBRANCH  12  18
ENDBRANCH   5   8
BRANCH   7  20
ATOM     20  N   UNL     1       4.866  -2.309  -1.574  0.00  0.00    -0.216 N 
ATOM     21  H   UNL     1       4.007  -2.547  -1.192  0.00  0.00    +0.174 HD
BRANCH  20  22
ATOM     22  S   UNL     1       6.228  -3.139  -1.131  0.00  0.00    +0.073 S 
ATOM     23  O   UNL     1       6.890  -3.506  -2.333  0.00  0.00    -0.150 OA
ATOM     24  O   UNL     1       5.823  -4.097  -0.162  0.00  0.00    -0.150 OA
BRANCH  22  25
ATOM     25  C   UNL     1       7.285  -2.000  -0.301  0.00  0.00    +0.114 A 
ATOM     26  C   UNL     1       8.233  -1.291  -1.014  0.00  0.00    -0.023 A 
ATOM     27  C   UNL     1       9.063  -0.397  -0.363  0.00  0.00    +0.008 A 
ATOM     28  C   UNL     1       8.944  -0.213   1.002  0.00  0.00    -0.050 A 
ATOM     29  C   UNL     1       7.996  -0.921   1.715  0.00  0.00    +0.008 A 
ATOM     30  C   UNL     1       7.167  -1.815   1.064  0.00  0.00    -0.023 A 
ATOM     31  C   UNL     1       6.133  -2.588   1.842  0.00  0.00    +0.046 C 
ATOM     32  C   UNL     1       9.853   0.757   1.713  0.00  0.00    +0.044 C 
ATOM     33  C   UNL     1       8.363  -1.492  -2.502  0.00  0.00    +0.046 C 
ENDBRANCH  22  25
ENDBRANCH  20  22
ENDBRANCH   7  20
TORSDOF 5
