REMARK  Name = ZINC39273451
REMARK  8 active torsions:
REMARK  status: ('A' for Active; 'I' for Inactive)
REMARK    1  A    between atoms: C_1  and  C_2
REMARK    2  A    between atoms: C_2  and  C_3
REMARK    3  A    between atoms: C_3  and  C_4
REMARK    4  A    between atoms: C_3  and  C_5
REMARK    5  A    between atoms: C_3  and  C_6
REMARK    6  A    between atoms: C_13  and  C_17
REMARK    7  A    between atoms: N_19  and  N_20
REMARK    8  A    between atoms: C_21  and  C_22
REMARK                            x       y       z     vdW  Elec       q    Type
REMARK                         _______ _______ _______ _____ _____    ______ ____
ROOT
ATOM      1  C   UNL     1      -3.156  -2.772   1.642  0.00  0.00    -0.001 C 
ATOM      2  C   UNL     1      -2.748  -3.521   2.913  0.00  0.00    +0.010 C 
ATOM      3  C   UNL     1      -2.251  -4.924   2.549  0.00  0.00    +0.057 C 
ATOM      4  C   UNL     1      -3.280  -5.581   1.655  0.00  0.00    +0.065 C 
ATOM      5  C   UNL     1      -4.231  -4.895   1.013  0.00  0.00    -0.012 C 
ATOM      6  C   UNL     1      -4.429  -3.408   1.066  0.00  0.00    +0.039 C 
ATOM      7  C   UNL     1      -5.016  -5.935   0.257  0.00  0.00    +0.243 C 
ATOM      8  N   UNL     1      -4.323  -7.187   0.617  0.00  0.00    -0.170 NA
ATOM      9  N   UNL     1      -3.394  -6.899   1.379  0.00  0.00    -0.158 NA
ENDROOT
BRANCH   7  10
ATOM     10  C   UNL     1      -4.941  -5.686  -1.228  0.00  0.00    +0.263 C 
ATOM     11  O   UNL     1      -4.172  -6.327  -1.913  0.00  0.00    -0.271 OA
ATOM     12  N   UNL     1      -5.729  -4.751  -1.795  0.00  0.00    -0.205 N 
ATOM     13  H   UNL     1      -6.344  -4.238  -1.247  0.00  0.00    +0.177 HD
BRANCH  12  14
ATOM     14  N   UNL     1      -5.660  -4.519  -3.175  0.00  0.00    -0.188 NA
ATOM     15  C   UNL     1      -6.383  -3.585  -3.713  0.00  0.00    +0.138 C 
BRANCH  15  16
ATOM     16  C   UNL     1      -6.927  -2.500  -2.876  0.00  0.00    -0.005 A 
ATOM     17  C   UNL     1      -7.964  -1.696  -3.357  0.00  0.00    +0.012 A 
ATOM     18  C   UNL     1      -8.469  -0.683  -2.571  0.00  0.00    +0.039 A 
ATOM     19  C   UNL     1      -7.950  -0.461  -1.305  0.00  0.00    +0.123 A 
ATOM     20  C   UNL     1      -6.922  -1.255  -0.822  0.00  0.00    +0.039 A 
ATOM     21  C   UNL     1      -6.413  -2.275  -1.597  0.00  0.00    +0.012 A 
ATOM     22  F   UNL     1      -8.449   0.534  -0.538  0.00  0.00    -0.205 F 
ENDBRANCH  15  16
ENDBRANCH  12  14
ENDBRANCH   7  10
BRANCH   1  23
ATOM     23  C   UNL     1      -3.426  -1.304   1.978  0.00  0.00    -0.032 C 
ATOM     24  C   UNL     1      -4.553  -1.215   3.009  0.00  0.00    +0.011 C 
ATOM     25  C   UNL     1      -3.837  -0.557   0.707  0.00  0.00    +0.011 C 
BRANCH  23  27
ATOM     26  C   UNL     1      -2.428   0.797   2.890  0.00  0.00    +0.004 C 
ATOM     27  C   UNL     1      -2.158  -0.671   2.554  0.00  0.00    +0.003 C 
ENDBRANCH  23  27
ENDBRANCH   1  23
TORSDOF 5
