REMARK  Name = ZINC55334262
REMARK  3 active torsions:
REMARK  status: ('A' for Active; 'I' for Inactive)
REMARK    1  A    between atoms: C_5  and  C_7
REMARK    2  A    between atoms: C_8  and  C_13
REMARK    3  A    between atoms: C_11  and  N_12
REMARK                            x       y       z     vdW  Elec       q    Type
REMARK                         _______ _______ _______ _____ _____    ______ ____
ROOT
ATOM      1  C   UNL     1       1.248  -2.163  -0.022  0.00  0.00    +0.072 A 
ATOM      2  C   UNL     1       1.270  -3.046   1.149  0.00  0.00    +0.130 A 
ATOM      3  N   UNL     1       1.289  -4.281   0.701  0.00  0.00    -0.075 NA
ATOM      4  O   UNL     1       1.281  -4.254  -0.712  0.00  0.00    -0.339 OA
ATOM      5  C   UNL     1       1.251  -2.981  -1.134  0.00  0.00    +0.224 A 
ENDROOT
BRANCH   2   6
ATOM      6  C   UNL     1       1.270  -2.625   2.565  0.00  0.00    +0.042 A 
ATOM      7  C   UNL     1       0.684  -3.225   3.640  0.00  0.00    +0.021 A 
ATOM      8  C   UNL     1       0.808  -2.652   4.910  0.00  0.00    -0.037 A 
ATOM      9  C   UNL     1       1.524  -1.500   4.991  0.00  0.00    -0.006 A 
ATOM     10  S   UNL     1       2.044  -1.203   3.317  0.00  0.00    -0.091 S 
ATOM     11  C   UNL     1       1.587  -0.971   6.394  0.00  0.00    +0.043 C 
ATOM     12  C   UNL     1       0.452  -1.707   7.140  0.00  0.00    +0.010 C 
ATOM     13  C   UNL     1       0.322  -3.004   6.319  0.00  0.00    +0.036 C 
ENDBRANCH   2   6
BRANCH   1  18
ATOM     14  C   UNL     1      -0.017   1.376   0.010  0.00  0.00    +0.001 A 
ATOM     15  C   UNL     1       1.170   2.087   0.002  0.00  0.00    +0.001 A 
ATOM     16  C   UNL     1       2.382   1.421  -0.013  0.00  0.00    +0.016 A 
ATOM     17  C   UNL     1       2.414   0.040  -0.021  0.00  0.00    +0.026 A 
ATOM     18  C   UNL     1       1.221  -0.682  -0.013  0.00  0.00    +0.003 A 
ATOM     19  C   UNL     1       0.002  -0.004   0.002  0.00  0.00    +0.010 A 
ATOM     20 BR   UNL     1       4.072  -0.869  -0.043  0.00  0.00    -0.050 Br
ENDBRANCH   1  18
BRANCH   5  21
ATOM     21  N   UNL     1       1.230  -2.562  -2.448  0.00  0.00    -0.327 N 
ATOM     22  H   UNL     1       1.211  -1.615  -2.655  0.00  0.00    +0.145 HD
ATOM     23  H   UNL     1       1.234  -3.216  -3.165  0.00  0.00    +0.145 HD
ENDBRANCH   5  21
TORSDOF 3
