REMARK  Name = ZINC63457916
REMARK  5 active torsions:
REMARK  status: ('A' for Active; 'I' for Inactive)
REMARK    1  A    between atoms: C_1  and  C_2
REMARK    2  A    between atoms: C_3  and  N_13
REMARK    3  A    between atoms: C_4  and  N_8
REMARK    4  A    between atoms: N_13  and  S_14
REMARK    5  A    between atoms: S_14  and  C_17
REMARK                            x       y       z     vdW  Elec       q    Type
REMARK                         _______ _______ _______ _____ _____    ______ ____
ROOT
ATOM      1  N   UNL     1      -3.312  -0.376   0.099  0.00  0.00    -0.215 N 
ATOM      2  H   UNL     1      -4.150  -0.628   0.518  0.00  0.00    +0.174 HD
ENDROOT
BRANCH   1   5
ATOM      3  C   UNL     1      -0.316  -0.122  -0.479  0.00  0.00    +0.069 C 
ATOM      4  C   UNL     1      -1.224  -1.277  -0.814  0.00  0.00    +0.082 C 
ATOM      5  C   UNL     1      -2.546  -1.324  -0.528  0.00  0.00    +0.095 C 
ATOM      6  C   UNL     1      -2.980  -2.677  -1.067  0.00  0.00    +0.277 C 
ATOM      7  N   UNL     1      -1.728  -3.225  -1.617  0.00  0.00    -0.155 NA
ATOM      8  N   UNL     1      -0.837  -2.393  -1.437  0.00  0.00    -0.155 NA
BRANCH   6   9
ATOM      9  N   UNL     1      -3.492  -3.525   0.012  0.00  0.00    -0.290 N 
ATOM     10  C   UNL     1      -2.763  -4.236   0.906  0.00  0.00    +0.226 A 
ATOM     11  N   UNL     1      -3.604  -4.851   1.692  0.00  0.00    -0.138 NA
ATOM     12  N   UNL     1      -4.809  -4.567   1.343  0.00  0.00    -0.138 NA
ATOM     13  C   UNL     1      -4.791  -3.754   0.323  0.00  0.00    +0.226 A 
ENDBRANCH   6   9
ENDBRANCH   1   5
BRANCH   1  14
ATOM     14  S   UNL     1      -2.808   1.201   0.142  0.00  0.00    +0.072 S 
ATOM     15  O   UNL     1      -3.896   1.962   0.647  0.00  0.00    -0.150 OA
ATOM     16  O   UNL     1      -1.527   1.201   0.758  0.00  0.00    -0.150 OA
BRANCH  14  17
ATOM     17  C   UNL     1      -2.564   1.715  -1.525  0.00  0.00    +0.109 A 
ATOM     18  C   UNL     1      -1.371   2.304  -1.902  0.00  0.00    +0.029 A 
ATOM     19  C   UNL     1      -1.189   2.707  -3.209  0.00  0.00    +0.006 A 
ATOM     20  C   UNL     1      -2.194   2.525  -4.150  0.00  0.00    -0.044 A 
ATOM     21  C   UNL     1      -3.380   1.934  -3.776  0.00  0.00    -0.042 A 
ATOM     22  C   UNL     1      -3.561   1.527  -2.460  0.00  0.00    +0.032 A 
ATOM     23  C   UNL     1      -4.506   1.690  -4.747  0.00  0.00    +0.035 C 
ATOM     24  C   UNL     1      -4.333   2.550  -5.997  0.00  0.00    +0.005 C 
ATOM     25  C   UNL     1      -2.911   2.346  -6.532  0.00  0.00    +0.005 C 
ATOM     26  C   UNL     1      -1.931   2.995  -5.557  0.00  0.00    +0.035 C 
ENDBRANCH  14  17
ENDBRANCH   1  14
TORSDOF 4
