REMARK  Name = ZINC22712839
REMARK  10 active torsions:
REMARK  status: ('A' for Active; 'I' for Inactive)
REMARK    1  A    between atoms: C_1  and  C_2
REMARK    2  A    between atoms: C_2  and  C_4
REMARK    3  A    between atoms: C_2  and  N_11
REMARK    4  A    between atoms: C_12  and  C_14
REMARK    5  A    between atoms: C_14  and  C_16
REMARK    6  A    between atoms: C_14  and  O_17
REMARK    7  A    between atoms: O_17  and  C_18
REMARK    8  A    between atoms: C_18  and  C_20
REMARK    9  A    between atoms: C_22  and  N_27
REMARK   10  A    between atoms: C_25  and  N_26
REMARK                            x       y       z     vdW  Elec       q    Type
REMARK                         _______ _______ _______ _____ _____    ______ ____
ROOT
ATOM      1  C   UNL     1       0.703  -1.036  -3.590  0.00  0.00    +0.259 C 
ATOM      2  C   UNL     1       1.149  -2.481  -3.355  0.00  0.00    +0.062 C 
ENDROOT
BRANCH   1   4
ATOM      3  N   UNL     1       0.684  -0.377  -1.206  0.00  0.00    -0.306 N 
ATOM      4  C   UNL     1       0.002  -0.520  -2.359  0.00  0.00    +0.254 C 
ATOM      5  O   UNL     1      -1.176  -0.234  -2.407  0.00  0.00    -0.272 OA
ATOM      6  H   UNL     1       1.626  -0.605  -1.168  0.00  0.00    +0.149 HD
BRANCH   3   8
ATOM      7  C   UNL     1       0.000   1.655  -0.028  0.00  0.00    +0.033 C 
ATOM      8  C   UNL     1       0.003   0.125  -0.010  0.00  0.00    +0.100 C 
BRANCH   8   9
ATOM      9  C   UNL     1       0.725  -0.361   1.220  0.00  0.00    -0.027 A 
ATOM     10  C   UNL     1       2.107  -0.387   1.245  0.00  0.00    +0.008 A 
ATOM     11  C   UNL     1       2.770  -0.833   2.373  0.00  0.00    +0.038 A 
ATOM     12  C   UNL     1       2.049  -1.253   3.478  0.00  0.00    +0.123 A 
ATOM     13  C   UNL     1       0.665  -1.226   3.452  0.00  0.00    +0.038 A 
ATOM     14  C   UNL     1       0.004  -0.775   2.325  0.00  0.00    +0.008 A 
ATOM     15  F   UNL     1       2.696  -1.688   4.581  0.00  0.00    -0.205 F 
ENDBRANCH   8   9
ENDBRANCH   3   8
ENDBRANCH   1   4
BRANCH   1  16
ATOM     16  O   UNL     1      -0.193  -0.990  -4.703  0.00  0.00    -0.449 OA
BRANCH  16  17
ATOM     17  C   UNL     1       0.354  -0.803  -5.920  0.00  0.00    +0.342 C 
ATOM     18  O   UNL     1       1.558  -0.683  -6.034  0.00  0.00    -0.245 OA
BRANCH  17  19
ATOM     19  C   UNL     1      -0.508  -0.744  -7.113  0.00  0.00    +0.082 A 
ATOM     20  C   UNL     1      -1.877  -1.003  -7.005  0.00  0.00    +0.049 A 
ATOM     21  C   UNL     1      -2.678  -0.947  -8.125  0.00  0.00    +0.127 A 
ATOM     22  C   UNL     1      -2.132  -0.634  -9.361  0.00  0.00    +0.034 A 
ATOM     23  C   UNL     1      -0.783  -0.375  -9.484  0.00  0.00    +0.026 A 
ATOM     24  C   UNL     1       0.040  -0.422  -8.365  0.00  0.00    +0.039 A 
BRANCH  24  25
ATOM     25  N   UNL     1       1.397  -0.156  -8.486  0.00  0.00    -0.357 N 
ATOM     26  H   UNL     1       1.984  -0.271  -7.722  0.00  0.00    +0.142 HD
ATOM     27  H   UNL     1       1.759   0.143  -9.334  0.00  0.00    +0.142 HD
ENDBRANCH  24  25
BRANCH  21  28
ATOM     28  N   UNL     1      -4.127  -1.222  -8.008  0.00  0.00    +0.056 N 
ATOM     29  O   UNL     1      -4.606  -1.495  -6.932  0.00  0.00    -0.126 OA
ATOM     30  O   UNL     1      -4.833  -1.173  -8.989  0.00  0.00    -0.126 OA
ENDBRANCH  21  28
ENDBRANCH  17  19
ENDBRANCH  16  17
ENDBRANCH   1  16
TORSDOF 8
