REMARK  Name = ZINC37638332
REMARK  3 active torsions:
REMARK  status: ('A' for Active; 'I' for Inactive)
REMARK    1  A    between atoms: C_4  and  C_7
REMARK    2  A    between atoms: N_10  and  O_11
REMARK    3  A    between atoms: N_14  and  O_15
REMARK                            x       y       z     vdW  Elec       q    Type
REMARK                         _______ _______ _______ _____ _____    ______ ____
ROOT
ATOM      1  C   UNL     1       3.711  -0.707  -0.038  0.00  0.00    +0.030 C 
ATOM      2  C   UNL     1       3.792  -1.577  -1.295  0.00  0.00    +0.063 C 
ATOM      3  C   UNL     1       5.097  -2.341  -1.283  0.00  0.00    +0.064 C 
ATOM      4  N   UNL     1       5.910  -2.271  -2.268  0.00  0.00    -0.096 NA
ATOM      5  C   UNL     1       5.414  -3.192  -0.070  0.00  0.00    +0.108 C 
ATOM      6  C   UNL     1       5.121  -2.356   1.160  0.00  0.00    +0.064 C 
ATOM      7  N   UNL     1       5.953  -2.299   2.130  0.00  0.00    -0.096 NA
ATOM      8  C   UNL     1       3.817  -1.592   1.207  0.00  0.00    +0.063 C 
ENDROOT
BRANCH   1  12
ATOM      9  C   UNL     1      -0.017   1.378   0.010  0.00  0.00    +0.000 A 
ATOM     10  C   UNL     1       1.171   2.086   0.002  0.00  0.00    +0.000 A 
ATOM     11  C   UNL     1       2.377   1.411  -0.013  0.00  0.00    +0.004 A 
ATOM     12  C   UNL     1       2.396   0.029  -0.020  0.00  0.00    -0.044 A 
ATOM     13  C   UNL     1       1.208  -0.679  -0.012  0.00  0.00    +0.004 A 
ATOM     14  C   UNL     1       0.002  -0.004   0.002  0.00  0.00    +0.000 A 
ENDBRANCH   1  12
BRANCH   4  15
ATOM     15  O   UNL     1       5.593  -1.470  -3.392  0.00  0.00    -0.409 OA
ATOM     16  H   UNL     1       6.268  -1.480  -4.085  0.00  0.00    +0.328 HD
ENDBRANCH   4  15
BRANCH   7  17
ATOM     17  O   UNL     1       5.659  -1.511   3.269  0.00  0.00    -0.409 OA
ATOM     18  H   UNL     1       6.347  -1.530   3.949  0.00  0.00    +0.328 HD
ENDBRANCH   7  17
TORSDOF 3
