REMARK  Name = ZINC52907472
REMARK  5 active torsions:
REMARK  status: ('A' for Active; 'I' for Inactive)
REMARK    1  A    between atoms: C_4  and  O_10
REMARK    2  A    between atoms: C_5  and  N_7
REMARK    3  A    between atoms: O_10  and  C_11
REMARK    4  A    between atoms: C_16  and  C_17
REMARK    5  A    between atoms: N_18  and  O_19
REMARK                            x       y       z     vdW  Elec       q    Type
REMARK                         _______ _______ _______ _____ _____    ______ ____
ROOT
ATOM      1  C   UNL     1       4.666   0.190  -0.036  0.00  0.00    +0.140 A 
ATOM      2  C   UNL     1       4.496   1.563   0.038  0.00  0.00    +0.047 A 
ATOM      3  C   UNL     1       5.596   2.399   0.038  0.00  0.00    +0.005 A 
ATOM      4  C   UNL     1       6.874   1.873  -0.035  0.00  0.00    +0.021 A 
ATOM      5  C   UNL     1       7.061   0.507  -0.109  0.00  0.00    +0.055 A 
ATOM      6  C   UNL     1       5.957  -0.347  -0.104  0.00  0.00    +0.078 A 
ATOM      7 CL   UNL     1       8.667  -0.147  -0.201  0.00  0.00    -0.083 Cl
ENDROOT
BRANCH   6   8
ATOM      8  C   UNL     1       6.150  -1.812  -0.177  0.00  0.00    +0.167 C 
ATOM      9  N   UNL     1       6.197  -2.405  -1.335  0.00  0.00    -0.071 NA
ATOM     10  N   UNL     1       6.281  -2.551   0.986  0.00  0.00    -0.340 N 
ATOM     11  H   UNL     1       6.246  -2.109   1.848  0.00  0.00    +0.144 HD
ATOM     12  H   UNL     1       6.408  -3.512   0.938  0.00  0.00    +0.144 HD
BRANCH   9  13
ATOM     13  O   UNL     1       6.063  -1.648  -2.524  0.00  0.00    -0.408 OA
ATOM     14  H   UNL     1       6.111  -2.176  -3.333  0.00  0.00    +0.328 HD
ENDBRANCH   9  13
ENDBRANCH   6   8
BRANCH   1  15
ATOM     15  O   UNL     1       3.586  -0.632  -0.037  0.00  0.00    -0.453 OA
BRANCH  15  19
ATOM     16  C   UNL     1       2.296  -2.140   3.580  0.00  0.00    +0.002 A 
ATOM     17  C   UNL     1       3.452  -1.383   3.520  0.00  0.00    +0.004 A 
ATOM     18  C   UNL     1       3.886  -0.877   2.311  0.00  0.00    +0.048 A 
ATOM     19  C   UNL     1       3.161  -1.129   1.154  0.00  0.00    +0.159 A 
ATOM     20  C   UNL     1       2.002  -1.889   1.217  0.00  0.00    +0.168 A 
ATOM     21  C   UNL     1       1.573  -2.392   2.430  0.00  0.00    +0.036 A 
BRANCH  20  22
ATOM     22  N   UNL     1       1.226  -2.159  -0.014  0.00  0.00    +0.060 N 
ATOM     23  O   UNL     1       0.216  -2.822   0.041  0.00  0.00    -0.126 OA
ATOM     24  O   UNL     1       1.602  -1.718  -1.075  0.00  0.00    -0.126 OA
ENDBRANCH  20  22
ENDBRANCH  15  19
ENDBRANCH   1  15
TORSDOF 5
