REMARK  Name = ZINC09329145
REMARK  10 active torsions:
REMARK  status: ('A' for Active; 'I' for Inactive)
REMARK    1  A    between atoms: C_1  and  C_2
REMARK    2  A    between atoms: C_2  and  C_3
REMARK    3  A    between atoms: C_3  and  O_4
REMARK    4  A    between atoms: O_4  and  C_5
REMARK    5  A    between atoms: C_8  and  C_11
REMARK    6  A    between atoms: C_12  and  C_24
REMARK    7  A    between atoms: N_26  and  N_27
REMARK    8  A    between atoms: C_28  and  C_29
REMARK    9  A    between atoms: C_28  and  C_30
REMARK   10  A    between atoms: C_35  and  C_36
REMARK                            x       y       z     vdW  Elec       q    Type
REMARK                         _______ _______ _______ _____ _____    ______ ____
ROOT
ATOM      1  C   UNL     1       5.418   8.082  -1.169  0.00  0.00    +0.109 A 
ATOM      2  C   UNL     1       4.213   7.396  -1.061  0.00  0.00    +0.177 A 
ATOM      3  N   UNL     1       3.213   8.284  -1.190  0.00  0.00    -0.124 NA
ATOM      4  N   UNL     1       3.692   9.463  -1.375  0.00  0.00    -0.058 NA
ATOM      5  N   UNL     1       5.092   9.393  -1.374  0.00  0.00    -0.187 N 
ATOM      6  C   UNL     1       5.982  10.458  -1.544  0.00  0.00    +0.241 A 
ATOM      7  C   UNL     1       5.611  11.860  -1.757  0.00  0.00    +0.206 A 
ATOM      8  N   UNL     1       6.705  12.561  -1.873  0.00  0.00    -0.032 NA
ATOM      9  O   UNL     1       7.803  11.676  -1.743  0.00  0.00    -0.239 OA
ATOM     10  N   UNL     1       7.282  10.375  -1.534  0.00  0.00    -0.027 NA
ATOM     11  N   UNL     1       4.314  12.358  -1.825  0.00  0.00    -0.337 N 
ATOM     12  H   UNL     1       3.559  11.758  -1.728  0.00  0.00    +0.144 HD
ATOM     13  H   UNL     1       4.166  13.306  -1.970  0.00  0.00    +0.144 HD
ENDROOT
BRANCH   1  17
ATOM     14  C   UNL     1       9.324   6.432  -0.925  0.00  0.00    +0.121 A 
ATOM     15  C   UNL     1       8.355   6.057  -0.003  0.00  0.00    +0.046 A 
ATOM     16  C   UNL     1       7.086   6.590  -0.079  0.00  0.00    +0.013 A 
ATOM     17  C   UNL     1       6.776   7.509  -1.084  0.00  0.00    +0.003 A 
ATOM     18  C   UNL     1       7.752   7.880  -2.012  0.00  0.00    +0.013 A 
ATOM     19  C   UNL     1       9.019   7.346  -1.926  0.00  0.00    +0.046 A 
BRANCH  14  20
ATOM     20  O   UNL     1      10.572   5.904  -0.847  0.00  0.00    -0.492 OA
BRANCH  20  21
ATOM     21  C   UNL     1      11.521   6.332  -1.827  0.00  0.00    +0.229 C 
BRANCH  21  23
ATOM     22  C   UNL     1      13.875   6.094  -2.629  0.00  0.00    +0.007 C 
ATOM     23  C   UNL     1      12.860   5.635  -1.580  0.00  0.00    +0.038 C 
ENDBRANCH  21  23
ENDBRANCH  20  21
ENDBRANCH  14  20
ENDBRANCH   1  17
BRANCH   2  24
ATOM     24  C   UNL     1       4.059   5.950  -0.837  0.00  0.00    +0.286 C 
ATOM     25  O   UNL     1       5.044   5.242  -0.734  0.00  0.00    -0.267 OA
ATOM     26  N   UNL     1       2.828   5.409  -0.745  0.00  0.00    -0.201 N 
ATOM     27  H   UNL     1       2.043   5.973  -0.826  0.00  0.00    +0.178 HD
BRANCH  26  28
ATOM     28  N   UNL     1       2.682   4.032  -0.531  0.00  0.00    -0.184 NA
ATOM     29  C   UNL     1       1.495   3.511  -0.443  0.00  0.00    +0.064 C 
ATOM     30  C   UNL     1       0.276   4.388  -0.569  0.00  0.00    +0.068 C 
BRANCH  29  31
ATOM     31  C   UNL     1       1.342   2.065  -0.218  0.00  0.00    +0.012 A 
ATOM     32  C   UNL     1       0.077   1.519   0.007  0.00  0.00    +0.010 A 
ATOM     33  C   UNL     1      -0.061   0.163   0.216  0.00  0.00    +0.001 A 
ATOM     34  C   UNL     1       1.049  -0.667   0.204  0.00  0.00    +0.001 A 
ATOM     35  C   UNL     1       2.308  -0.149  -0.017  0.00  0.00    +0.016 A 
ATOM     36  C   UNL     1       2.471   1.220  -0.231  0.00  0.00    +0.072 A 
BRANCH  36  37
ATOM     37  C   UNL     1       3.814   1.780  -0.468  0.00  0.00    +0.387 C 
ATOM     38  O   UNL     1       4.026   2.450  -1.459  0.00  0.00    -0.241 OA
ATOM     39  O   UNL     1       4.806   1.548   0.414  0.00  0.00    -0.241 OA
ENDBRANCH  36  37
ENDBRANCH  29  31
ENDBRANCH  26  28
ENDBRANCH   2  24
TORSDOF 8
