REMARK  Name = ZINC04897163
REMARK  10 active torsions:
REMARK  status: ('A' for Active; 'I' for Inactive)
REMARK    1  A    between atoms: C_1  and  O_2
REMARK    2  A    between atoms: O_2  and  C_3
REMARK    3  A    between atoms: C_15  and  C_17
REMARK    4  A    between atoms: C_17  and  O_18
REMARK    5  A    between atoms: O_18  and  C_19
REMARK    6  A    between atoms: C_21  and  O_34
REMARK    7  A    between atoms: C_23  and  O_33
REMARK    8  A    between atoms: C_25  and  O_32
REMARK    9  A    between atoms: C_27  and  C_30
REMARK   10  A    between atoms: C_30  and  O_31
REMARK                            x       y       z     vdW  Elec       q    Type
REMARK                         _______ _______ _______ _____ _____    ______ ____
ROOT
ATOM      1  C   UNL     1      -1.312  -0.742   0.011  0.00  0.00    +0.237 C 
ENDROOT
BRANCH   1  14
ATOM      2  C   UNL     1       3.704   1.891  -0.023  0.00  0.00    +0.145 A 
ATOM      3  C   UNL     1       4.854   1.100  -0.038  0.00  0.00    +0.063 A 
ATOM      4  C   UNL     1       6.293   1.391  -0.050  0.00  0.00    +0.053 A 
ATOM      5  C   UNL     1       6.913   0.204  -0.062  0.00  0.00    +0.196 A 
ATOM      6  O   UNL     1       6.009  -0.792  -0.058  0.00  0.00    -0.463 OA
ATOM      7  C   UNL     1       4.752  -0.303  -0.044  0.00  0.00    +0.142 A 
ATOM      8  C   UNL     1       3.502  -0.908  -0.036  0.00  0.00    +0.094 A 
ATOM      9  C   UNL     1       2.354  -0.136  -0.021  0.00  0.00    +0.146 A 
ATOM     10  C   UNL     1       2.454   1.271  -0.015  0.00  0.00    +0.106 A 
ATOM     11  C   UNL     1       1.210   2.059   0.002  0.00  0.00    +0.196 A 
ATOM     12  O   UNL     1       1.231   3.279   0.008  0.00  0.00    -0.287 OA
ATOM     13  C   UNL     1      -0.016   1.340   0.009  0.00  0.00    +0.095 A 
ATOM     14  C   UNL     1       0.002  -0.004   0.002  0.00  0.00    +0.135 A 
ATOM     15  O   UNL     1       1.134  -0.716  -0.012  0.00  0.00    -0.457 OA
BRANCH   2  17
ATOM     16  C   UNL     1       3.858   3.885   1.258  0.00  0.00    +0.277 C 
ATOM     17  O   UNL     1       3.800   3.244  -0.018  0.00  0.00    -0.494 OA
ENDBRANCH   2  17
ENDBRANCH   1  14
BRANCH   1  18
ATOM     18  O   UNL     1      -1.740  -0.968  -1.334  0.00  0.00    -0.341 OA
BRANCH  18  19
ATOM     19  C   UNL     1      -2.983  -1.665  -1.439  0.00  0.00    +0.282 C 
ATOM     20  C   UNL     1      -3.404  -1.741  -2.909  0.00  0.00    +0.201 C 
ATOM     21  C   UNL     1      -2.356  -2.539  -3.691  0.00  0.00    +0.179 C 
ATOM     22  C   UNL     1      -2.208  -3.925  -3.056  0.00  0.00    +0.177 C 
ATOM     23  C   UNL     1      -1.834  -3.765  -1.580  0.00  0.00    +0.178 C 
ATOM     24  O   UNL     1      -2.834  -2.987  -0.918  0.00  0.00    -0.341 OA
BRANCH  22  25
ATOM     25  O   UNL     1      -3.445  -4.633  -3.161  0.00  0.00    -0.386 OA
ATOM     26  H   UNL     1      -3.746  -4.766  -4.070  0.00  0.00    +0.210 HD
ENDBRANCH  22  25
BRANCH  21  27
ATOM     27  O   UNL     1      -2.777  -2.678  -5.049  0.00  0.00    -0.386 OA
ATOM     28  H   UNL     1      -2.897  -1.837  -5.511  0.00  0.00    +0.210 HD
ENDBRANCH  21  27
BRANCH  20  29
ATOM     29  O   UNL     1      -3.499  -0.420  -3.447  0.00  0.00    -0.384 OA
ATOM     30  H   UNL     1      -4.143   0.143  -2.995  0.00  0.00    +0.210 HD
ENDBRANCH  20  29
BRANCH  23  31
ATOM     31  C   UNL     1      -1.743  -5.144  -0.924  0.00  0.00    +0.190 C 
BRANCH  31  32
ATOM     32  O   UNL     1      -1.281  -5.002   0.421  0.00  0.00    -0.392 OA
ATOM     33  H   UNL     1      -1.199  -5.839   0.899  0.00  0.00    +0.210 HD
ENDBRANCH  31  32
ENDBRANCH  23  31
ENDBRANCH  18  19
ENDBRANCH   1  18
TORSDOF 9
