REMARK  Name = ZINC02654404
REMARK  11 active torsions:
REMARK  status: ('A' for Active; 'I' for Inactive)
REMARK    1  A    between atoms: C_1  and  C_2
REMARK    2  A    between atoms: C_2  and  C_4
REMARK    3  A    between atoms: C_2  and  O_11
REMARK    4  A    between atoms: O_11  and  C_12
REMARK    5  A    between atoms: C_12  and  C_13
REMARK    6  A    between atoms: C_13  and  C_15
REMARK    7  A    between atoms: C_13  and  O_26
REMARK    8  A    between atoms: C_15  and  N_46
REMARK    9  A    between atoms: C_16  and  C_17
REMARK   10  A    between atoms: C_16  and  N_46
REMARK   11  A    between atoms: C_17  and  C_18
REMARK                            x       y       z     vdW  Elec       q    Type
REMARK                         _______ _______ _______ _____ _____    ______ ____
ROOT
ATOM      1  C   UNL     1       3.654   1.350  -0.618  0.00  0.00    +0.123 C 
ENDROOT
BRANCH   1   2
ATOM      2  O   UNL     1       3.657   2.568  -1.366  0.00  0.00    -0.391 OA
ATOM      3  H   UNL     1       3.428   2.457  -2.299  0.00  0.00    +0.210 HD
ENDBRANCH   1   2
BRANCH   1   4
ATOM      4  C   UNL     1       2.258   0.725  -0.668  0.00  0.00    +0.190 C 
BRANCH   4   5
ATOM      5  O   UNL     1       1.328   1.580  -0.002  0.00  0.00    -0.370 OA
BRANCH   5   7
ATOM      6  C   UNL     1      -0.753   1.593  -1.232  0.00  0.00    +0.043 C 
ATOM      7  C   UNL     1      -0.013   1.086   0.008  0.00  0.00    +0.145 C 
BRANCH   7   8
ATOM      8  C   UNL     1      -0.718   1.572   1.248  0.00  0.00    -0.019 A 
ATOM      9  C   UNL     1      -0.510   2.861   1.700  0.00  0.00    +0.007 A 
ATOM     10  C   UNL     1      -1.161   3.310   2.834  0.00  0.00    +0.020 A 
ATOM     11  C   UNL     1      -2.012   2.464   3.523  0.00  0.00    +0.041 A 
ATOM     12  C   UNL     1      -2.215   1.171   3.073  0.00  0.00    +0.020 A 
ATOM     13  C   UNL     1      -1.568   0.726   1.936  0.00  0.00    +0.007 A 
ATOM     14 CL   UNL     1      -2.824   3.023   4.952  0.00  0.00    -0.084 Cl
ENDBRANCH   7   8
ENDBRANCH   5   7
ENDBRANCH   4   5
ENDBRANCH   1   4
BRANCH   1  15
ATOM     15  C   UNL     1       4.670   0.379  -1.220  0.00  0.00    -0.049 C 
BRANCH  15  16
ATOM     16  N   UNL     1       6.026   0.936  -1.059  0.00  0.00    +0.381 N 
ATOM     17  H   UNL     1       6.221   1.070  -0.060  0.00  0.00    -0.086 HD
ATOM     18  H   UNL     1       6.080   1.841  -1.542  0.00  0.00    -0.086 HD
BRANCH  16  19
ATOM     19  C   UNL     1       7.029   0.019  -1.632  0.00  0.00    -0.078 C 
BRANCH  19  20
ATOM     20  C   UNL     1       8.423   0.623  -1.450  0.00  0.00    +0.017 C 
BRANCH  20  21
ATOM     21  C   UNL     1       9.454  -0.309  -2.033  0.00  0.00    -0.031 A 
ATOM     22  C   UNL     1       9.978  -0.062  -3.288  0.00  0.00    +0.006 A 
ATOM     23  C   UNL     1      10.924  -0.916  -3.823  0.00  0.00    +0.020 A 
ATOM     24  C   UNL     1      11.347  -2.019  -3.103  0.00  0.00    +0.042 A 
ATOM     25  C   UNL     1      10.823  -2.267  -1.847  0.00  0.00    +0.040 A 
ATOM     26  C   UNL     1       9.880  -1.409  -1.310  0.00  0.00    +0.045 A 
ATOM     27 CL   UNL     1       9.226  -1.715   0.269  0.00  0.00    -0.083 Cl
ATOM     28 CL   UNL     1      12.535  -3.091  -3.775  0.00  0.00    -0.083 Cl
ENDBRANCH  20  21
ENDBRANCH  19  20
ENDBRANCH  16  19
ENDBRANCH  15  16
ENDBRANCH   1  15
TORSDOF 10
