REMARK  Name = ZINC39678738
REMARK  9 active torsions:
REMARK  status: ('A' for Active; 'I' for Inactive)
REMARK    1  A    between atoms: C_1  and  C_2
REMARK    2  A    between atoms: C_2  and  C_3
REMARK    3  A    between atoms: C_2  and  O_4
REMARK    4  A    between atoms: O_4  and  C_5
REMARK    5  A    between atoms: C_5  and  C_7
REMARK    6  A    between atoms: C_7  and  N_8
REMARK    7  A    between atoms: C_9  and  C_11
REMARK    8  A    between atoms: C_22  and  C_24
REMARK    9  A    between atoms: C_30  and  C_32
REMARK                            x       y       z     vdW  Elec       q    Type
REMARK                         _______ _______ _______ _____ _____    ______ ____
ROOT
ATOM      1  C   UNL     1       6.583  -1.775  -2.602  0.00  0.00    +0.100 C 
ATOM      2  C   UNL     1       7.196  -0.382  -2.334  0.00  0.00    +0.121 C 
ATOM      3  N   UNL     1       8.575  -0.470  -2.868  0.00  0.00    -0.300 N 
ATOM      4  C   UNL     1       8.437  -1.259  -4.116  0.00  0.00    +0.115 C 
ATOM      5  C   UNL     1       7.400  -2.347  -3.773  0.00  0.00    -0.004 C 
ATOM      6  C   UNL     1       6.494  -2.608  -4.972  0.00  0.00    -0.010 C 
ATOM      7  C   UNL     1       7.317  -3.230  -6.103  0.00  0.00    -0.082 C 
ATOM      8  N   UNL     1       7.921  -4.485  -5.638  0.00  0.00    +0.379 N 
ATOM      9  C   UNL     1       8.863  -4.213  -4.545  0.00  0.00    -0.082 C 
ATOM     10  C   UNL     1       8.104  -3.632  -3.349  0.00  0.00    -0.010 C 
ATOM     11  C   UNL     1       9.701   0.049  -2.339  0.00  0.00    +0.219 C 
ATOM     12  O   UNL     1      10.764  -0.110  -2.901  0.00  0.00    -0.275 OA
ATOM     13  H   UNL     1       7.195  -5.104  -5.309  0.00  0.00    -0.086 HD
ATOM     14  H   UNL     1       8.412  -4.924  -6.403  0.00  0.00    -0.086 HD
ENDROOT
BRANCH  11  15
ATOM     15  C   UNL     1       9.638   0.827  -1.050  0.00  0.00    +0.078 C 
ATOM     16  C   UNL     1       8.719   2.037  -1.229  0.00  0.00    +0.032 C 
ATOM     17  C   UNL     1       8.631   2.806   0.093  0.00  0.00    +0.108 C 
ATOM     18  N   UNL     1       9.991   3.141   0.537  0.00  0.00    -0.302 N 
ATOM     19  C   UNL     1      10.981   2.062   0.656  0.00  0.00    +0.108 C 
ATOM     20  C   UNL     1      11.043   1.302  -0.673  0.00  0.00    +0.032 C 
ATOM     21  C   UNL     1      10.324   4.414   0.830  0.00  0.00    +0.212 C 
ATOM     22  O   UNL     1      11.473   4.694   1.095  0.00  0.00    -0.276 OA
ATOM     23  C   UNL     1       9.268   5.489   0.827  0.00  0.00    +0.109 C 
ENDBRANCH  11  15
BRANCH   1  25
ATOM     24  N   UNL     1       4.304  -2.701  -2.862  0.00  0.00    -0.305 N 
ATOM     25  C   UNL     1       5.133  -1.645  -2.989  0.00  0.00    +0.219 C 
ATOM     26  O   UNL     1       4.710  -0.591  -3.413  0.00  0.00    -0.275 OA
ATOM     27  H   UNL     1       4.642  -3.545  -2.522  0.00  0.00    +0.149 HD
BRANCH  24  28
ATOM     28  C   UNL     1       2.894  -2.575  -3.238  0.00  0.00    +0.224 C 
BRANCH  28  29
ATOM     29  C   UNL     1       2.192  -3.887  -3.002  0.00  0.00    +0.325 C 
ATOM     30  O   UNL     1       2.806  -4.831  -2.566  0.00  0.00    -0.249 OA
BRANCH  29  31
ATOM     31  O   UNL     1       0.883  -4.007  -3.278  0.00  0.00    -0.461 OA
BRANCH  31  33
ATOM     32  C   UNL     1      -0.253  -5.321  -1.598  0.00  0.00    +0.052 C 
ATOM     33  C   UNL     1       0.283  -5.280  -3.031  0.00  0.00    +0.170 C 
ATOM     34  C   UNL     1      -0.870  -5.499  -4.012  0.00  0.00    +0.052 C 
ENDBRANCH  31  33
ENDBRANCH  29  31
ENDBRANCH  28  29
ENDBRANCH  24  28
ENDBRANCH   1  25
TORSDOF 6
