REMARK  Name = ZINC12452556
REMARK  8 active torsions:
REMARK  status: ('A' for Active; 'I' for Inactive)
REMARK    1  A    between atoms: C_1  and  O_2
REMARK    2  A    between atoms: O_2  and  C_3
REMARK    3  A    between atoms: C_3  and  C_5
REMARK    4  A    between atoms: C_8  and  N_19
REMARK    5  A    between atoms: C_11  and  C_12
REMARK    6  A    between atoms: C_11  and  N_54
REMARK    7  A    between atoms: C_20  and  C_22
REMARK    8  A    between atoms: C_27  and  N_28
REMARK                            x       y       z     vdW  Elec       q    Type
REMARK                         _______ _______ _______ _____ _____    ______ ____
ROOT
ATOM      1  C   UNL     1       5.995   6.326   0.417  0.00  0.00    +0.045 C 
ATOM      2  C   UNL     1       4.770   5.665  -0.264  0.00  0.00    +0.016 C 
ATOM      3  C   UNL     1       4.985   4.170   0.087  0.00  0.00    +0.056 C 
ATOM      4  C   UNL     1       5.589   4.229   1.506  0.00  0.00    -0.055 C 
ATOM      5  N   UNL     1       6.165   5.575   1.674  0.00  0.00    +0.392 N 
ATOM      6  H   UNL     1       5.672   6.064   2.431  0.00  0.00    -0.080 HD
ENDROOT
BRANCH   3   7
ATOM      7  N   UNL     1       3.708   3.451   0.097  0.00  0.00    -0.310 N 
ATOM      8  C   UNL     1       3.689   2.109  -0.025  0.00  0.00    +0.246 C 
ATOM      9  O   UNL     1       4.731   1.495  -0.143  0.00  0.00    -0.270 OA
ATOM     10  H   UNL     1       2.876   3.942   0.191  0.00  0.00    +0.149 HD
BRANCH   8  11
ATOM     11  C   UNL     1       2.403   1.385  -0.015  0.00  0.00    +0.062 A 
ATOM     12  C   UNL     1       1.511   1.553   1.047  0.00  0.00    +0.015 A 
ATOM     13  C   UNL     1       0.311   0.875   1.050  0.00  0.00    +0.001 A 
ATOM     14  C   UNL     1      -0.016   0.027   0.005  0.00  0.00    +0.002 A 
ATOM     15  C   UNL     1       0.857  -0.149  -1.051  0.00  0.00    +0.028 A 
ATOM     16  C   UNL     1       2.069   0.526  -1.071  0.00  0.00    +0.077 A 
BRANCH  16  17
ATOM     17  N   UNL     1       2.953   0.350  -2.138  0.00  0.00    -0.239 N 
ATOM     18  C   UNL     1       2.813  -0.541  -3.154  0.00  0.00    +0.114 A 
ATOM     19  C   UNL     1       3.876  -0.391  -3.979  0.00  0.00    +0.041 A 
ATOM     20  C   UNL     1       4.695   0.613  -3.450  0.00  0.00    +0.135 A 
ATOM     21  N   UNL     1       4.144   1.057  -2.349  0.00  0.00    -0.175 NA
ENDBRANCH  16  17
ENDBRANCH   8  11
ENDBRANCH   3   7
BRANCH   1  22
ATOM     22  C   UNL     1       5.710   7.775   0.716  0.00  0.00    +0.293 C 
ATOM     23  O   UNL     1       5.665   8.158   1.861  0.00  0.00    -0.253 OA
BRANCH  22  25
ATOM     24  C   UNL     1       5.239  10.021   0.073  0.00  0.00    +0.280 C 
ATOM     25  O   UNL     1       5.507   8.641  -0.289  0.00  0.00    -0.469 OA
ENDBRANCH  22  25
ENDBRANCH   1  22
BRANCH   5  26
ATOM     26  C   UNL     1       7.606   5.473   2.021  0.00  0.00    -0.042 C 
BRANCH  26  27
ATOM     27  C   UNL     1       7.745   4.933   3.421  0.00  0.00    -0.061 A 
ATOM     28  C   UNL     1       7.841   3.569   3.630  0.00  0.00    +0.002 A 
ATOM     29  C   UNL     1       7.968   3.073   4.913  0.00  0.00    +0.003 A 
ATOM     30  C   UNL     1       8.001   3.939   5.990  0.00  0.00    +0.038 A 
ATOM     31  C   UNL     1       7.905   5.304   5.782  0.00  0.00    +0.124 A 
ATOM     32  C   UNL     1       7.784   5.801   4.495  0.00  0.00    +0.040 A 
ATOM     33  F   UNL     1       7.938   6.152   6.834  0.00  0.00    -0.205 F 
ENDBRANCH  26  27
ENDBRANCH   5  26
TORSDOF 7
