REMARK  Name = ZINC40891218
REMARK  4 active torsions:
REMARK  status: ('A' for Active; 'I' for Inactive)
REMARK    1  A    between atoms: C_3  and  C_8
REMARK    2  A    between atoms: C_8  and  O_10
REMARK    3  A    between atoms: O_10  and  C_11
REMARK    4  A    between atoms: C_16  and  C_22
REMARK                            x       y       z     vdW  Elec       q    Type
REMARK                         _______ _______ _______ _____ _____    ______ ____
ROOT
ATOM      1  C   UNL     1       6.023   2.149  -0.078  0.00  0.00    +0.135 A 
ATOM      2  C   UNL     1       6.056   3.542  -0.028  0.00  0.00    +0.047 A 
ATOM      3  C   UNL     1       7.244   4.208  -0.082  0.00  0.00    +0.015 A 
ATOM      4  C   UNL     1       8.444   3.489  -0.199  0.00  0.00    +0.019 A 
ATOM      5  C   UNL     1       9.683   4.170  -0.291  0.00  0.00    +0.031 A 
ATOM      6  C   UNL     1      10.816   3.428  -0.605  0.00  0.00    +0.121 A 
ATOM      7  C   UNL     1      10.634   1.986  -0.851  0.00  0.00    +0.350 A 
ATOM      8  O   UNL     1      11.411   1.364  -1.551  0.00  0.00    -0.244 OA
ATOM      9  O   UNL     1       9.573   1.378  -0.270  0.00  0.00    -0.422 OA
ATOM     10  C   UNL     1       8.416   2.080  -0.218  0.00  0.00    +0.143 A 
ATOM     11  C   UNL     1       7.199   1.420  -0.165  0.00  0.00    +0.093 A 
ENDROOT
BRANCH   6  12
ATOM     12  C   UNL     1      12.143   4.057  -0.689  0.00  0.00    +0.248 C 
ATOM     13  O   UNL     1      12.266   5.249  -0.482  0.00  0.00    -0.270 OA
ATOM     14  N   UNL     1      13.224   3.312  -0.995  0.00  0.00    -0.325 N 
ATOM     15  H   UNL     1      13.127   2.361  -1.161  0.00  0.00    +0.145 HD
ATOM     16  H   UNL     1      14.099   3.726  -1.051  0.00  0.00    +0.145 HD
ENDBRANCH   6  12
BRANCH   1  17
ATOM     17  O   UNL     1       4.831   1.501  -0.036  0.00  0.00    -0.422 OA
BRANCH  17  18
ATOM     18  C   UNL     1       4.085   1.474  -1.159  0.00  0.00    +0.344 C 
ATOM     19  O   UNL     1       4.443   2.094  -2.141  0.00  0.00    -0.245 OA
BRANCH  18  22
ATOM     20  C   UNL     1       0.891  -0.072  -2.385  0.00  0.00    +0.002 A 
ATOM     21  C   UNL     1       2.059   0.661  -2.357  0.00  0.00    +0.015 A 
ATOM     22  C   UNL     1       2.833   0.691  -1.196  0.00  0.00    +0.061 A 
ATOM     23  C   UNL     1       2.420  -0.022  -0.069  0.00  0.00    +0.035 A 
ATOM     24  C   UNL     1       1.249  -0.752  -0.110  0.00  0.00    +0.042 A 
ATOM     25  C   UNL     1       0.486  -0.777  -1.266  0.00  0.00    +0.020 A 
ATOM     26 CL   UNL     1       0.731  -1.640   1.289  0.00  0.00    -0.084 Cl
ENDBRANCH  18  22
ENDBRANCH  17  18
ENDBRANCH   1  17
TORSDOF 4
