REMARK  Name = ZINC62826379
REMARK  3 active torsions:
REMARK  status: ('A' for Active; 'I' for Inactive)
REMARK    1  A    between atoms: C_3  and  C_21
REMARK    2  A    between atoms: C_4  and  N_8
REMARK    3  A    between atoms: C_9  and  C_11
REMARK                            x       y       z     vdW  Elec       q    Type
REMARK                         _______ _______ _______ _____ _____    ______ ____
ROOT
ATOM      1  N   UNL     1       3.536  -0.961  -0.190  0.00  0.00    -0.280 N 
ATOM      2  C   UNL     1       3.463  -2.301  -0.065  0.00  0.00    +0.255 C 
ATOM      3  O   UNL     1       2.380  -2.844   0.046  0.00  0.00    -0.270 OA
ATOM      4  H   UNL     1       4.391  -0.536  -0.357  0.00  0.00    +0.155 HD
ENDROOT
BRANCH   2   5
ATOM      5  C   UNL     1       4.693  -3.108  -0.064  0.00  0.00    +0.117 A 
ATOM      6  C   UNL     1       4.651  -4.466   0.181  0.00  0.00    +0.105 A 
ATOM      7  N   UNL     1       5.808  -5.179   0.173  0.00  0.00    -0.314 N 
ATOM      8  H   UNL     1       5.777  -6.133   0.346  0.00  0.00    +0.170 HD
ATOM      9  C   UNL     1       6.991  -4.593  -0.067  0.00  0.00    +0.327 A 
ATOM     10  O   UNL     1       7.997  -5.276  -0.063  0.00  0.00    -0.247 OA
ATOM     11  N   UNL     1       7.100  -3.276  -0.313  0.00  0.00    -0.274 N 
ATOM     12  H   UNL     1       7.973  -2.889  -0.483  0.00  0.00    +0.173 HD
ATOM     13  C   UNL     1       6.002  -2.491  -0.330  0.00  0.00    +0.266 A 
ATOM     14  O   UNL     1       6.094  -1.299  -0.556  0.00  0.00    -0.267 OA
ENDBRANCH   2   5
BRANCH   1  18
ATOM     15  C   UNL     1       0.083   1.354   0.141  0.00  0.00    +0.002 A 
ATOM     16  C   UNL     1       1.192   1.685   0.888  0.00  0.00    +0.017 A 
ATOM     17  C   UNL     1       2.357   0.917   0.786  0.00  0.00    +0.085 A 
ATOM     18  C   UNL     1       2.384  -0.189  -0.079  0.00  0.00    +0.062 A 
ATOM     19  C   UNL     1       1.256  -0.507  -0.824  0.00  0.00    +0.040 A 
ATOM     20  C   UNL     1       0.114   0.262  -0.712  0.00  0.00    +0.017 A 
ATOM     21 BR   UNL     1       1.283  -1.994  -1.992  0.00  0.00    -0.048 Br
BRANCH  17  22
ATOM     22  C   UNL     1       3.545   1.266   1.581  0.00  0.00    +0.388 C 
ATOM     23  O   UNL     1       3.551   2.285   2.258  0.00  0.00    -0.241 OA
ATOM     24  O   UNL     1       4.527   0.536   1.565  0.00  0.00    -0.241 OA
ENDBRANCH  17  22
ENDBRANCH   1  18
TORSDOF 3
