REMARK  Name = ZINC20143890
REMARK  3 active torsions:
REMARK  status: ('A' for Active; 'I' for Inactive)
REMARK    1  A    between atoms: C_9  and  N_14
REMARK    2  A    between atoms: N_14  and  C_15
REMARK    3  A    between atoms: C_15  and  C_16
REMARK                            x       y       z     vdW  Elec       q    Type
REMARK                         _______ _______ _______ _____ _____    ______ ____
ROOT
ATOM      1  C   UNL     1       5.731  -2.749   6.729  0.00  0.00    +0.001 A 
ATOM      2  C   UNL     1       6.455  -1.961   7.610  0.00  0.00    +0.004 A 
ATOM      3  C   UNL     1       6.233  -0.602   7.680  0.00  0.00    +0.047 A 
ATOM      4  C   UNL     1       5.276  -0.009   6.864  0.00  0.00    +0.136 A 
ATOM      5  C   UNL     1       4.546  -0.809   5.975  0.00  0.00    +0.028 A 
ATOM      6  C   UNL     1       4.778  -2.179   5.912  0.00  0.00    +0.012 A 
ATOM      7  C   UNL     1       3.632   0.109   5.269  0.00  0.00    +0.030 A 
ATOM      8  C   UNL     1       2.666  -0.059   4.283  0.00  0.00    +0.035 A 
ATOM      9  C   UNL     1       1.960   1.040   3.820  0.00  0.00    +0.028 A 
ATOM     10  C   UNL     1       2.222   2.304   4.340  0.00  0.00    +0.026 A 
ATOM     11  C   UNL     1       3.174   2.474   5.321  0.00  0.00    +0.049 A 
ATOM     12  C   UNL     1       3.891   1.382   5.796  0.00  0.00    +0.136 A 
ATOM     13  O   UNL     1       4.863   1.270   6.729  0.00  0.00    -0.455 OA
ENDROOT
BRANCH   9  14
ATOM     14  N   UNL     1       0.987   0.879   2.827  0.00  0.00    -0.343 N 
ATOM     15  H   UNL     1       0.783  -0.120   2.414  0.00  0.00    +0.146 HD
BRANCH  14  16
ATOM     16  C   UNL     1       0.240   2.040   2.338  0.00  0.00    +0.107 C 
BRANCH  16  17
ATOM     17  C   UNL     1      -0.753   1.593   1.264  0.00  0.00    +0.034 C 
ATOM     18  C   UNL     1      -1.552   2.804   0.708  0.00  0.00    +0.035 C 
ATOM     19  C   UNL     1      -1.880   2.309  -0.724  0.00  0.00    +0.160 C 
ATOM     20  O   UNL     1      -0.722   1.569  -1.139  0.00  0.00    -0.379 OA
ATOM     21  C   UNL     1      -0.013   1.086   0.008  0.00  0.00    +0.165 C 
ENDBRANCH  16  17
ENDBRANCH  14  16
ENDBRANCH   9  14
TORSDOF 3
