REMARK  Name = ZINC39635991
REMARK  9 active torsions:
REMARK  status: ('A' for Active; 'I' for Inactive)
REMARK    1  A    between atoms: C_1  and  C_2
REMARK    2  A    between atoms: C_2  and  C_3
REMARK    3  A    between atoms: C_3  and  C_4
REMARK    4  A    between atoms: C_4  and  C_5
REMARK    5  A    between atoms: C_5  and  C_6
REMARK    6  A    between atoms: C_6  and  C_7
REMARK    7  A    between atoms: C_11  and  C_20
REMARK    8  A    between atoms: N_22  and  C_23
REMARK    9  A    between atoms: C_29  and  C_31
REMARK                            x       y       z     vdW  Elec       q    Type
REMARK                         _______ _______ _______ _____ _____    ______ ____
ROOT
ATOM      1  C   UNL     1      -3.902  -4.681  -0.116  0.00  0.00    +0.216 C 
ATOM      2  O   UNL     1      -4.757  -3.822  -0.144  0.00  0.00    -0.276 OA
ATOM      3  N   UNL     1      -4.254  -5.981  -0.074  0.00  0.00    -0.300 N 
ATOM      4  C   UNL     1      -3.362  -7.164  -0.029  0.00  0.00    +0.121 C 
ATOM      5  C   UNL     1      -4.055  -8.139   0.949  0.00  0.00    +0.100 C 
ATOM      6  C   UNL     1      -5.539  -7.734   0.921  0.00  0.00    -0.004 C 
ATOM      7  C   UNL     1      -5.623  -6.552  -0.055  0.00  0.00    +0.115 C 
ATOM      8  C   UNL     1      -5.993  -7.296   2.310  0.00  0.00    -0.010 C 
ATOM      9  C   UNL     1      -7.484  -6.953   2.270  0.00  0.00    -0.082 C 
ATOM     10  N   UNL     1      -8.247  -8.128   1.832  0.00  0.00    +0.379 N 
ATOM     11  C   UNL     1      -7.870  -8.486   0.459  0.00  0.00    -0.082 C 
ATOM     12  C   UNL     1      -6.395  -8.894   0.422  0.00  0.00    -0.010 C 
ATOM     13  H   UNL     1      -8.050  -8.903   2.446  0.00  0.00    -0.086 HD
ATOM     14  H   UNL     1      -9.233  -7.918   1.864  0.00  0.00    -0.086 HD
ENDROOT
BRANCH   5  15
ATOM     15  C   UNL     1      -3.491  -7.981   2.337  0.00  0.00    +0.218 C 
ATOM     16  O   UNL     1      -3.080  -6.901   2.705  0.00  0.00    -0.275 OA
ATOM     17  N   UNL     1      -3.444  -9.039   3.170  0.00  0.00    -0.312 N 
ATOM     18  H   UNL     1      -3.773  -9.903   2.876  0.00  0.00    +0.149 HD
BRANCH  17  19
ATOM     19  C   UNL     1      -2.895  -8.885   4.520  0.00  0.00    +0.076 C 
ATOM     20  C   UNL     1      -1.374  -9.040   4.473  0.00  0.00    +0.022 C 
ATOM     21  C   UNL     1      -1.019 -10.427   3.933  0.00  0.00    +0.002 C 
ATOM     22  C   UNL     1      -1.612 -11.498   4.850  0.00  0.00    +0.000 C 
ATOM     23  C   UNL     1      -3.134 -11.343   4.897  0.00  0.00    +0.005 C 
ATOM     24  C   UNL     1      -3.489  -9.956   5.437  0.00  0.00    +0.006 C 
ATOM     25  C   UNL     1      -5.010  -9.801   5.484  0.00  0.00    +0.009 C 
ENDBRANCH  17  19
ENDBRANCH   5  15
BRANCH   1  26
ATOM     26  C   UNL     1      -2.445  -4.296  -0.129  0.00  0.00    +0.096 C 
BRANCH  26  27
ATOM     27  C   UNL     1      -2.321  -2.772  -0.178  0.00  0.00    +0.009 C 
BRANCH  27  28
ATOM     28  C   UNL     1      -0.842  -2.380  -0.191  0.00  0.00    +0.000 C 
BRANCH  28  29
ATOM     29  C   UNL     1      -0.718  -0.856  -0.241  0.00  0.00    -0.000 C 
BRANCH  29  31
ATOM     30  C   UNL     1       0.884   1.060  -0.303  0.00  0.00    +0.004 C 
ATOM     31  C   UNL     1       0.761  -0.465  -0.254  0.00  0.00    -0.003 C 
ENDBRANCH  29  31
ENDBRANCH  28  29
ENDBRANCH  27  28
ENDBRANCH  26  27
ENDBRANCH   1  26
TORSDOF 7
