REMARK  Name = ZINC67372890
REMARK  8 active torsions:
REMARK  status: ('A' for Active; 'I' for Inactive)
REMARK    1  A    between atoms: C_6  and  C_11
REMARK    2  A    between atoms: C_11  and  C_13
REMARK    3  A    between atoms: C_11  and  O_28
REMARK    4  A    between atoms: C_13  and  N_14
REMARK    5  A    between atoms: N_14  and  C_15
REMARK    6  A    between atoms: C_18  and  S_24
REMARK    7  A    between atoms: C_20  and  N_21
REMARK    8  A    between atoms: S_24  and  N_27
REMARK                            x       y       z     vdW  Elec       q    Type
REMARK                         _______ _______ _______ _____ _____    ______ ____
ROOT
ATOM      1  N   UNL     1       6.971  -3.348   1.471  0.00  0.00    -0.339 N 
ATOM      2  H   UNL     1       7.506  -3.387   0.663  0.00  0.00    +0.146 HD
ENDROOT
BRANCH   1   3
ATOM      3  C   UNL     1       7.361  -4.066   2.603  0.00  0.00    +0.058 A 
ATOM      4  C   UNL     1       6.666  -3.916   3.797  0.00  0.00    +0.027 A 
ATOM      5  C   UNL     1       7.054  -4.628   4.915  0.00  0.00    +0.030 A 
ATOM      6  C   UNL     1       8.133  -5.490   4.847  0.00  0.00    +0.107 A 
ATOM      7  C   UNL     1       8.828  -5.642   3.660  0.00  0.00    +0.063 A 
ATOM      8  C   UNL     1       8.441  -4.937   2.537  0.00  0.00    +0.149 A 
BRANCH   8   9
ATOM      9  N   UNL     1       9.181  -5.104   1.266  0.00  0.00    +0.058 N 
ATOM     10  O   UNL     1       8.585  -5.103   0.215  0.00  0.00    -0.126 OA
ATOM     11  O   UNL     1      10.382  -5.242   1.280  0.00  0.00    -0.126 OA
ENDBRANCH   8   9
BRANCH   6  12
ATOM     12  S   UNL     1       8.625  -6.397   6.275  0.00  0.00    +0.056 S 
ATOM     13  O   UNL     1       9.997  -6.722   6.097  0.00  0.00    -0.153 OA
ATOM     14  O   UNL     1       8.155  -5.668   7.401  0.00  0.00    -0.153 OA
BRANCH  12  15
ATOM     15  N   UNL     1       7.793  -7.829   6.256  0.00  0.00    -0.204 NA
ATOM     16  H   UNL     1       7.174  -8.020   5.535  0.00  0.00    +0.144 HD
ATOM     17  H   UNL     1       7.926  -8.476   6.967  0.00  0.00    +0.144 HD
ENDBRANCH  12  15
ENDBRANCH   6  12
ENDBRANCH   1   3
BRANCH   1  18
ATOM     18  C   UNL     1       5.753  -2.534   1.504  0.00  0.00    +0.137 C 
BRANCH  18  19
ATOM     19  C   UNL     1       5.556  -1.856   0.146  0.00  0.00    +0.161 C 
BRANCH  19  25
ATOM     20  C   UNL     1       1.278   2.963   0.572  0.00  0.00    +0.001 A 
ATOM     21  C   UNL     1       2.568   3.481   0.678  0.00  0.00    +0.001 A 
ATOM     22  C   UNL     1       3.657   2.667   0.619  0.00  0.00    +0.008 A 
ATOM     23  C   UNL     1       3.482   1.283   0.448  0.00  0.00    -0.018 A 
ATOM     24  C   UNL     1       4.582   0.411   0.382  0.00  0.00    +0.014 A 
ATOM     25  C   UNL     1       4.374  -0.924   0.216  0.00  0.00    -0.017 A 
ATOM     26  C   UNL     1       3.085  -1.442   0.111  0.00  0.00    +0.007 A 
ATOM     27  C   UNL     1       1.996  -0.628   0.170  0.00  0.00    +0.009 A 
ATOM     28  C   UNL     1       2.171   0.756   0.340  0.00  0.00    -0.018 A 
ATOM     29  C   UNL     1       1.071   1.628   0.406  0.00  0.00    +0.008 A 
ENDBRANCH  19  25
BRANCH  19  30
ATOM     30  O   UNL     1       5.320  -2.850  -0.853  0.00  0.00    -0.386 OA
ATOM     31  H   UNL     1       4.537  -3.394  -0.689  0.00  0.00    +0.210 HD
ENDBRANCH  19  30
ENDBRANCH  18  19
ENDBRANCH   1  18
TORSDOF 8
