REMARK  Name = ZINC00814145
REMARK  12 active torsions:
REMARK  status: ('A' for Active; 'I' for Inactive)
REMARK    1  A    between atoms: C_1  and  C_2
REMARK    2  A    between atoms: C_3  and  C_26
REMARK    3  A    between atoms: C_4  and  C_12
REMARK    4  A    between atoms: C_6  and  C_10
REMARK    5  A    between atoms: C_7  and  N_9
REMARK    6  A    between atoms: C_14  and  O_24
REMARK    7  A    between atoms: C_15  and  O_19
REMARK    8  A    between atoms: O_19  and  C_20
REMARK    9  A    between atoms: C_20  and  C_21
REMARK   10  A    between atoms: O_24  and  C_25
REMARK   11  A    between atoms: C_26  and  O_28
REMARK   12  A    between atoms: O_28  and  C_29
REMARK                            x       y       z     vdW  Elec       q    Type
REMARK                         _______ _______ _______ _____ _____    ______ ____
ROOT
ATOM      1  C   UNL     1      -0.018   1.503   0.010  0.00  0.00    +0.087 C 
ATOM      2  C   UNL     1       0.002  -0.004   0.002  0.00  0.00    +0.115 C 
ATOM      3  C   UNL     1      -1.160  -0.670   0.004  0.00  0.00    +0.087 C 
ATOM      4  C   UNL     1      -1.196  -2.174  -0.004  0.00  0.00    +0.106 C 
ATOM      5  C   UNL     1       0.151  -2.721   0.381  0.00  0.00    +0.098 C 
ATOM      6  C   UNL     1       1.254  -1.933   0.357  0.00  0.00    +0.198 C 
ATOM      7  O   UNL     1       1.184  -0.639  -0.013  0.00  0.00    -0.445 OA
ENDROOT
BRANCH   4   8
ATOM      8  C   UNL     1      -1.555  -2.658  -1.385  0.00  0.00    -0.012 A 
ATOM      9  C   UNL     1      -0.745  -2.340  -2.460  0.00  0.00    +0.055 A 
ATOM     10  C   UNL     1      -1.073  -2.784  -3.731  0.00  0.00    +0.162 A 
ATOM     11  C   UNL     1      -2.219  -3.551  -3.922  0.00  0.00    +0.164 A 
ATOM     12  C   UNL     1      -3.026  -3.867  -2.842  0.00  0.00    +0.069 A 
ATOM     13  C   UNL     1      -2.690  -3.424  -1.575  0.00  0.00    +0.049 A 
ATOM     14 CL   UNL     1      -3.700  -3.827  -0.221  0.00  0.00    -0.083 Cl
BRANCH  10  15
ATOM     15  O   UNL     1      -0.278  -2.471  -4.788  0.00  0.00    -0.491 OA
ATOM     16  C   UNL     1       0.881  -1.680  -4.517  0.00  0.00    +0.277 C 
ENDBRANCH  10  15
BRANCH  11  17
ATOM     17  O   UNL     1      -2.545  -3.989  -5.168  0.00  0.00    -0.479 OA
BRANCH  17  18
ATOM     18  C   UNL     1      -3.734  -4.771  -5.290  0.00  0.00    +0.324 C 
BRANCH  18  19
ATOM     19  C   UNL     1      -3.932  -5.163  -6.731  0.00  0.00    +0.248 C 
ATOM     20  O   UNL     1      -3.133  -4.808  -7.572  0.00  0.00    -0.272 OA
ATOM     21  N   UNL     1      -4.997  -5.909  -7.087  0.00  0.00    -0.327 N 
ATOM     22  H   UNL     1      -5.636  -6.193  -6.415  0.00  0.00    +0.145 HD
ATOM     23  H   UNL     1      -5.125  -6.161  -8.015  0.00  0.00    +0.145 HD
ENDBRANCH  18  19
ENDBRANCH  17  18
ENDBRANCH  11  17
ENDBRANCH   4   8
BRANCH   6  24
ATOM     24  N   UNL     1       2.467  -2.465   0.715  0.00  0.00    -0.328 N 
ATOM     25  H   UNL     1       2.529  -3.396   0.980  0.00  0.00    +0.145 HD
ATOM     26  H   UNL     1       3.263  -1.911   0.702  0.00  0.00    +0.145 HD
ENDBRANCH   6  24
BRANCH   5  27
ATOM     27  C   UNL     1       0.271  -4.092   0.777  0.00  0.00    +0.101 C 
ATOM     28  N   UNL     1       0.365  -5.180   1.091  0.00  0.00    -0.191 NA
ENDBRANCH   5  27
BRANCH   3  29
ATOM     29  C   UNL     1      -2.377   0.055   0.015  0.00  0.00    +0.339 C 
ATOM     30  O   UNL     1      -2.361   1.271   0.022  0.00  0.00    -0.245 OA
BRANCH  29  31
ATOM     31  O   UNL     1      -3.554  -0.604   0.017  0.00  0.00    -0.465 OA
ATOM     32  C   UNL     1      -4.742   0.191   0.028  0.00  0.00    +0.280 C 
ENDBRANCH  29  31
ENDBRANCH   3  29
TORSDOF 9
