REMARK  Name = ZINC61918768
REMARK  5 active torsions:
REMARK  status: ('A' for Active; 'I' for Inactive)
REMARK    1  A    between atoms: C_1  and  C_2
REMARK    2  A    between atoms: C_5  and  C_17
REMARK    3  A    between atoms: C_6  and  N_8
REMARK    4  A    between atoms: C_13  and  C_16
REMARK    5  A    between atoms: N_18  and  O_19
REMARK                            x       y       z     vdW  Elec       q    Type
REMARK                         _______ _______ _______ _____ _____    ______ ____
ROOT
ATOM      1  C   UNL     1      -2.369  -0.673  -1.466  0.00  0.00    +0.065 C 
ATOM      2  C   UNL     1      -1.124  -1.027  -0.694  0.00  0.00    +0.040 A 
ATOM      3  C   UNL     1       0.114  -0.702  -1.216  0.00  0.00    +0.024 A 
ATOM      4  C   UNL     1       1.259  -1.026  -0.509  0.00  0.00    +0.016 A 
ATOM      5  C   UNL     1       1.118  -1.677   0.720  0.00  0.00    +0.058 A 
ATOM      6  C   UNL     1      -0.173  -1.974   1.184  0.00  0.00    +0.132 A 
ATOM      7  N   UNL     1      -1.235  -1.637   0.470  0.00  0.00    -0.237 NA
ENDROOT
BRANCH   6   8
ATOM      8  N   UNL     1      -0.336  -2.619   2.400  0.00  0.00    -0.312 N 
ATOM      9  C   UNL     1      -0.273  -4.093   2.436  0.00  0.00    +0.109 C 
ATOM     10  C   UNL     1      -1.357  -4.669   3.357  0.00  0.00    +0.047 C 
ATOM     11  C   UNL     1      -2.644  -3.888   3.176  0.00  0.00    +0.162 C 
ATOM     12  O   UNL     1      -2.669  -2.824   4.119  0.00  0.00    -0.375 OA
ATOM     13  C   UNL     1      -2.084  -1.617   3.795  0.00  0.00    +0.132 C 
ATOM     14  C   UNL     1      -0.557  -1.820   3.590  0.00  0.00    +0.137 C 
ATOM     15  C   UNL     1      -2.317  -0.617   4.929  0.00  0.00    +0.039 C 
ENDBRANCH   6   8
BRANCH   5  16
ATOM     16  C   UNL     1       2.308  -2.047   1.516  0.00  0.00    +0.166 C 
ATOM     17  N   UNL     1       2.162  -2.553   2.707  0.00  0.00    -0.071 NA
ATOM     18  N   UNL     1       3.576  -1.855   0.995  0.00  0.00    -0.340 N 
ATOM     19  H   UNL     1       3.685  -1.479   0.108  0.00  0.00    +0.144 HD
ATOM     20  H   UNL     1       4.357  -2.098   1.518  0.00  0.00    +0.144 HD
BRANCH  17  21
ATOM     21  O   UNL     1       3.299  -2.808   3.511  0.00  0.00    -0.408 OA
ATOM     22  H   UNL     1       3.092  -3.183   4.378  0.00  0.00    +0.328 HD
ENDBRANCH  17  21
ENDBRANCH   5  16
TORSDOF 3
