REMARK  Name = ZINC01436432
REMARK  3 active torsions:
REMARK  status: ('A' for Active; 'I' for Inactive)
REMARK    1  A    between atoms: C_11  and  O_20
REMARK    2  A    between atoms: C_15  and  N_19
REMARK    3  A    between atoms: C_16  and  C_17
REMARK                            x       y       z     vdW  Elec       q    Type
REMARK                         _______ _______ _______ _____ _____    ______ ____
ROOT
ATOM      1  C   UNL     1      -0.013   1.076   0.008  0.00  0.00    +0.000 A 
ATOM      2  C   UNL     1       1.181   1.768   0.000  0.00  0.00    +0.002 A 
ATOM      3  C   UNL     1       1.227   3.153   0.007  0.00  0.00    +0.023 A 
ATOM      4  C   UNL     1       0.008   3.832   0.023  0.00  0.00    +0.038 A 
ATOM      5  C   UNL     1      -1.196   3.118   0.030  0.00  0.00    -0.002 A 
ATOM      6  C   UNL     1      -1.234   1.740   0.017  0.00  0.00    +0.007 A 
ATOM      7  C   UNL     1      -2.291   4.139   0.045  0.00  0.00    +0.141 C 
ATOM      8  C   UNL     1      -3.124   4.011   1.291  0.00  0.00    +0.020 A 
ATOM      9  C   UNL     1      -2.603   4.412   2.508  0.00  0.00    +0.012 A 
ATOM     10  C   UNL     1      -3.357   4.301   3.659  0.00  0.00    +0.046 A 
ATOM     11  C   UNL     1      -4.644   3.784   3.598  0.00  0.00    +0.120 A 
ATOM     12  C   UNL     1      -5.169   3.381   2.381  0.00  0.00    +0.092 A 
ATOM     13  C   UNL     1      -4.409   3.493   1.224  0.00  0.00    +0.138 A 
ATOM     14  O   UNL     1      -4.936   3.093   0.041  0.00  0.00    -0.441 OA
ATOM     15  C   UNL     1      -4.403   3.521  -1.116  0.00  0.00    +0.199 C 
ATOM     16  C   UNL     1      -3.148   4.028  -1.182  0.00  0.00    +0.110 C 
ATOM     17  C   UNL     1      -1.561   5.467   0.049  0.00  0.00    +0.238 C 
ATOM     18  O   UNL     1      -2.069   6.568   0.062  0.00  0.00    -0.274 OA
ATOM     19  N   UNL     1      -0.240   5.193   0.034  0.00  0.00    -0.284 N 
ATOM     20  H   UNL     1       0.454   5.870   0.031  0.00  0.00    +0.155 HD
ENDROOT
BRANCH  15  21
ATOM     21  N   UNL     1      -5.150   3.441  -2.264  0.00  0.00    -0.328 N 
ATOM     22  H   UNL     1      -6.050   3.079  -2.233  0.00  0.00    +0.145 HD
ATOM     23  H   UNL     1      -4.779   3.745  -3.107  0.00  0.00    +0.145 HD
ENDBRANCH  15  21
BRANCH  16  24
ATOM     24  C   UNL     1      -2.631   4.466  -2.443  0.00  0.00    +0.102 C 
ATOM     25  N   UNL     1      -2.221   4.814  -3.444  0.00  0.00    -0.191 NA
ENDBRANCH  16  24
BRANCH  11  26
ATOM     26  O   UNL     1      -5.387   3.674   4.730  0.00  0.00    -0.507 OA
ATOM     27  H   UNL     1      -5.923   4.455   4.926  0.00  0.00    +0.292 HD
ENDBRANCH  11  26
TORSDOF 3
