REMARK  Name = ZINC48941976
REMARK  10 active torsions:
REMARK  status: ('A' for Active; 'I' for Inactive)
REMARK    1  A    between atoms: C_1  and  C_2
REMARK    2  A    between atoms: C_3  and  C_8
REMARK    3  A    between atoms: C_5  and  C_7
REMARK    4  A    between atoms: C_8  and  C_10
REMARK    5  A    between atoms: C_8  and  N_11
REMARK    6  A    between atoms: C_12  and  C_14
REMARK    7  A    between atoms: C_14  and  C_15
REMARK    8  A    between atoms: C_14  and  C_16
REMARK    9  A    between atoms: C_14  and  N_17
REMARK   10  A    between atoms: N_20  and  C_21
REMARK                            x       y       z     vdW  Elec       q    Type
REMARK                         _______ _______ _______ _____ _____    ______ ____
ROOT
ATOM      1  N   UNL     1       0.975  -0.964  -3.369  0.00  0.00    -0.306 N 
ATOM      2  C   UNL     1       1.510  -0.416  -4.478  0.00  0.00    +0.236 C 
ATOM      3  O   UNL     1       1.178   0.698  -4.825  0.00  0.00    -0.273 OA
ATOM      4  H   UNL     1       1.240  -1.855  -3.092  0.00  0.00    +0.149 HD
ENDROOT
BRANCH   2   5
ATOM      5  C   UNL     1       2.522  -1.187  -5.287  0.00  0.00    +0.106 C 
ATOM      6  C   UNL     1       1.795  -2.107  -6.270  0.00  0.00    +0.041 C 
ATOM      7  C   UNL     1       3.407  -0.209  -6.062  0.00  0.00    +0.041 C 
BRANCH   5   8
ATOM      8  N   UNL     1       3.353  -1.992  -4.389  0.00  0.00    -0.286 N 
ATOM      9  C   UNL     1       4.332  -2.769  -4.893  0.00  0.00    +0.300 C 
ATOM     10  O   UNL     1       4.526  -2.802  -6.093  0.00  0.00    -0.253 OA
ATOM     11  N   UNL     1       5.098  -3.510  -4.067  0.00  0.00    -0.302 N 
ATOM     12  C   UNL     1       6.162  -4.354  -4.615  0.00  0.00    +0.129 C 
ATOM     13  H   UNL     1       3.199  -1.966  -3.431  0.00  0.00    +0.151 HD
ATOM     14  H   UNL     1       4.944  -3.484  -3.110  0.00  0.00    +0.150 HD
ENDBRANCH   5   8
ENDBRANCH   2   5
BRANCH   1  15
ATOM     15  C   UNL     1      -0.008  -0.215  -2.583  0.00  0.00    +0.109 C 
ATOM     16  C   UNL     1      -1.402  -0.420  -3.180  0.00  0.00    +0.033 C 
BRANCH  15  19
ATOM     17  C   UNL     1      -0.018   1.503   0.010  0.00  0.00    +0.066 C 
ATOM     18  C   UNL     1       0.002  -0.004   0.002  0.00  0.00    +0.051 A 
ATOM     19  C   UNL     1       0.006  -0.708  -1.159  0.00  0.00    +0.032 A 
ATOM     20  S   UNL     1       0.032  -2.379  -0.531  0.00  0.00    -0.075 S 
ATOM     21  C   UNL     1       0.036  -2.009   1.111  0.00  0.00    +0.076 A 
ATOM     22  N   UNL     1       0.023  -0.699   1.122  0.00  0.00    -0.249 NA
ATOM     23  C   UNL     1       0.055  -2.955   2.284  0.00  0.00    +0.073 C 
ENDBRANCH  15  19
ENDBRANCH   1  15
TORSDOF 4
