REMARK  Name = ZINC61874797
REMARK  4 active torsions:
REMARK  status: ('A' for Active; 'I' for Inactive)
REMARK    1  A    between atoms: C_1  and  C_2
REMARK    2  A    between atoms: C_10  and  N_13
REMARK    3  A    between atoms: N_13  and  S_14
REMARK    4  A    between atoms: S_14  and  N_17
REMARK                            x       y       z     vdW  Elec       q    Type
REMARK                         _______ _______ _______ _____ _____    ______ ____
ROOT
ATOM      1  C   UNL     1       0.351   1.752  -0.019  0.00  0.00    +0.028 C 
ATOM      2  C   UNL     1       0.389   0.227  -0.141  0.00  0.00    +0.068 C 
ATOM      3  C   UNL     1      -1.034  -0.314  -0.330  0.00  0.00    +0.026 C 
ATOM      4  C   UNL     1      -0.966  -1.829  -0.518  0.00  0.00    +0.039 C 
ATOM      5  C   UNL     1      -0.159  -2.462   0.585  0.00  0.00    -0.025 A 
ATOM      6  C   UNL     1      -0.330  -3.812   0.852  0.00  0.00    +0.005 A 
ATOM      7  C   UNL     1       0.395  -4.425   1.854  0.00  0.00    +0.002 A 
ATOM      8  C   UNL     1       1.302  -3.696   2.602  0.00  0.00    +0.026 A 
ATOM      9  C   UNL     1       1.480  -2.346   2.345  0.00  0.00    +0.070 A 
ATOM     10  C   UNL     1       0.744  -1.727   1.333  0.00  0.00    +0.053 A 
ATOM     11  N   UNL     1       0.932  -0.358   1.092  0.00  0.00    -0.340 N 
ATOM     12  H   UNL     1       1.412   0.194   1.730  0.00  0.00    +0.146 HD
ENDROOT
BRANCH   9  13
ATOM     13  N   UNL     1       2.396  -1.604   3.100  0.00  0.00    -0.205 N 
ATOM     14  H   UNL     1       2.204  -0.680   3.324  0.00  0.00    +0.175 HD
BRANCH  13  15
ATOM     15  S   UNL     1       3.807  -2.304   3.611  0.00  0.00    +0.112 S 
ATOM     16  O   UNL     1       4.573  -1.275   4.223  0.00  0.00    -0.138 OA
ATOM     17  O   UNL     1       3.445  -3.494   4.298  0.00  0.00    -0.138 OA
BRANCH  15  18
ATOM     18  N   UNL     1       4.640  -2.772   2.259  0.00  0.00    -0.164 NA
ATOM     19  C   UNL     1       4.439  -4.109   1.681  0.00  0.00    +0.111 C 
ATOM     20  C   UNL     1       4.086  -3.957   0.198  0.00  0.00    +0.017 C 
ATOM     21  C   UNL     1       5.169  -3.128  -0.497  0.00  0.00    +0.003 C 
ATOM     22  C   UNL     1       5.228  -1.734   0.130  0.00  0.00    +0.017 C 
ATOM     23  C   UNL     1       5.588  -1.858   1.609  0.00  0.00    +0.111 C 
ENDBRANCH  15  18
ENDBRANCH  13  15
ENDBRANCH   9  13
TORSDOF 3
