REMARK  Name = ZINC49298270
REMARK  4 active torsions:
REMARK  status: ('A' for Active; 'I' for Inactive)
REMARK    1  A    between atoms: C_2  and  C_12
REMARK    2  A    between atoms: C_12  and  N_13
REMARK    3  A    between atoms: C_14  and  C_16
REMARK    4  A    between atoms: C_16  and  N_17
REMARK                            x       y       z     vdW  Elec       q    Type
REMARK                         _______ _______ _______ _____ _____    ______ ____
ROOT
ATOM      1  C   UNL     1       1.146   3.599   0.010  0.00  0.00    +0.139 C 
ENDROOT
BRANCH   1   3
ATOM      2  C   UNL     1      -0.017   1.383   0.010  0.00  0.00    +0.054 A 
ATOM      3  C   UNL     1       1.170   2.092   0.002  0.00  0.00    -0.026 A 
ATOM      4  C   UNL     1       2.378   1.421  -0.013  0.00  0.00    +0.024 A 
ATOM      5  C   UNL     1       2.405   0.038  -0.023  0.00  0.00    +0.063 A 
ATOM      6  C   UNL     1       1.217  -0.679  -0.016  0.00  0.00    +0.176 A 
ATOM      7  C   UNL     1       0.002  -0.004   0.002  0.00  0.00    +0.163 A 
ATOM      8  O   UNL     1      -1.174  -0.688   0.017  0.00  0.00    -0.485 OA
ATOM      9  C   UNL     1      -1.122  -2.066  -0.368  0.00  0.00    +0.270 C 
ATOM     10  C   UNL     1       0.061  -2.723   0.356  0.00  0.00    +0.270 C 
ATOM     11  O   UNL     1       1.258  -2.039  -0.029  0.00  0.00    -0.484 OA
ATOM     12 BR   UNL     1       4.060  -0.875  -0.046  0.00  0.00    -0.046 Br
ENDBRANCH   1   3
BRANCH   1  13
ATOM     13  N   UNL     1       1.151   4.080   1.394  0.00  0.00    -0.310 N 
ATOM     14  C   UNL     1       1.132   5.403   1.648  0.00  0.00    +0.231 C 
ATOM     15  O   UNL     1       1.111   6.196   0.730  0.00  0.00    -0.274 OA
ATOM     16  H   UNL     1       1.168   3.445   2.128  0.00  0.00    +0.149 HD
BRANCH  14  17
ATOM     17  C   UNL     1       1.137   5.898   3.071  0.00  0.00    +0.201 C 
BRANCH  17  18
ATOM     18  N   UNL     1       1.114   7.363   3.079  0.00  0.00    -0.291 N 
ATOM     19  C   UNL     1       1.114   8.030   4.250  0.00  0.00    +0.297 C 
ATOM     20  O   UNL     1       1.134   7.417   5.299  0.00  0.00    -0.253 OA
ATOM     21  N   UNL     1       1.092   9.378   4.257  0.00  0.00    -0.313 N 
ATOM     22  H   UNL     1       1.098   7.852   2.242  0.00  0.00    +0.151 HD
ATOM     23  H   UNL     1       1.077   9.867   3.420  0.00  0.00    +0.146 HD
ATOM     24  H   UNL     1       1.093   9.858   5.100  0.00  0.00    +0.146 HD
ENDBRANCH  17  18
ENDBRANCH  14  17
ENDBRANCH   1  13
TORSDOF 4
