REMARK  Name = ZINC01774188
REMARK  7 active torsions:
REMARK  status: ('A' for Active; 'I' for Inactive)
REMARK    1  A    between atoms: C_1  and  C_2
REMARK    2  A    between atoms: C_2  and  N_7
REMARK    3  A    between atoms: C_3  and  C_4
REMARK    4  A    between atoms: C_4  and  C_6
REMARK    5  A    between atoms: C_8  and  C_19
REMARK    6  A    between atoms: C_11  and  C_13
REMARK    7  A    between atoms: C_23  and  N_25
REMARK                            x       y       z     vdW  Elec       q    Type
REMARK                         _______ _______ _______ _____ _____    ______ ____
ROOT
ATOM      1  N   UNL     1      -2.429   4.160   0.456  0.00  0.00    -0.246 N 
ATOM      2  C   UNL     1      -2.606   5.573   0.828  0.00  0.00    +0.148 C 
ATOM      3  C   UNL     1      -4.088   5.722   1.085  0.00  0.00    +0.026 C 
ATOM      4  C   UNL     1      -4.649   4.534   0.877  0.00  0.00    +0.050 C 
ATOM      5  N   UNL     1      -3.707   3.586   0.498  0.00  0.00    -0.263 N 
ATOM      6  H   UNL     1      -3.905   2.659   0.294  0.00  0.00    +0.170 HD
ENDROOT
BRANCH   4   7
ATOM      7  C   UNL     1      -6.097   4.257   1.024  0.00  0.00    -0.003 A 
ATOM      8  C   UNL     1      -6.968   5.276   1.409  0.00  0.00    +0.010 A 
ATOM      9  C   UNL     1      -8.316   5.013   1.540  0.00  0.00    +0.001 A 
ATOM     10  C   UNL     1      -8.803   3.740   1.301  0.00  0.00    +0.000 A 
ATOM     11  C   UNL     1      -7.942   2.725   0.923  0.00  0.00    +0.001 A 
ATOM     12  C   UNL     1      -6.593   2.976   0.783  0.00  0.00    +0.010 A 
ENDBRANCH   4   7
BRANCH   2  13
ATOM     13  C   UNL     1      -2.176   6.472  -0.303  0.00  0.00    -0.019 A 
ATOM     14  C   UNL     1      -2.475   6.131  -1.609  0.00  0.00    +0.006 A 
ATOM     15  C   UNL     1      -2.086   6.957  -2.646  0.00  0.00    +0.003 A 
ATOM     16  C   UNL     1      -1.388   8.120  -2.377  0.00  0.00    +0.033 A 
ATOM     17  C   UNL     1      -1.084   8.459  -1.072  0.00  0.00    +0.127 A 
ATOM     18  C   UNL     1      -1.478   7.635  -0.035  0.00  0.00    +0.038 A 
BRANCH  17  19
ATOM     19  N   UNL     1      -0.336   9.704  -0.785  0.00  0.00    +0.056 N 
ATOM     20  O   UNL     1      -0.068  10.002   0.365  0.00  0.00    -0.126 OA
ATOM     21  O   UNL     1       0.011  10.430  -1.700  0.00  0.00    -0.126 OA
ENDBRANCH  17  19
ENDBRANCH   2  13
BRANCH   1  23
ATOM     22  C   UNL     1       0.030   4.313   0.128  0.00  0.00    +0.062 C 
ATOM     23  C   UNL     1      -1.262   3.538   0.130  0.00  0.00    +0.026 C 
ATOM     24  C   UNL     1      -1.263   2.222  -0.193  0.00  0.00    +0.066 C 
BRANCH  24  25
ATOM     25  C   UNL     1      -0.093   1.617  -0.674  0.00  0.00    +0.155 C 
ATOM     26  O   UNL     1       0.890   2.293  -0.904  0.00  0.00    -0.293 OA
ATOM     27  C   UNL     1      -0.057   0.130  -0.913  0.00  0.00    +0.091 C 
ENDBRANCH  24  25
ENDBRANCH   1  23
TORSDOF 5
