REMARK  Name = ZINC66938986
REMARK  9 active torsions:
REMARK  status: ('A' for Active; 'I' for Inactive)
REMARK    1  A    between atoms: C_1  and  C_2
REMARK    2  A    between atoms: C_5  and  O_9
REMARK    3  A    between atoms: C_7  and  C_8
REMARK    4  A    between atoms: O_9  and  C_10
REMARK    5  A    between atoms: C_10  and  C_11
REMARK    6  A    between atoms: N_13  and  N_14
REMARK    7  A    between atoms: N_14  and  C_15
REMARK    8  A    between atoms: C_15  and  C_17
REMARK    9  A    between atoms: C_15  and  C_24
REMARK                            x       y       z     vdW  Elec       q    Type
REMARK                         _______ _______ _______ _____ _____    ______ ____
ROOT
ATOM      1  N   UNL     1      -0.171  -8.083  -2.281  0.00  0.00    -0.224 NA
ATOM      2  H   UNL     1      -0.840  -8.359  -1.578  0.00  0.00    +0.145 HD
ENDROOT
BRANCH   1   5
ATOM      3  C   UNL     1      -0.597  -5.779  -2.100  0.00  0.00    +0.264 C 
ATOM      4  O   UNL     1      -0.349  -5.832  -0.914  0.00  0.00    -0.271 OA
ATOM      5  N   UNL     1      -0.524  -6.894  -2.853  0.00  0.00    -0.247 N 
ATOM      6  H   UNL     1      -0.721  -6.852  -3.802  0.00  0.00    +0.169 HD
BRANCH   3   7
ATOM      7  C   UNL     1      -0.986  -4.467  -2.731  0.00  0.00    +0.325 C 
BRANCH   7   8
ATOM      8  O   UNL     1      -0.993  -3.443  -1.735  0.00  0.00    -0.483 OA
BRANCH   8  13
ATOM      9  C   UNL     1      -2.373   1.752  -3.419  0.00  0.00    +0.044 C 
ATOM     10  C   UNL     1      -2.003   0.362  -2.968  0.00  0.00    -0.047 A 
ATOM     11  C   UNL     1      -1.977  -0.675  -3.882  0.00  0.00    +0.007 A 
ATOM     12  C   UNL     1      -1.639  -1.950  -3.472  0.00  0.00    +0.046 A 
ATOM     13  C   UNL     1      -1.325  -2.189  -2.141  0.00  0.00    +0.121 A 
ATOM     14  C   UNL     1      -1.352  -1.147  -1.227  0.00  0.00    +0.049 A 
ATOM     15  C   UNL     1      -1.686   0.128  -1.643  0.00  0.00    -0.044 A 
ATOM     16  C   UNL     1      -1.710   1.262  -0.651  0.00  0.00    +0.044 C 
ENDBRANCH   8  13
ENDBRANCH   7   8
ENDBRANCH   3   7
ENDBRANCH   1   5
BRANCH   1  17
ATOM     17  C   UNL     1      -0.015  -9.131  -3.299  0.00  0.00    +0.188 C 
BRANCH  17  18
ATOM     18  C   UNL     1       1.200  -8.838  -4.140  0.00  0.00    -0.020 A 
ATOM     19  C   UNL     1       2.267  -9.717  -4.144  0.00  0.00    +0.008 A 
ATOM     20  C   UNL     1       3.382  -9.449  -4.915  0.00  0.00    +0.038 A 
ATOM     21  C   UNL     1       3.430  -8.299  -5.685  0.00  0.00    +0.123 A 
ATOM     22  C   UNL     1       2.361  -7.420  -5.681  0.00  0.00    +0.038 A 
ATOM     23  C   UNL     1       1.245  -7.692  -4.913  0.00  0.00    +0.008 A 
ATOM     24  F   UNL     1       4.519  -8.036  -6.440  0.00  0.00    -0.205 F 
ENDBRANCH  17  18
BRANCH  17  25
ATOM     25  C   UNL     1      -1.239  -9.164  -4.178  0.00  0.00    +0.234 C 
ATOM     26  O   UNL     1      -2.151  -8.391  -3.976  0.00  0.00    -0.274 OA
ATOM     27  N   UNL     1      -1.319 -10.053  -5.188  0.00  0.00    -0.328 N 
ATOM     28  H   UNL     1      -0.590 -10.672  -5.348  0.00  0.00    +0.145 HD
ATOM     29  H   UNL     1      -2.107 -10.074  -5.753  0.00  0.00    +0.145 HD
ENDBRANCH  17  25
ENDBRANCH   1  17
TORSDOF 7
