REMARK  Name = ZINC04517250
REMARK  7 active torsions:
REMARK  status: ('A' for Active; 'I' for Inactive)
REMARK    1  A    between atoms: C_1  and  C_2
REMARK    2  A    between atoms: C_3  and  C_20
REMARK    3  A    between atoms: C_12  and  N_16
REMARK    4  A    between atoms: C_13  and  C_14
REMARK    5  A    between atoms: C_20  and  O_22
REMARK    6  A    between atoms: O_22  and  C_23
REMARK    7  A    between atoms: C_23  and  C_24
REMARK                            x       y       z     vdW  Elec       q    Type
REMARK                         _______ _______ _______ _____ _____    ______ ____
ROOT
ATOM      1  C   UNL     1       2.513   1.193  -0.016  0.00  0.00    +0.061 C 
ATOM      2  C   UNL     1       1.110   1.742   0.001  0.00  0.00    +0.019 C 
ATOM      3  C   UNL     1       0.818   3.057   0.011  0.00  0.00    +0.078 C 
ATOM      4  C   UNL     1      -0.691   3.146   0.026  0.00  0.00    +0.148 C 
ATOM      5  C   UNL     1      -1.162   3.836   1.274  0.00  0.00    +0.020 A 
ATOM      6  C   UNL     1      -1.099   3.178   2.489  0.00  0.00    +0.009 A 
ATOM      7  C   UNL     1      -1.530   3.805   3.642  0.00  0.00    +0.001 A 
ATOM      8  C   UNL     1      -2.026   5.095   3.585  0.00  0.00    +0.004 A 
ATOM      9  C   UNL     1      -2.093   5.756   2.375  0.00  0.00    +0.046 A 
ATOM     10  C   UNL     1      -1.659   5.129   1.213  0.00  0.00    +0.135 A 
ATOM     11  O   UNL     1      -1.728   5.792   0.033  0.00  0.00    -0.441 OA
ATOM     12  C   UNL     1      -1.673   5.118  -1.127  0.00  0.00    +0.199 C 
ATOM     13  C   UNL     1      -1.188   3.853  -1.199  0.00  0.00    +0.110 C 
ATOM     14  C   UNL     1      -1.140   1.703   0.016  0.00  0.00    +0.238 C 
ATOM     15  O   UNL     1      -2.280   1.292   0.019  0.00  0.00    -0.274 OA
ATOM     16  N   UNL     1      -0.011   0.966   0.007  0.00  0.00    -0.288 N 
ATOM     17  H   UNL     1       0.002  -0.004   0.002  0.00  0.00    +0.155 HD
ENDROOT
BRANCH  12  18
ATOM     18  N   UNL     1      -2.120   5.726  -2.274  0.00  0.00    -0.328 N 
ATOM     19  H   UNL     1      -2.087   5.252  -3.119  0.00  0.00    +0.145 HD
ATOM     20  H   UNL     1      -2.470   6.630  -2.238  0.00  0.00    +0.145 HD
ENDBRANCH  12  18
BRANCH  13  21
ATOM     21  C   UNL     1      -1.151   3.183  -2.464  0.00  0.00    +0.102 C 
ATOM     22  N   UNL     1      -1.122   2.651  -3.467  0.00  0.00    -0.191 NA
ENDBRANCH  13  21
BRANCH   3  23
ATOM     23  C   UNL     1       1.736   4.135   0.008  0.00  0.00    +0.339 C 
ATOM     24  O   UNL     1       2.932   3.914  -0.004  0.00  0.00    -0.245 OA
BRANCH  23  25
ATOM     25  O   UNL     1       1.284   5.406   0.020  0.00  0.00    -0.457 OA
BRANCH  25  26
ATOM     26  C   UNL     1       2.266   6.444   0.017  0.00  0.00    +0.268 C 
BRANCH  26  27
ATOM     27  C   UNL     1       1.579   7.785   0.031  0.00  0.00    -0.010 A 
ATOM     28  C   UNL     1       1.258   8.410  -1.159  0.00  0.00    +0.007 A 
ATOM     29  C   UNL     1       0.624   9.638  -1.146  0.00  0.00    +0.000 A 
ATOM     30  C   UNL     1       0.321  10.247   0.057  0.00  0.00    +0.000 A 
ATOM     31  C   UNL     1       0.647   9.624   1.248  0.00  0.00    +0.000 A 
ATOM     32  C   UNL     1       1.276   8.394   1.235  0.00  0.00    +0.007 A 
ENDBRANCH  26  27
ENDBRANCH  25  26
ENDBRANCH  23  25
ENDBRANCH   3  23
TORSDOF 6
