REMARK  Name = ZINC36525559
REMARK  15 active torsions:
REMARK  status: ('A' for Active; 'I' for Inactive)
REMARK    1  A    between atoms: C_1  and  C_2
REMARK    2  A    between atoms: C_4  and  C_15
REMARK    3  A    between atoms: C_12  and  C_13
REMARK    4  A    between atoms: C_12  and  C_14
REMARK    5  A    between atoms: N_17  and  C_18
REMARK    6  A    between atoms: N_17  and  C_19
REMARK    7  A    between atoms: C_19  and  C_21
REMARK    8  A    between atoms: C_19  and  C_30
REMARK    9  A    between atoms: C_22  and  O_29
REMARK   10  A    between atoms: C_24  and  O_28
REMARK   11  A    between atoms: C_26  and  O_27
REMARK   12  A    between atoms: N_32  and  C_33
REMARK   13  A    between atoms: C_33  and  C_34
REMARK   14  A    between atoms: C_33  and  C_35
REMARK   15  A    between atoms: C_33  and  C_36
REMARK                            x       y       z     vdW  Elec       q    Type
REMARK                         _______ _______ _______ _____ _____    ______ ____
ROOT
ATOM      1  C   UNL     1      -0.967  -2.691  -3.977  0.00  0.00    +0.199 C 
ENDROOT
BRANCH   1   2
ATOM      2  C   UNL     1      -1.303  -1.780  -5.130  0.00  0.00    +0.065 A 
ATOM      3  C   UNL     1      -0.286  -1.178  -5.856  0.00  0.00    +0.129 A 
ATOM      4  C   UNL     1      -0.595  -0.340  -6.917  0.00  0.00    +0.091 A 
ATOM      5  C   UNL     1      -1.920  -0.105  -7.253  0.00  0.00    +0.124 A 
ATOM      6  C   UNL     1      -2.936  -0.708  -6.527  0.00  0.00    +0.091 A 
ATOM      7  C   UNL     1      -2.627  -1.549  -5.468  0.00  0.00    +0.129 A 
BRANCH   7   8
ATOM      8  O   UNL     1      -3.623  -2.144  -4.760  0.00  0.00    -0.506 OA
ATOM      9  H   UNL     1      -3.932  -1.625  -4.004  0.00  0.00    +0.292 HD
ENDBRANCH   7   8
BRANCH   5  10
ATOM     10  O   UNL     1      -2.222   0.717  -8.292  0.00  0.00    -0.507 OA
ATOM     11  H   UNL     1      -2.293   0.264  -9.143  0.00  0.00    +0.292 HD
ENDBRANCH   5  10
BRANCH   3  12
ATOM     12  O   UNL     1       1.012  -1.409  -5.528  0.00  0.00    -0.506 OA
ATOM     13  H   UNL     1       1.429  -2.114  -6.042  0.00  0.00    +0.292 HD
ENDBRANCH   3  12
ENDBRANCH   1   2
BRANCH   1  16
ATOM     14  C   UNL     1      -0.931  -1.759  -1.726  0.00  0.00    +0.220 C 
ATOM     15  O   UNL     1      -1.968  -2.343  -1.496  0.00  0.00    -0.275 OA
ATOM     16  N   UNL     1      -0.318  -1.917  -2.916  0.00  0.00    -0.289 N 
ATOM     17  C   UNL     1       0.996  -1.313  -3.149  0.00  0.00    +0.133 C 
BRANCH  14  20
ATOM     18  C   UNL     1      -1.494   1.029   0.530  0.00  0.00    +0.008 C 
ATOM     19  C   UNL     1      -1.357  -0.482   0.376  0.00  0.00    +0.001 C 
ATOM     20  C   UNL     1      -0.326  -0.856  -0.680  0.00  0.00    +0.079 C 
ATOM     21  C   UNL     1       0.935  -1.479  -0.093  0.00  0.00    +0.017 C 
ATOM     22  C   UNL     1       0.671  -2.146   1.259  0.00  0.00    -0.004 C 
ATOM     23  C   UNL     1      -0.760  -2.684   1.413  0.00  0.00    +0.008 C 
ATOM     24  C   UNL     1      -1.127  -1.203   1.699  0.00  0.00    -0.001 C 
ATOM     25  C   UNL     1       0.262  -1.109   2.326  0.00  0.00    -0.029 C 
ATOM     26  C   UNL     1       0.992   0.227   2.228  0.00  0.00    +0.011 C 
ATOM     27  C   UNL     1       0.330  -1.670   3.759  0.00  0.00    +0.011 C 
ENDBRANCH  14  20
ENDBRANCH   1  16
BRANCH   1  28
ATOM     28  C   UNL     1      -0.035  -3.776  -4.449  0.00  0.00    +0.239 C 
ATOM     29  O   UNL     1       1.064  -3.892  -3.948  0.00  0.00    -0.273 OA
ATOM     30  N   UNL     1      -0.422  -4.619  -5.427  0.00  0.00    -0.309 N 
ATOM     31  H   UNL     1      -1.300  -4.527  -5.827  0.00  0.00    +0.149 HD
BRANCH  30  32
ATOM     32  C   UNL     1       0.485  -5.674  -5.886  0.00  0.00    +0.026 C 
ATOM     33  C   UNL     1       0.825  -6.599  -4.715  0.00  0.00    +0.031 C 
ATOM     34  C   UNL     1      -0.193  -6.483  -6.994  0.00  0.00    +0.031 C 
ATOM     35  C   UNL     1       1.769  -5.043  -6.428  0.00  0.00    +0.031 C 
ENDBRANCH  30  32
ENDBRANCH   1  28
TORSDOF 8
