REMARK  Name = ZINC49534913
REMARK  4 active torsions:
REMARK  status: ('A' for Active; 'I' for Inactive)
REMARK    1  A    between atoms: C_7  and  N_14
REMARK    2  A    between atoms: C_8  and  C_11
REMARK    3  A    between atoms: N_14  and  C_15
REMARK    4  A    between atoms: C_15  and  C_16
REMARK                            x       y       z     vdW  Elec       q    Type
REMARK                         _______ _______ _______ _____ _____    ______ ____
ROOT
ATOM      1  C   UNL     1       2.699   0.510   0.618  0.00  0.00    +0.001 A 
ATOM      2  C   UNL     1       3.661   0.294   1.600  0.00  0.00    +0.002 A 
ATOM      3  C   UNL     1       3.821  -0.934   2.168  0.00  0.00    +0.026 A 
ATOM      4  C   UNL     1       3.007  -2.003   1.762  0.00  0.00    +0.048 A 
ATOM      5  C   UNL     1       2.030  -1.780   0.763  0.00  0.00    +0.020 A 
ATOM      6  C   UNL     1       1.890  -0.505   0.199  0.00  0.00    +0.012 A 
ATOM      7  C   UNL     1       1.208  -2.857   0.352  0.00  0.00    +0.052 A 
ATOM      8  C   UNL     1       1.410  -4.105   0.966  0.00  0.00    +0.100 A 
ATOM      9  C   UNL     1       2.406  -4.233   1.950  0.00  0.00    +0.100 A 
ATOM     10  N   UNL     1       3.149  -3.219   2.309  0.00  0.00    -0.360 N 
ATOM     11  H   UNL     1       3.825  -3.351   2.992  0.00  0.00    +0.165 HD
ENDROOT
BRANCH   8  12
ATOM     12  C   UNL     1       0.590  -5.261   0.585  0.00  0.00    +0.390 C 
ATOM     13  O   UNL     1       0.691  -6.314   1.202  0.00  0.00    -0.240 OA
ATOM     14  O   UNL     1      -0.196  -5.173  -0.349  0.00  0.00    -0.240 OA
ENDBRANCH   8  12
BRANCH   7  15
ATOM     15  N   UNL     1       0.244  -2.688  -0.614  0.00  0.00    -0.337 N 
ATOM     16  H   UNL     1       0.441  -2.906  -1.539  0.00  0.00    +0.147 HD
BRANCH  15  17
ATOM     17  C   UNL     1      -1.080  -2.179  -0.247  0.00  0.00    +0.164 C 
BRANCH  17  18
ATOM     18  C   UNL     1      -2.126  -3.210  -0.586  0.00  0.00    +0.095 A 
ATOM     19  N   UNL     1      -2.594  -4.173   0.168  0.00  0.00    -0.251 NA
ATOM     20  C   UNL     1      -3.517  -5.003  -0.274  0.00  0.00    +0.119 A 
ATOM     21  C   UNL     1      -3.959  -4.813  -1.543  0.00  0.00    +0.066 A 
ATOM     22  S   UNL     1      -2.982  -3.397  -2.023  0.00  0.00    -0.079 S 
ENDBRANCH  17  18
ENDBRANCH  15  17
ENDBRANCH   7  15
TORSDOF 4
