REMARK  Name = ZINC12358867
REMARK  9 active torsions:
REMARK  status: ('A' for Active; 'I' for Inactive)
REMARK    1  A    between atoms: C_1  and  C_2
REMARK    2  A    between atoms: C_2  and  C_22
REMARK    3  A    between atoms: C_3  and  C_20
REMARK    4  A    between atoms: C_3  and  O_21
REMARK    5  A    between atoms: C_4  and  C_18
REMARK    6  A    between atoms: C_4  and  O_19
REMARK    7  A    between atoms: C_5  and  C_7
REMARK    8  A    between atoms: C_5  and  N_8
REMARK    9  A    between atoms: C_22  and  O_23
REMARK                            x       y       z     vdW  Elec       q    Type
REMARK                         _______ _______ _______ _____ _____    ______ ____
ROOT
ATOM      1  C   UNL     1       1.022   5.015  -3.028  0.00  0.00    +0.047 C 
ATOM      2  C   UNL     1       1.502   3.910  -2.084  0.00  0.00    +0.123 C 
ATOM      3  C   UNL     1       2.960   4.177  -1.664  0.00  0.00    +0.127 C 
ATOM      4  C   UNL     1       2.899   4.270  -0.120  0.00  0.00    +0.142 C 
ATOM      5  C   UNL     1       1.577   3.527   0.198  0.00  0.00    +0.179 C 
ATOM      6  O   UNL     1       0.705   3.909  -0.887  0.00  0.00    -0.340 OA
ATOM      7  C   UNL     1       1.003   3.991   1.539  0.00  0.00    +0.070 C 
ATOM      8  C   UNL     1       2.829   5.729   0.336  0.00  0.00    +0.049 C 
ATOM      9  C   UNL     1       3.862   3.018  -2.095  0.00  0.00    +0.047 C 
ENDROOT
BRANCH   5  10
ATOM     10  N   UNL     1       1.788   2.077   0.203  0.00  0.00    -0.268 N 
ATOM     11  C   UNL     1       3.019   1.570  -0.116  0.00  0.00    +0.114 A 
ATOM     12  C   UNL     1       3.214   0.234  -0.110  0.00  0.00    +0.098 A 
ATOM     13  C   UNL     1       2.134  -0.618   0.227  0.00  0.00    +0.268 A 
ATOM     14  O   UNL     1       2.285  -1.827   0.239  0.00  0.00    -0.267 OA
ATOM     15  N   UNL     1       0.937  -0.079   0.535  0.00  0.00    -0.274 N 
ATOM     16  H   UNL     1       0.170  -0.674   0.775  0.00  0.00    +0.173 HD
ATOM     17  C   UNL     1       0.771   1.256   0.522  0.00  0.00    +0.332 A 
ATOM     18  O   UNL     1      -0.314   1.728   0.802  0.00  0.00    -0.246 OA
ATOM     19 BR   UNL     1       4.906  -0.490  -0.547  0.00  0.00    -0.043 Br
ENDBRANCH   5  10
BRANCH   4  20
ATOM     20  O   UNL     1       4.014   3.604   0.476  0.00  0.00    -0.381 OA
ATOM     21  H   UNL     1       4.007   3.613   1.442  0.00  0.00    +0.210 HD
ENDBRANCH   4  20
BRANCH   3  22
ATOM     22  O   UNL     1       3.424   5.408  -2.222  0.00  0.00    -0.383 OA
ATOM     23  H   UNL     1       3.427   5.425  -3.189  0.00  0.00    +0.210 HD
ENDBRANCH   3  22
BRANCH   2  24
ATOM     24  C   UNL     1       1.397   2.551  -2.779  0.00  0.00    +0.193 C 
BRANCH  24  25
ATOM     25  O   UNL     1       0.063   2.360  -3.254  0.00  0.00    -0.392 OA
ATOM     26  H   UNL     1      -0.077   1.517  -3.706  0.00  0.00    +0.210 HD
ENDBRANCH  24  25
ENDBRANCH   2  24
TORSDOF 5
