REMARK  Name = ZINC28631330
REMARK  13 active torsions:
REMARK  status: ('A' for Active; 'I' for Inactive)
REMARK    1  A    between atoms: C_1  and  C_2
REMARK    2  A    between atoms: C_4  and  O_5
REMARK    3  A    between atoms: C_14  and  C_16
REMARK    4  A    between atoms: C_16  and  C_18
REMARK    5  A    between atoms: C_16  and  N_23
REMARK    6  A    between atoms: C_18  and  C_19
REMARK    7  A    between atoms: C_19  and  C_20
REMARK    8  A    between atoms: C_24  and  C_26
REMARK    9  A    between atoms: C_26  and  C_28
REMARK   10  A    between atoms: C_26  and  N_29
REMARK   11  A    between atoms: C_30  and  C_32
REMARK   12  A    between atoms: C_32  and  C_33
REMARK   13  A    between atoms: C_33  and  C_34
REMARK                            x       y       z     vdW  Elec       q    Type
REMARK                         _______ _______ _______ _____ _____    ______ ____
ROOT
ATOM      1  C   UNL     1      -4.920   3.837  -0.145  0.00  0.00    +0.160 C 
ENDROOT
BRANCH   1  14
ATOM      2  C   UNL     1       3.704   1.712  -0.638  0.00  0.00    +0.045 C 
ATOM      3  C   UNL     1       2.486   1.114   0.017  0.00  0.00    -0.033 A 
ATOM      4  C   UNL     1       2.545  -0.101   0.623  0.00  0.00    +0.091 A 
ATOM      5  C   UNL     1       1.391  -0.639   1.229  0.00  0.00    +0.285 A 
ATOM      6  O   UNL     1       0.221   0.018   1.225  0.00  0.00    -0.425 OA
ATOM      7  C   UNL     1       0.094   1.229   0.641  0.00  0.00    +0.141 A 
ATOM      8  C   UNL     1       1.206   1.826   0.017  0.00  0.00    +0.021 A 
ATOM      9  C   UNL     1       1.080   3.080  -0.590  0.00  0.00    +0.013 A 
ATOM     10  C   UNL     1      -0.122   3.726  -0.571  0.00  0.00    +0.024 A 
ATOM     11  C   UNL     1      -1.229   3.138   0.040  0.00  0.00    +0.037 A 
ATOM     12  C   UNL     1      -1.122   1.895   0.646  0.00  0.00    +0.070 A 
ATOM     13  N   UNL     1      -2.454   3.807   0.046  0.00  0.00    -0.284 N 
ATOM     14  C   UNL     1      -3.603   3.110  -0.048  0.00  0.00    +0.238 C 
ATOM     15  O   UNL     1      -3.579   1.898  -0.055  0.00  0.00    -0.273 OA
ATOM     16  H   UNL     1      -2.480   4.904   0.128  0.00  0.00    +0.155 HD
BRANCH   5  17
ATOM     17  O   UNL     1       1.458  -1.729   1.769  0.00  0.00    -0.480 OA
ATOM     18  H   UNL     1       0.566  -2.162   2.246  0.00  0.00    +0.295 HD
ENDBRANCH   5  17
ENDBRANCH   1  14
BRANCH   1  19
ATOM     19  N   UNL     1      -6.010   2.864  -0.237  0.00  0.00    -0.302 N 
ATOM     20  C   UNL     1      -7.252   3.202   0.164  0.00  0.00    +0.234 C 
ATOM     21  O   UNL     1      -7.466   4.314   0.600  0.00  0.00    -0.274 OA
ATOM     22  H   UNL     1      -5.816   1.856  -0.632  0.00  0.00    +0.150 HD
BRANCH  20  23
ATOM     23  C   UNL     1      -8.373   2.201   0.070  0.00  0.00    +0.156 C 
ATOM     24  C   UNL     1      -8.558   1.778  -1.389  0.00  0.00    +0.038 C 
BRANCH  23  25
ATOM     25  N   UNL     1      -9.612   2.807   0.564  0.00  0.00    -0.304 N 
ATOM     26  C   UNL     1     -10.597   2.026   1.050  0.00  0.00    +0.214 C 
ATOM     27  O   UNL     1     -10.458   0.822   1.079  0.00  0.00    -0.276 OA
ATOM     28  H   UNL     1      -9.738   3.899   0.537  0.00  0.00    +0.149 HD
BRANCH  26  29
ATOM     29  C   UNL     1     -11.872   2.650   1.558  0.00  0.00    +0.107 C 
BRANCH  29  30
ATOM     30  C   UNL     1     -12.816   1.552   2.050  0.00  0.00    +0.134 C 
BRANCH  30  31
ATOM     31  C   UNL     1     -14.091   2.176   2.558  0.00  0.00    +0.356 C 
ATOM     32  O   UNL     1     -14.229   3.376   2.529  0.00  0.00    -0.246 OA
ATOM     33  O   UNL     1     -15.072   1.398   3.042  0.00  0.00    -0.246 OA
ENDBRANCH  30  31
ENDBRANCH  29  30
ENDBRANCH  26  29
ENDBRANCH  23  25
ENDBRANCH  20  23
ENDBRANCH   1  19
BRANCH   1  34
ATOM     34  C   UNL     1      -4.921   4.724  -1.392  0.00  0.00    +0.043 C 
BRANCH  34  35
ATOM     35  C   UNL     1      -6.205   5.556  -1.425  0.00  0.00    +0.127 C 
BRANCH  35  36
ATOM     36  C   UNL     1      -6.207   6.429  -2.653  0.00  0.00    +0.356 C 
ATOM     37  O   UNL     1      -5.277   6.390  -3.423  0.00  0.00    -0.246 OA
ATOM     38  O   UNL     1      -7.242   7.250  -2.891  0.00  0.00    -0.246 OA
ENDBRANCH  35  36
ENDBRANCH  34  35
ENDBRANCH   1  34
TORSDOF 11
