REMARK  Name = ZINC07837370
REMARK  7 active torsions:
REMARK  status: ('A' for Active; 'I' for Inactive)
REMARK    1  A    between atoms: C_1  and  C_2
REMARK    2  A    between atoms: C_8  and  C_10
REMARK    3  A    between atoms: C_10  and  C_12
REMARK    4  A    between atoms: C_10  and  S_13
REMARK    5  A    between atoms: S_13  and  C_14
REMARK    6  A    between atoms: C_17  and  C_19
REMARK    7  A    between atoms: C_26  and  C_29
REMARK                            x       y       z     vdW  Elec       q    Type
REMARK                         _______ _______ _______ _____ _____    ______ ____
ROOT
ATOM      1  C   UNL     1      -0.417   2.636   7.115  0.00  0.00    +0.278 A 
ATOM      2  N   UNL     1       0.752   2.164   6.751  0.00  0.00    -0.101 NA
ATOM      3  N   UNL     1       0.741   1.917   5.489  0.00  0.00    -0.106 NA
ATOM      4  C   UNL     1      -0.438   2.221   4.995  0.00  0.00    +0.256 A 
ATOM      5  O   UNL     1      -1.193   2.688   6.015  0.00  0.00    -0.410 OA
ENDROOT
BRANCH   4   6
ATOM      6  C   UNL     1      -0.856   2.085   3.592  0.00  0.00    +0.076 A 
ATOM      7  C   UNL     1      -0.136   1.624   2.510  0.00  0.00    +0.024 A 
ATOM      8  C   UNL     1      -0.733   1.581   1.260  0.00  0.00    -0.036 A 
ATOM      9  C   UNL     1      -2.029   2.007   1.181  0.00  0.00    -0.006 A 
ATOM     10  S   UNL     1      -2.430   2.475   2.843  0.00  0.00    -0.088 S 
ATOM     11  C   UNL     1      -2.897   2.062  -0.035  0.00  0.00    +0.043 C 
ATOM     12  C   UNL     1      -2.239   1.218  -1.137  0.00  0.00    +0.009 C 
ATOM     13  C   UNL     1      -0.758   1.595  -1.226  0.00  0.00    -0.009 C 
ATOM     14  C   UNL     1      -0.013   1.086   0.008  0.00  0.00    +0.039 C 
ATOM     15  C   UNL     1      -0.149   0.967  -2.482  0.00  0.00    +0.008 C 
ENDBRANCH   4   6
BRANCH   1  16
ATOM     16  S   UNL     1      -0.884   3.120   8.744  0.00  0.00    -0.053 S 
BRANCH  16  17
ATOM     17  C   UNL     1       0.655   2.772   9.629  0.00  0.00    +0.139 C 
ATOM     18  C   UNL     1       0.930   1.267   9.601  0.00  0.00    +0.029 C 
BRANCH  17  26
ATOM     19  C   UNL     1      -0.133   4.886  16.232  0.00  0.00    +0.089 C 
ATOM     20  C   UNL     1       0.733   4.562  15.042  0.00  0.00    +0.136 A 
ATOM     21  C   UNL     1       0.314   4.130  13.831  0.00  0.00    +0.091 A 
ATOM     22  C   UNL     1       1.515   3.979  13.087  0.00  0.00    +0.168 A 
ATOM     23  N   UNL     1       2.488   4.315  13.892  0.00  0.00    -0.063 NA
ATOM     24  O   UNL     1       2.070   4.645  14.977  0.00  0.00    -0.358 OA
ATOM     25  N   UNL     1       1.632   3.552  11.764  0.00  0.00    -0.267 N 
ATOM     26  C   UNL     1       0.529   3.233  11.058  0.00  0.00    +0.232 C 
ATOM     27  O   UNL     1      -0.566   3.317  11.573  0.00  0.00    -0.274 OA
ATOM     28  H   UNL     1       2.507   3.485  11.352  0.00  0.00    +0.156 HD
ENDBRANCH  17  26
ENDBRANCH  16  17
ENDBRANCH   1  16
TORSDOF 4
