REMARK  Name = ZINC09970416
REMARK  16 active torsions:
REMARK  status: ('A' for Active; 'I' for Inactive)
REMARK    1  A    between atoms: C_1  and  C_2
REMARK    2  A    between atoms: C_11  and  O_13
REMARK    3  A    between atoms: O_13  and  P_14
REMARK    4  A    between atoms: P_14  and  O_16
REMARK    5  A    between atoms: O_16  and  C_17
REMARK    6  A    between atoms: C_17  and  C_33
REMARK    7  A    between atoms: C_18  and  C_31
REMARK    8  A    between atoms: C_18  and  O_32
REMARK    9  A    between atoms: C_19  and  C_29
REMARK   10  A    between atoms: C_19  and  O_30
REMARK   11  A    between atoms: C_20  and  C_27
REMARK   12  A    between atoms: C_20  and  O_28
REMARK   13  A    between atoms: C_21  and  C_25
REMARK   14  A    between atoms: C_21  and  O_26
REMARK   15  A    between atoms: C_22  and  C_23
REMARK   16  A    between atoms: C_22  and  O_24
REMARK                            x       y       z     vdW  Elec       q    Type
REMARK                         _______ _______ _______ _____ _____    ______ ____
ROOT
ATOM      1  C   UNL     1      -0.134  -7.844   2.124  0.00  0.00    +0.141 C 
ATOM      2  C   UNL     1      -0.661  -7.377   3.474  0.00  0.00    +0.126 C 
ATOM      3  C   UNL     1      -2.135  -7.009   3.438  0.00  0.00    +0.125 C 
ATOM      4  C   UNL     1      -3.006  -8.063   2.777  0.00  0.00    +0.125 C 
ATOM      5  C   UNL     1      -2.454  -8.646   1.489  0.00  0.00    +0.125 C 
ATOM      6  C   UNL     1      -0.973  -8.982   1.561  0.00  0.00    +0.126 C 
ATOM      7  C   UNL     1      -0.471  -9.308   0.144  0.00  0.00    +0.047 C 
ATOM      8  C   UNL     1      -2.741  -7.727   0.298  0.00  0.00    +0.047 C 
ATOM      9  C   UNL     1      -4.385  -7.442   2.481  0.00  0.00    +0.047 C 
ATOM     10  C   UNL     1      -2.335  -5.639   2.784  0.00  0.00    +0.047 C 
ATOM     11  C   UNL     1       0.145  -6.143   3.916  0.00  0.00    +0.047 C 
ATOM     12  C   UNL     1       1.305  -8.362   2.324  0.00  0.00    +0.048 C 
ENDROOT
BRANCH   6  13
ATOM     13  O   UNL     1      -0.793 -10.153   2.372  0.00  0.00    -0.383 OA
ATOM     14  H   UNL     1      -1.298 -10.920   2.072  0.00  0.00    +0.210 HD
ENDBRANCH   6  13
BRANCH   5  15
ATOM     15  O   UNL     1      -3.162  -9.884   1.238  0.00  0.00    -0.383 OA
ATOM     16  H   UNL     1      -4.122  -9.782   1.174  0.00  0.00    +0.210 HD
ENDBRANCH   5  15
BRANCH   4  17
ATOM     17  O   UNL     1      -3.216  -9.137   3.714  0.00  0.00    -0.383 OA
ATOM     18  H   UNL     1      -3.568  -8.851   4.567  0.00  0.00    +0.210 HD
ENDBRANCH   4  17
BRANCH   3  19
ATOM     19  O   UNL     1      -2.579  -6.883   4.811  0.00  0.00    -0.383 OA
ATOM     20  H   UNL     1      -3.504  -6.616   4.902  0.00  0.00    +0.210 HD
ENDBRANCH   3  19
BRANCH   2  21
ATOM     21  O   UNL     1      -0.455  -8.409   4.449  0.00  0.00    -0.383 OA
ATOM     22  H   UNL     1      -0.767  -8.181   5.335  0.00  0.00    +0.210 HD
ENDBRANCH   2  21
BRANCH   1  23
ATOM     23  O   UNL     1      -0.078  -6.755   1.201  0.00  0.00    -0.263 OA
BRANCH  23  24
ATOM     24  P   UNL     1       1.177  -6.497   0.226  0.00  0.00    +0.562 P 
ATOM     25  O   UNL     1       2.413  -6.381   1.031  0.00  0.00    -0.213 OA
ATOM     26  O   UNL     1       1.319  -7.728  -0.802  0.00  0.00    -0.105 OA
BRANCH  24  27
ATOM     27  O   UNL     1       0.943  -5.133  -0.599  0.00  0.00    -0.402 OA
BRANCH  27  38
ATOM     28  C   UNL     1       6.376  -2.739  -3.253  0.00  0.00    +0.045 C 
ATOM     29  C   UNL     1       5.282  -3.630  -3.782  0.00  0.00    -0.033 A 
ATOM     30  C   UNL     1       5.317  -4.093  -5.059  0.00  0.00    +0.096 A 
ATOM     31  C   UNL     1       4.279  -4.922  -5.533  0.00  0.00    +0.337 A 
ATOM     32  O   UNL     1       4.322  -5.330  -6.679  0.00  0.00    -0.245 OA
ATOM     33  O   UNL     1       3.245  -5.272  -4.753  0.00  0.00    -0.422 OA
ATOM     34  C   UNL     1       3.150  -4.846  -3.475  0.00  0.00    +0.143 A 
ATOM     35  C   UNL     1       4.151  -4.016  -2.937  0.00  0.00    +0.021 A 
ATOM     36  C   UNL     1       4.057  -3.574  -1.613  0.00  0.00    +0.015 A 
ATOM     37  C   UNL     1       2.991  -3.948  -0.846  0.00  0.00    +0.047 A 
ATOM     38  C   UNL     1       1.997  -4.770  -1.373  0.00  0.00    +0.136 A 
ATOM     39  C   UNL     1       2.074  -5.218  -2.682  0.00  0.00    +0.093 A 
ENDBRANCH  27  38
ENDBRANCH  24  27
ENDBRANCH  23  24
ENDBRANCH   1  23
TORSDOF 9
