REMARK  Name = ZINC65265802
REMARK  6 active torsions:
REMARK  status: ('A' for Active; 'I' for Inactive)
REMARK    1  A    between atoms: C_1  and  O_2
REMARK    2  A    between atoms: O_2  and  C_3
REMARK    3  A    between atoms: C_3  and  C_4
REMARK    4  A    between atoms: C_4  and  N_5
REMARK    5  A    between atoms: C_21  and  C_23
REMARK    6  A    between atoms: C_26  and  C_29
REMARK                            x       y       z     vdW  Elec       q    Type
REMARK                         _______ _______ _______ _____ _____    ______ ____
ROOT
ATOM      1  N   UNL     1      -0.776  -2.556  -1.119  0.00  0.00    -0.373 N 
ATOM      2  C   UNL     1      -1.044  -3.820  -1.057  0.00  0.00    +0.095 C 
ATOM      3  N   UNL     1      -0.054  -4.762  -0.913  0.00  0.00    -0.303 N 
ATOM      4  C   UNL     1       0.319  -5.154   0.369  0.00  0.00    +0.037 A 
ATOM      5  C   UNL     1       1.663  -5.262   0.698  0.00  0.00    +0.023 A 
ATOM      6  C   UNL     1       2.038  -5.666   1.964  0.00  0.00    +0.002 A 
ATOM      7  C   UNL     1       1.062  -5.962   2.898  0.00  0.00    +0.000 A 
ATOM      8  C   UNL     1      -0.272  -5.849   2.574  0.00  0.00    +0.007 A 
ATOM      9  C   UNL     1      -0.668  -5.436   1.305  0.00  0.00    -0.012 A 
ATOM     10  C   UNL     1      -2.150  -5.310   1.062  0.00  0.00    +0.119 C 
ATOM     11  N   UNL     1      -2.519  -5.571  -0.337  0.00  0.00    -0.299 NA
ATOM     12  C   UNL     1      -2.442  -4.329  -1.132  0.00  0.00    +0.091 C 
ATOM     13  C   UNL     1      -2.883  -4.594  -2.582  0.00  0.00    +0.050 C 
ATOM     14  C   UNL     1      -4.421  -4.466  -2.501  0.00  0.00    +0.110 C 
ATOM     15  N   UNL     1      -4.732  -3.682  -1.296  0.00  0.00    -0.297 N 
ATOM     16  C   UNL     1      -3.467  -3.299  -0.638  0.00  0.00    +0.137 C 
ATOM     17  C   UNL     1      -5.969  -3.365  -0.863  0.00  0.00    +0.246 C 
ATOM     18  O   UNL     1      -6.108  -2.711   0.148  0.00  0.00    -0.273 OA
ATOM     19  H   UNL     1      -1.495  -1.912  -1.217  0.00  0.00    +0.161 HD
ATOM     20  H   UNL     1      -1.940  -6.295  -0.735  0.00  0.00    +0.123 HD
ATOM     21  H   UNL     1       0.377  -5.147  -1.692  0.00  0.00    +0.153 HD
ENDROOT
BRANCH  17  22
ATOM     22  C   UNL     1      -7.178  -3.825  -1.636  0.00  0.00    +0.238 C 
ATOM     23  C   UNL     1      -7.459  -2.890  -2.799  0.00  0.00    +0.040 C 
ATOM     24  C   UNL     1      -8.684  -2.400  -2.530  0.00  0.00    +0.092 C 
ATOM     25  N   UNL     1      -9.159  -2.921  -1.369  0.00  0.00    -0.153 NA
ATOM     26  N   UNL     1      -8.393  -3.717  -0.813  0.00  0.00    -0.170 NA
BRANCH  24  27
ATOM     27  C   UNL     1      -9.412  -1.427  -3.382  0.00  0.00    +0.002 A 
ATOM     28  C   UNL     1      -8.834  -0.959  -4.560  0.00  0.00    +0.010 A 
ATOM     29  C   UNL     1      -9.516  -0.054  -5.349  0.00  0.00    +0.001 A 
ATOM     30  C   UNL     1     -10.772   0.386  -4.972  0.00  0.00    +0.000 A 
ATOM     31  C   UNL     1     -11.351  -0.076  -3.804  0.00  0.00    +0.001 A 
ATOM     32  C   UNL     1     -10.680  -0.984  -3.010  0.00  0.00    +0.010 A 
ENDBRANCH  24  27
ENDBRANCH  17  22
BRANCH   1  33
ATOM     33  C   UNL     1       0.613  -2.097  -1.041  0.00  0.00    +0.141 C 
BRANCH  33  34
ATOM     34  C   UNL     1       0.652  -0.570  -1.138  0.00  0.00    +0.180 C 
BRANCH  34  36
ATOM     35  C   UNL     1      -0.017   1.425   0.010  0.00  0.00    +0.194 C 
ATOM     36  O   UNL     1       0.002  -0.004   0.002  0.00  0.00    -0.381 OA
ENDBRANCH  34  36
ENDBRANCH  33  34
ENDBRANCH   1  33
TORSDOF 5
