REMARK  Name = ZINC15830202
REMARK  4 active torsions:
REMARK  status: ('A' for Active; 'I' for Inactive)
REMARK    1  A    between atoms: C_4  and  O_27
REMARK    2  A    between atoms: C_5  and  C_7
REMARK    3  A    between atoms: C_10  and  C_19
REMARK    4  A    between atoms: C_24  and  O_25
REMARK                            x       y       z     vdW  Elec       q    Type
REMARK                         _______ _______ _______ _____ _____    ______ ____
ROOT
ATOM      1  C   UNL     1      -3.871   5.926  -0.313  0.00  0.00    +0.095 C 
ATOM      2  C   UNL     1      -2.486   5.384   0.061  0.00  0.00    +0.079 C 
ATOM      3  C   UNL     1      -2.518   3.881   0.046  0.00  0.00    +0.050 C 
ATOM      4  N   UNL     1      -3.604   3.204   0.052  0.00  0.00    -0.266 NA
ATOM      5  C   UNL     1      -4.938   3.795   0.058  0.00  0.00    +0.109 C 
ATOM      6  N   UNL     1      -4.875   5.200   0.483  0.00  0.00    -0.286 NA
ATOM      7  C   UNL     1      -5.839   3.016   1.022  0.00  0.00    +0.027 C 
ATOM      8  C   UNL     1      -5.963   1.569   0.539  0.00  0.00    -0.079 C 
ATOM      9  N   UNL     1      -6.535   1.550  -0.814  0.00  0.00    +0.379 N 
ATOM     10  C   UNL     1      -5.668   2.255  -1.767  0.00  0.00    -0.079 C 
ATOM     11  C   UNL     1      -5.536   3.721  -1.351  0.00  0.00    +0.027 C 
ATOM     12  H   UNL     1      -4.600   5.242   1.547  0.00  0.00    +0.125 HD
ATOM     13  H   UNL     1      -6.651   0.509  -1.148  0.00  0.00    -0.086 HD
ATOM     14  H   UNL     1      -7.518   2.044  -0.803  0.00  0.00    -0.086 HD
ENDROOT
BRANCH   3  15
ATOM     15  C   UNL     1      -1.237   3.153   0.030  0.00  0.00    +0.039 A 
ATOM     16  C   UNL     1      -0.029   3.856   0.023  0.00  0.00    +0.033 A 
ATOM     17  C   UNL     1       1.166   3.167   0.008  0.00  0.00    +0.042 A 
ATOM     18  C   UNL     1       1.175   1.781   0.000  0.00  0.00    +0.023 A 
ATOM     19  C   UNL     1      -0.013   1.076   0.008  0.00  0.00    +0.047 A 
ATOM     20  C   UNL     1      -1.223   1.752   0.017  0.00  0.00    +0.126 A 
ATOM     21 CL   UNL     1       2.666   4.041  -0.002  0.00  0.00    -0.084 Cl
BRANCH  20  22
ATOM     22  O   UNL     1      -2.390   1.059   0.019  0.00  0.00    -0.506 OA
ATOM     23  H   UNL     1      -2.377  -0.041   0.009  0.00  0.00    +0.292 HD
ENDBRANCH  20  22
ENDBRANCH   3  15
BRANCH   1  28
ATOM     24  C   UNL     1      -4.504   9.174   1.506  0.00  0.00    +0.001 A 
ATOM     25  C   UNL     1      -4.072  10.103   0.577  0.00  0.00    +0.004 A 
ATOM     26  C   UNL     1      -3.574   9.683  -0.641  0.00  0.00    +0.046 A 
ATOM     27  C   UNL     1      -3.503   8.328  -0.931  0.00  0.00    +0.122 A 
ATOM     28  C   UNL     1      -3.942   7.399   0.000  0.00  0.00    +0.011 A 
ATOM     29  C   UNL     1      -4.439   7.823   1.217  0.00  0.00    +0.009 A 
BRANCH  27  30
ATOM     30  O   UNL     1      -3.008   7.913  -2.126  0.00  0.00    -0.506 OA
ATOM     31  H   UNL     1      -2.953   6.838  -2.355  0.00  0.00    +0.292 HD
ENDBRANCH  27  30
ENDBRANCH   1  28
TORSDOF 4
