REMARK  Name = ZINC43286320
REMARK  9 active torsions:
REMARK  status: ('A' for Active; 'I' for Inactive)
REMARK    1  A    between atoms: C_1  and  C_2
REMARK    2  A    between atoms: C_3  and  C_30
REMARK    3  A    between atoms: C_4  and  N_29
REMARK    4  A    between atoms: C_5  and  C_9
REMARK    5  A    between atoms: C_9  and  N_10
REMARK    6  A    between atoms: C_18  and  C_20
REMARK    7  A    between atoms: C_18  and  O_28
REMARK    8  A    between atoms: C_23  and  O_26
REMARK    9  A    between atoms: O_26  and  C_27
REMARK                            x       y       z     vdW  Elec       q    Type
REMARK                         _______ _______ _______ _____ _____    ______ ____
ROOT
ATOM      1  N   UNL     1       1.444  -4.747  -0.161  0.00  0.00    +0.386 N 
ATOM      2  C   UNL     1       2.007  -4.366  -1.484  0.00  0.00    -0.065 C 
ATOM      3  C   UNL     1       1.375  -5.375  -2.470  0.00  0.00    -0.017 C 
ATOM      4  C   UNL     1       1.034  -6.609  -1.609  0.00  0.00    -0.017 C 
ATOM      5  C   UNL     1       1.490  -6.233  -0.181  0.00  0.00    -0.065 C 
ATOM      6  C   UNL     1       2.963  -6.645  -0.034  0.00  0.00    +0.024 C 
ATOM      7  C   UNL     1       3.741  -6.147  -1.256  0.00  0.00    +0.088 C 
ATOM      8  C   UNL     1       3.521  -4.628  -1.427  0.00  0.00    +0.024 C 
ATOM      9  H   UNL     1       2.014  -4.383   0.588  0.00  0.00    -0.081 HD
ENDROOT
BRANCH   7  10
ATOM     10  C   UNL     1       5.211  -6.416  -1.058  0.00  0.00    -0.016 A 
ATOM     11  C   UNL     1       5.744  -6.432   0.217  0.00  0.00    +0.010 A 
ATOM     12  C   UNL     1       7.091  -6.678   0.401  0.00  0.00    +0.046 A 
ATOM     13  C   UNL     1       7.909  -6.910  -0.696  0.00  0.00    +0.120 A 
ATOM     14  C   UNL     1       7.371  -6.894  -1.974  0.00  0.00    +0.046 A 
ATOM     15  C   UNL     1       6.022  -6.653  -2.152  0.00  0.00    +0.010 A 
BRANCH  13  16
ATOM     16  O   UNL     1       9.234  -7.152  -0.517  0.00  0.00    -0.495 OA
ATOM     17  C   UNL     1      10.015  -7.382  -1.692  0.00  0.00    +0.277 C 
ENDBRANCH  13  16
ENDBRANCH   7  10
BRANCH   7  18
ATOM     18  O   UNL     1       3.286  -6.835  -2.422  0.00  0.00    -0.384 OA
ATOM     19  H   UNL     1       3.735  -6.570  -3.236  0.00  0.00    +0.211 HD
ENDBRANCH   7  18
BRANCH   1  20
ATOM     20  C   UNL     1       0.059  -4.274  -0.033  0.00  0.00    -0.040 C 
BRANCH  20  25
ATOM     21  C   UNL     1       0.033   1.480   0.555  0.00  0.00    +0.045 C 
ATOM     22  C   UNL     1       0.041  -0.019   0.405  0.00  0.00    -0.027 A 
ATOM     23  C   UNL     1       0.427  -0.817   1.465  0.00  0.00    -0.025 A 
ATOM     24  C   UNL     1       0.434  -2.199   1.326  0.00  0.00    +0.029 A 
ATOM     25  C   UNL     1       0.052  -2.775   0.121  0.00  0.00    -0.042 A 
ATOM     26  C   UNL     1      -0.333  -1.973  -0.935  0.00  0.00    +0.023 A 
ATOM     27  C   UNL     1      -0.344  -0.596  -0.792  0.00  0.00    +0.044 A 
ATOM     28 CL   UNL     1      -0.834   0.408  -2.120  0.00  0.00    -0.083 Cl
ATOM     29  C   UNL     1       0.841  -0.188   2.771  0.00  0.00    +0.046 C 
BRANCH  24  30
ATOM     30  N   UNL     1       0.824  -3.007   2.397  0.00  0.00    -0.358 N 
ATOM     31  H   UNL     1       1.162  -2.604   3.212  0.00  0.00    +0.142 HD
ATOM     32  H   UNL     1       0.758  -3.973   2.325  0.00  0.00    +0.142 HD
ENDBRANCH  24  30
ENDBRANCH  20  25
ENDBRANCH   1  20
TORSDOF 6
