REMARK  Name = ZINC61594786
REMARK  9 active torsions:
REMARK  status: ('A' for Active; 'I' for Inactive)
REMARK    1  A    between atoms: C_1  and  C_2
REMARK    2  A    between atoms: C_2  and  C_3
REMARK    3  A    between atoms: C_3  and  N_4
REMARK    4  A    between atoms: C_10  and  S_11
REMARK    5  A    between atoms: S_11  and  C_12
REMARK    6  A    between atoms: C_12  and  C_14
REMARK    7  A    between atoms: C_12  and  C_21
REMARK    8  A    between atoms: C_21  and  C_23
REMARK    9  A    between atoms: C_21  and  N_24
REMARK                            x       y       z     vdW  Elec       q    Type
REMARK                         _______ _______ _______ _____ _____    ______ ____
ROOT
ATOM      1  C   UNL     1       3.987  -3.664  -0.678  0.00  0.00    +0.069 C 
ENDROOT
BRANCH   1   2
ATOM      2  C   UNL     1       5.375  -3.342  -1.169  0.00  0.00    -0.036 A 
ATOM      3  C   UNL     1       5.547  -2.687  -2.374  0.00  0.00    +0.006 A 
ATOM      4  C   UNL     1       6.819  -2.392  -2.825  0.00  0.00    +0.020 A 
ATOM      5  C   UNL     1       7.921  -2.752  -2.071  0.00  0.00    +0.041 A 
ATOM      6  C   UNL     1       7.748  -3.408  -0.865  0.00  0.00    +0.020 A 
ATOM      7  C   UNL     1       6.475  -3.698  -0.412  0.00  0.00    +0.006 A 
ATOM      8 CL   UNL     1       9.520  -2.383  -2.637  0.00  0.00    -0.084 Cl
ENDBRANCH   1   2
BRANCH   1   9
ATOM      9  C   UNL     1       3.398  -4.798  -1.520  0.00  0.00    -0.060 C 
ATOM     10  C   UNL     1       4.225  -6.068  -1.315  0.00  0.00    -0.013 C 
BRANCH   9  11
ATOM     11  N   UNL     1       3.425  -4.419  -2.939  0.00  0.00    +0.381 N 
ATOM     12  H   UNL     1       4.382  -4.364  -3.254  0.00  0.00    -0.090 HD
ATOM     13  H   UNL     1       2.932  -5.112  -3.482  0.00  0.00    -0.090 HD
ATOM     14  H   UNL     1       2.980  -3.521  -3.056  0.00  0.00    -0.090 HD
ENDBRANCH   9  11
ENDBRANCH   1   9
BRANCH   1  15
ATOM     15  S   UNL     1       2.937  -2.192  -0.827  0.00  0.00    -0.080 S 
BRANCH  15  22
ATOM     16  N   UNL     1       0.294  -1.888   0.040  0.00  0.00    -0.271 N 
ATOM     17  C   UNL     1      -0.667  -2.609   0.651  0.00  0.00    +0.345 A 
ATOM     18  O   UNL     1      -1.792  -2.226   0.920  0.00  0.00    -0.245 OA
ATOM     19  N   UNL     1      -0.158  -3.830   0.911  0.00  0.00    -0.226 N 
ATOM     20  H   UNL     1      -0.619  -4.565   1.345  0.00  0.00    +0.194 HD
ATOM     21  N   UNL     1       1.161  -3.844   0.436  0.00  0.00    -0.145 NA
ATOM     22  C   UNL     1       1.414  -2.678  -0.086  0.00  0.00    +0.193 A 
BRANCH  16  23
ATOM     23  C   UNL     1       0.166  -0.502  -0.418  0.00  0.00    +0.129 C 
BRANCH  23  25
ATOM     24  C   UNL     1      -0.485   0.961  -2.336  0.00  0.00    +0.005 C 
ATOM     25  C   UNL     1      -0.352  -0.486  -1.858  0.00  0.00    +0.018 C 
ENDBRANCH  23  25
ENDBRANCH  16  23
ENDBRANCH  15  22
ENDBRANCH   1  15
TORSDOF 7
