REMARK  Name = ZINC08753017
REMARK  7 active torsions:
REMARK  status: ('A' for Active; 'I' for Inactive)
REMARK    1  A    between atoms: C_1  and  C_2
REMARK    2  A    between atoms: C_2  and  C_22
REMARK    3  A    between atoms: N_5  and  C_9
REMARK    4  A    between atoms: C_9  and  C_10
REMARK    5  A    between atoms: N_12  and  C_13
REMARK    6  A    between atoms: C_16  and  C_19
REMARK    7  A    between atoms: C_25  and  N_28
REMARK                            x       y       z     vdW  Elec       q    Type
REMARK                         _______ _______ _______ _____ _____    ______ ____
ROOT
ATOM      1  C   UNL     1      -0.064   2.402   1.162  0.00  0.00    +0.047 C 
ATOM      2  C   UNL     1       0.604   1.793  -0.073  0.00  0.00    +0.135 C 
ATOM      3  C   UNL     1       0.414   0.289  -0.094  0.00  0.00    +0.251 C 
ATOM      4  O   UNL     1      -0.635  -0.316  -0.146  0.00  0.00    -0.272 OA
ATOM      5  N   UNL     1       1.655  -0.235  -0.043  0.00  0.00    -0.215 N 
ATOM      6  C   UNL     1       2.592   0.718   0.008  0.00  0.00    +0.310 C 
ATOM      7  O   UNL     1       3.785   0.491   0.060  0.00  0.00    -0.252 OA
ATOM      8  N   UNL     1       2.066   1.957  -0.005  0.00  0.00    -0.281 N 
ATOM      9  H   UNL     1       2.555   2.794   0.024  0.00  0.00    +0.152 HD
ENDROOT
BRANCH   2  10
ATOM     10  C   UNL     1       0.059   2.414  -1.333  0.00  0.00    -0.015 A 
ATOM     11  C   UNL     1      -1.002   1.821  -1.993  0.00  0.00    +0.008 A 
ATOM     12  C   UNL     1      -1.505   2.394  -3.146  0.00  0.00    +0.033 A 
ATOM     13  C   UNL     1      -0.941   3.553  -3.645  0.00  0.00    +0.126 A 
ATOM     14  C   UNL     1       0.122   4.143  -2.988  0.00  0.00    +0.033 A 
ATOM     15  C   UNL     1       0.622   3.574  -1.832  0.00  0.00    +0.008 A 
BRANCH  13  16
ATOM     16  N   UNL     1      -1.476   4.163  -4.883  0.00  0.00    +0.056 N 
ATOM     17  O   UNL     1      -0.979   5.184  -5.323  0.00  0.00    -0.126 OA
ATOM     18  O   UNL     1      -2.413   3.643  -5.462  0.00  0.00    -0.126 OA
ENDBRANCH  13  16
ENDBRANCH   2  10
BRANCH   5  19
ATOM     19  C   UNL     1       1.942  -1.672  -0.043  0.00  0.00    +0.214 C 
BRANCH  19  20
ATOM     20  C   UNL     1       2.104  -2.151  -1.462  0.00  0.00    +0.235 C 
ATOM     21  O   UNL     1       1.992  -1.370  -2.383  0.00  0.00    -0.274 OA
ATOM     22  N   UNL     1       2.375  -3.449  -1.708  0.00  0.00    -0.284 N 
ATOM     23  H   UNL     1       2.541  -4.058  -0.972  0.00  0.00    +0.155 HD
BRANCH  22  24
ATOM     24  C   UNL     1       2.417  -3.915  -3.021  0.00  0.00    +0.033 A 
ATOM     25  C   UNL     1       1.570  -3.368  -3.980  0.00  0.00    +0.024 A 
ATOM     26  C   UNL     1       1.612  -3.823  -5.278  0.00  0.00    +0.015 A 
ATOM     27  C   UNL     1       2.500  -4.843  -5.631  0.00  0.00    +0.037 A 
ATOM     28  C   UNL     1       3.346  -5.394  -4.665  0.00  0.00    +0.015 A 
ATOM     29  C   UNL     1       3.302  -4.930  -3.369  0.00  0.00    +0.024 A 
BRANCH  27  30
ATOM     30  C   UNL     1       2.545  -5.336  -7.022  0.00  0.00    +0.242 C 
ATOM     31  O   UNL     1       3.318  -6.223  -7.327  0.00  0.00    -0.270 OA
ATOM     32  N   UNL     1       1.728  -4.804  -7.952  0.00  0.00    -0.325 N 
ATOM     33  H   UNL     1       1.111  -4.096  -7.708  0.00  0.00    +0.145 HD
ATOM     34  H   UNL     1       1.757  -5.128  -8.866  0.00  0.00    +0.145 HD
ENDBRANCH  27  30
ENDBRANCH  22  24
ENDBRANCH  19  20
ENDBRANCH   5  19
TORSDOF 6
