REMARK  Name = ZINC39856244
REMARK  8 active torsions:
REMARK  status: ('A' for Active; 'I' for Inactive)
REMARK    1  A    between atoms: C_1  and  C_2
REMARK    2  A    between atoms: C_6  and  C_7
REMARK    3  A    between atoms: C_12  and  C_15
REMARK    4  A    between atoms: C_15  and  O_17
REMARK    5  A    between atoms: O_17  and  C_18
REMARK    6  A    between atoms: C_20  and  C_28
REMARK    7  A    between atoms: C_20  and  C_29
REMARK    8  A    between atoms: N_23  and  N_24
REMARK                            x       y       z     vdW  Elec       q    Type
REMARK                         _______ _______ _______ _____ _____    ______ ____
ROOT
ATOM      1  C   UNL     1       0.546   1.437   0.014  0.00  0.00    +0.048 C 
ATOM      2  C   UNL     1       0.194  -0.028   0.003  0.00  0.00    +0.009 A 
ATOM      3  C   UNL     1       0.037  -0.847  -1.121  0.00  0.00    +0.042 A 
ATOM      4  C   UNL     1      -0.283  -2.106  -0.674  0.00  0.00    +0.116 A 
ATOM      5  O   UNL     1      -0.319  -2.073   0.656  0.00  0.00    -0.454 OA
ATOM      6  C   UNL     1      -0.029  -0.826   1.091  0.00  0.00    +0.193 A 
ATOM      7  C   UNL     1      -0.535  -3.267  -1.602  0.00  0.00    +0.081 C 
ATOM      8  C   UNL     1      -0.887  -2.738  -2.995  0.00  0.00    -0.023 C 
ATOM      9  C   UNL     1       0.180  -1.752  -3.483  0.00  0.00    +0.064 C 
ATOM     10  C   UNL     1       0.164  -0.539  -2.564  0.00  0.00    +0.071 C 
ATOM     11  N   UNL     1       0.256   0.674  -3.011  0.00  0.00    -0.183 NA
ATOM     12  C   UNL     1      -0.975  -3.911  -3.973  0.00  0.00    +0.011 C 
ATOM     13  C   UNL     1      -2.241  -2.028  -2.938  0.00  0.00    +0.011 C 
ENDROOT
BRANCH   6  14
ATOM     14  C   UNL     1       0.032  -0.400   2.494  0.00  0.00    +0.282 C 
ATOM     15  O   UNL     1       0.155   0.780   2.766  0.00  0.00    -0.267 OA
ATOM     16  N   UNL     1      -0.047  -1.315   3.480  0.00  0.00    -0.295 N 
ATOM     17  C   UNL     1      -0.026  -2.751   3.172  0.00  0.00    +0.109 C 
ATOM     18  C   UNL     1       1.078  -3.416   3.999  0.00  0.00    +0.033 C 
ATOM     19  C   UNL     1       0.866  -3.094   5.480  0.00  0.00    +0.101 C 
ATOM     20  C   UNL     1       0.950  -1.581   5.691  0.00  0.00    +0.033 C 
ATOM     21  C   UNL     1      -0.150  -0.894   4.884  0.00  0.00    +0.109 C 
BRANCH  19  22
ATOM     22  C   UNL     1       1.931  -3.775   6.300  0.00  0.00    +0.310 C 
ATOM     23  O   UNL     1       2.774  -4.449   5.755  0.00  0.00    -0.251 OA
BRANCH  22  24
ATOM     24  O   UNL     1       1.944  -3.633   7.634  0.00  0.00    -0.468 OA
ATOM     25  C   UNL     1       2.983  -4.307   8.348  0.00  0.00    +0.280 C 
ENDBRANCH  22  24
ENDBRANCH  19  22
ENDBRANCH   6  14
BRANCH  11  26
ATOM     26  N   UNL     1       0.375   0.906  -4.388  0.00  0.00    -0.191 N 
ATOM     27  C   UNL     1       0.470   2.168  -4.853  0.00  0.00    +0.317 C 
ATOM     28  O   UNL     1       0.573   2.369  -6.048  0.00  0.00    -0.251 OA
ATOM     29  N   UNL     1       0.451   3.206  -3.994  0.00  0.00    -0.312 N 
ATOM     30  H   UNL     1       0.389   0.159  -5.006  0.00  0.00    +0.179 HD
ATOM     31  H   UNL     1       0.368   3.045  -3.041  0.00  0.00    +0.147 HD
ATOM     32  H   UNL     1       0.519   4.114  -4.329  0.00  0.00    +0.147 HD
ENDBRANCH  11  26
TORSDOF 4
