REMARK  Name = ZINC35373393
REMARK  8 active torsions:
REMARK  status: ('A' for Active; 'I' for Inactive)
REMARK    1  A    between atoms: C_1  and  C_2
REMARK    2  A    between atoms: C_6  and  N_9
REMARK    3  A    between atoms: C_7  and  C_8
REMARK    4  A    between atoms: C_10  and  C_12
REMARK    5  A    between atoms: C_12  and  C_13
REMARK    6  A    between atoms: C_13  and  C_14
REMARK    7  A    between atoms: C_16  and  C_19
REMARK    8  A    between atoms: C_25  and  C_30
REMARK                            x       y       z     vdW  Elec       q    Type
REMARK                         _______ _______ _______ _____ _____    ______ ____
ROOT
ATOM      1  C   UNL     1      -0.308  -7.155   4.698  0.00  0.00    +0.228 A 
ATOM      2  N   UNL     1      -1.412  -7.475   5.311  0.00  0.00    -0.191 NA
ATOM      3  C   UNL     1      -1.131  -8.146   6.444  0.00  0.00    +0.207 A 
ATOM      4  N   UNL     1       0.171  -8.255   6.554  0.00  0.00    -0.056 NA
ATOM      5  O   UNL     1       0.726  -7.615   5.415  0.00  0.00    -0.338 OA
ENDROOT
BRANCH   3   6
ATOM      6  C   UNL     1      -2.128  -8.673   7.405  0.00  0.00    +0.087 A 
ATOM      7  C   UNL     1      -1.718  -9.336   8.528  0.00  0.00    +0.027 A 
ATOM      8  C   UNL     1      -2.690  -9.832   9.434  0.00  0.00    -0.001 A 
ATOM      9  C   UNL     1      -2.296 -10.515  10.593  0.00  0.00    +0.010 A 
ATOM     10  C   UNL     1      -3.240 -10.987  11.458  0.00  0.00    +0.001 A 
ATOM     11  C   UNL     1      -4.591 -10.797  11.201  0.00  0.00    +0.005 A 
ATOM     12  C   UNL     1      -5.003 -10.129  10.069  0.00  0.00    -0.026 A 
ATOM     13  C   UNL     1      -4.059  -9.638   9.171  0.00  0.00    +0.052 A 
ATOM     14  N   UNL     1      -4.465  -8.968   8.035  0.00  0.00    -0.321 N 
ATOM     15  C   UNL     1      -3.560  -8.483   7.163  0.00  0.00    +0.260 A 
ATOM     16  O   UNL     1      -3.935  -7.888   6.168  0.00  0.00    -0.267 OA
ATOM     17  C   UNL     1      -6.473  -9.931   9.802  0.00  0.00    +0.046 C 
ATOM     18  H   UNL     1      -5.411  -8.840   7.866  0.00  0.00    +0.169 HD
ENDBRANCH   3   6
BRANCH   1  19
ATOM     19  C   UNL     1      -0.211  -6.399   3.398  0.00  0.00    +0.108 C 
BRANCH  19  20
ATOM     20  C   UNL     1      -0.129  -4.898   3.686  0.00  0.00    +0.105 C 
BRANCH  20  22
ATOM     21  N   UNL     1       0.052  -2.797   2.393  0.00  0.00    -0.285 N 
ATOM     22  C   UNL     1      -0.031  -4.143   2.385  0.00  0.00    +0.218 C 
ATOM     23  O   UNL     1      -0.028  -4.745   1.333  0.00  0.00    -0.275 OA
ATOM     24  H   UNL     1       0.130  -2.321   3.234  0.00  0.00    +0.155 HD
BRANCH  21  30
ATOM     25  C   UNL     1       1.206   1.236  -0.172  0.00  0.00    +0.044 C 
ATOM     26  C   UNL     1       0.577  -0.131  -0.084  0.00  0.00    -0.046 A 
ATOM     27  C   UNL     1      -0.027  -0.686  -1.198  0.00  0.00    +0.004 A 
ATOM     28  C   UNL     1      -0.605  -1.940  -1.122  0.00  0.00    +0.002 A 
ATOM     29  C   UNL     1      -0.580  -2.642   0.067  0.00  0.00    +0.023 A 
ATOM     30  C   UNL     1       0.026  -2.088   1.187  0.00  0.00    +0.037 A 
ATOM     31  C   UNL     1       0.610  -0.831   1.106  0.00  0.00    -0.026 A 
ATOM     32  C   UNL     1       1.274  -0.228   2.317  0.00  0.00    +0.046 C 
ENDBRANCH  21  30
ENDBRANCH  20  22
ENDBRANCH  19  20
ENDBRANCH   1  19
TORSDOF 5
