REMARK  Name = ZINC21323068
REMARK  9 active torsions:
REMARK  status: ('A' for Active; 'I' for Inactive)
REMARK    1  A    between atoms: C_1  and  C_2
REMARK    2  A    between atoms: C_2  and  C_24
REMARK    3  A    between atoms: N_3  and  N_4
REMARK    4  A    between atoms: C_8  and  S_11
REMARK    5  A    between atoms: N_9  and  N_10
REMARK    6  A    between atoms: S_11  and  C_12
REMARK    7  A    between atoms: C_12  and  C_13
REMARK    8  A    between atoms: N_15  and  C_16
REMARK    9  A    between atoms: C_16  and  C_17
REMARK                            x       y       z     vdW  Elec       q    Type
REMARK                         _______ _______ _______ _____ _____    ______ ____
ROOT
ATOM      1  N   UNL     1      -1.940   2.398  -9.856  0.00  0.00    -0.204 N 
ATOM      2  C   UNL     1      -1.833   2.326  -8.475  0.00  0.00    +0.254 A 
ATOM      3  N   UNL     1      -2.643   2.884  -7.609  0.00  0.00    -0.109 NA
ATOM      4  N   UNL     1      -2.188   2.566  -6.322  0.00  0.00    -0.119 NA
ATOM      5  C   UNL     1      -1.108   1.831  -6.445  0.00  0.00    +0.210 A 
ATOM      6  N   UNL     1      -0.863   1.661  -7.778  0.00  0.00    -0.211 N 
ATOM      7  H   UNL     1      -1.201   1.890 -10.493  0.00  0.00    +0.178 HD
ENDROOT
BRANCH   1  10
ATOM      8  C   UNL     1      -2.077   2.490 -12.605  0.00  0.00    +0.068 C 
ATOM      9  C   UNL     1      -3.090   3.187 -11.733  0.00  0.00    +0.063 C 
ATOM     10  N   UNL     1      -2.990   3.119 -10.440  0.00  0.00    -0.184 NA
BRANCH   9  11
ATOM     11  C   UNL     1      -4.195   3.945 -12.348  0.00  0.00    -0.002 A 
ATOM     12  C   UNL     1      -4.303   4.025 -13.739  0.00  0.00    +0.011 A 
ATOM     13  C   UNL     1      -5.341   4.732 -14.307  0.00  0.00    +0.016 A 
ATOM     14  C   UNL     1      -6.270   5.370 -13.503  0.00  0.00    +0.018 A 
ATOM     15  C   UNL     1      -6.167   5.300 -12.124  0.00  0.00    +0.016 A 
ATOM     16  C   UNL     1      -5.136   4.592 -11.543  0.00  0.00    +0.011 A 
ATOM     17 BR   UNL     1      -7.688   6.343 -14.292  0.00  0.00    -0.050 Br
ENDBRANCH   9  11
ENDBRANCH   1  10
BRANCH   6  18
ATOM     18  N   UNL     1       0.170   0.950  -8.319  0.00  0.00    -0.294 N 
ATOM     19  H   UNL     1       0.898   0.451  -7.663  0.00  0.00    +0.163 HD
ATOM     20  H   UNL     1       0.274   0.876  -9.412  0.00  0.00    +0.163 HD
ENDBRANCH   6  18
BRANCH   5  21
ATOM     21  S   UNL     1      -0.148   1.173  -5.122  0.00  0.00    -0.075 S 
BRANCH  21  22
ATOM     22  C   UNL     1      -0.997   1.758  -3.630  0.00  0.00    +0.173 C 
BRANCH  22  23
ATOM     23  C   UNL     1      -0.268   1.258  -2.409  0.00  0.00    +0.224 C 
ATOM     24  O   UNL     1       0.726   0.575  -2.534  0.00  0.00    -0.275 OA
ATOM     25  N   UNL     1      -0.721   1.571  -1.179  0.00  0.00    -0.311 N 
ATOM     26  H   UNL     1      -1.623   2.191  -1.066  0.00  0.00    +0.149 HD
BRANCH  25  27
ATOM     27  C   UNL     1      -0.013   1.086   0.008  0.00  0.00    +0.139 C 
BRANCH  27  28
ATOM     28  C   UNL     1      -0.718   1.572   1.248  0.00  0.00    -0.030 A 
ATOM     29  C   UNL     1      -0.359   2.779   1.818  0.00  0.00    +0.008 A 
ATOM     30  C   UNL     1      -1.009   3.228   2.953  0.00  0.00    +0.038 A 
ATOM     31  C   UNL     1      -2.012   2.463   3.524  0.00  0.00    +0.123 A 
ATOM     32  C   UNL     1      -2.367   1.252   2.955  0.00  0.00    +0.038 A 
ATOM     33  C   UNL     1      -1.719   0.807   1.817  0.00  0.00    +0.008 A 
ATOM     34  F   UNL     1      -2.644   2.899   4.635  0.00  0.00    -0.205 F 
ENDBRANCH  27  28
ENDBRANCH  25  27
ENDBRANCH  22  23
ENDBRANCH  21  22
ENDBRANCH   5  21
TORSDOF 8
