REMARK  Name = ZINC35317778
REMARK  20 active torsions:
REMARK  status: ('A' for Active; 'I' for Inactive)
REMARK    1  A    between atoms: C_1  and  C_2
REMARK    2  A    between atoms: C_2  and  C_3
REMARK    3  A    between atoms: C_3  and  C_4
REMARK    4  A    between atoms: C_4  and  C_5
REMARK    5  A    between atoms: C_5  and  C_7
REMARK    6  A    between atoms: C_5  and  C_9
REMARK    7  A    between atoms: C_7  and  C_8
REMARK    8  A    between atoms: C_16  and  C_18
REMARK    9  A    between atoms: C_19  and  C_21
REMARK   10  A    between atoms: C_21  and  C_23
REMARK   11  A    between atoms: C_21  and  N_28
REMARK   12  A    between atoms: C_23  and  C_25
REMARK   13  A    between atoms: C_23  and  C_26
REMARK   14  A    between atoms: C_26  and  C_27
REMARK   15  A    between atoms: C_29  and  C_31
REMARK   16  A    between atoms: C_31  and  C_32
REMARK   17  A    between atoms: C_32  and  C_33
REMARK   18  A    between atoms: C_33  and  C_34
REMARK   19  A    between atoms: C_34  and  C_35
REMARK   20  A    between atoms: C_35  and  N_36
REMARK                            x       y       z     vdW  Elec       q    Type
REMARK                         _______ _______ _______ _____ _____    ______ ____
ROOT
ATOM      1  C   UNL     1       1.366  -5.239  -2.079  0.00  0.00    +0.219 C 
ATOM      2  O   UNL     1       0.602  -5.838  -1.352  0.00  0.00    -0.275 OA
ATOM      3  N   UNL     1       2.006  -5.891  -3.070  0.00  0.00    -0.295 N 
ATOM      4  C   UNL     1       2.845  -5.159  -4.028  0.00  0.00    +0.127 C 
ATOM      5  C   UNL     1       2.357  -5.472  -5.447  0.00  0.00    +0.127 C 
ATOM      6  N   UNL     1       2.228  -6.929  -5.588  0.00  0.00    -0.297 N 
ATOM      7  C   UNL     1       1.388  -7.662  -4.630  0.00  0.00    +0.130 C 
ATOM      8  C   UNL     1       1.881  -7.349  -3.207  0.00  0.00    +0.090 C 
ATOM      9  C   UNL     1       3.244  -8.005  -2.976  0.00  0.00    +0.029 C 
ATOM     10  C   UNL     1       2.868  -7.582  -6.579  0.00  0.00    +0.236 C 
ATOM     11  O   UNL     1       2.683  -8.770  -6.741  0.00  0.00    -0.274 OA
ENDROOT
BRANCH   1  12
ATOM     12  C   UNL     1       1.599  -3.764  -1.875  0.00  0.00    +0.075 C 
BRANCH  12  13
ATOM     13  C   UNL     1       1.507  -3.435  -0.383  0.00  0.00    +0.009 C 
ATOM     14  C   UNL     1       2.655  -4.120   0.362  0.00  0.00    +0.004 C 
ENDBRANCH  12  13
BRANCH  12  15
ATOM     15  C   UNL     1       0.538  -2.969  -2.638  0.00  0.00    +0.013 C 
BRANCH  15  16
ATOM     16  C   UNL     1       0.848  -1.474  -2.533  0.00  0.00    +0.000 C 
BRANCH  16  18
ATOM     17  C   UNL     1       0.096   0.816  -3.192  0.00  0.00    +0.004 C 
ATOM     18  C   UNL     1      -0.213  -0.679  -3.297  0.00  0.00    -0.003 C 
ENDBRANCH  16  18
ENDBRANCH  15  16
ENDBRANCH  12  15
ENDBRANCH   1  12
BRANCH  10  19
ATOM     19  C   UNL     1       3.813  -6.836  -7.485  0.00  0.00    +0.162 C 
BRANCH  19  20
ATOM     20  N   UNL     1       3.940  -7.554  -8.756  0.00  0.00    -0.304 N 
ATOM     21  C   UNL     1       4.291  -6.888  -9.874  0.00  0.00    +0.214 C 
ATOM     22  O   UNL     1       4.501  -5.695  -9.829  0.00  0.00    -0.276 OA
ATOM     23  H   UNL     1       3.772  -8.509  -8.792  0.00  0.00    +0.149 HD
BRANCH  21  24
ATOM     24  C   UNL     1       4.422  -7.627 -11.181  0.00  0.00    +0.096 C 
BRANCH  24  25
ATOM     25  C   UNL     1       4.827  -6.646 -12.283  0.00  0.00    +0.009 C 
BRANCH  25  26
ATOM     26  C   UNL     1       4.960  -7.397 -13.610  0.00  0.00    -0.001 C 
BRANCH  26  27
ATOM     27  C   UNL     1       5.365  -6.416 -14.712  0.00  0.00    -0.020 C 
BRANCH  27  28
ATOM     28  C   UNL     1       5.498  -7.166 -16.039  0.00  0.00    -0.086 C 
BRANCH  28  29
ATOM     29  N   UNL     1       5.888  -6.224 -17.097  0.00  0.00    +0.378 N 
ATOM     30  H   UNL     1       5.183  -5.507 -17.185  0.00  0.00    -0.090 HD
ATOM     31  H   UNL     1       6.772  -5.799 -16.860  0.00  0.00    -0.090 HD
ATOM     32  H   UNL     1       5.975  -6.719 -17.972  0.00  0.00    -0.090 HD
ENDBRANCH  28  29
ENDBRANCH  27  28
ENDBRANCH  26  27
ENDBRANCH  25  26
ENDBRANCH  24  25
ENDBRANCH  21  24
ENDBRANCH  19  20
BRANCH  19  33
ATOM     33  C   UNL     1       5.186  -6.733  -6.818  0.00  0.00    +0.015 C 
ATOM     34  C   UNL     1       5.796  -8.130  -6.688  0.00  0.00    +0.010 C 
BRANCH  33  35
ATOM     35  C   UNL     1       6.102  -5.853  -7.670  0.00  0.00    +0.002 C 
ATOM     36  C   UNL     1       5.576  -4.416  -7.669  0.00  0.00    +0.004 C 
ENDBRANCH  33  35
ENDBRANCH  19  33
ENDBRANCH  10  19
TORSDOF 15
