REMARK  Name = ZINC44963031
REMARK  8 active torsions:
REMARK  status: ('A' for Active; 'I' for Inactive)
REMARK    1  A    between atoms: C_1  and  C_2
REMARK    2  A    between atoms: C_4  and  C_27
REMARK    3  A    between atoms: N_5  and  O_9
REMARK    4  A    between atoms: O_9  and  C_10
REMARK    5  A    between atoms: C_12  and  O_26
REMARK    6  A    between atoms: C_14  and  O_25
REMARK    7  A    between atoms: C_16  and  O_24
REMARK    8  A    between atoms: C_18  and  C_21
REMARK                            x       y       z     vdW  Elec       q    Type
REMARK                         _______ _______ _______ _____ _____    ______ ____
ROOT
ATOM      1  O   UNL     1      -0.307  -4.316  -0.341  0.00  0.00    -0.374 OA
ENDROOT
BRANCH   1   6
ATOM      2  C   UNL     1       1.530   1.046  -0.220  0.00  0.00    +0.044 C 
ATOM      3  C   UNL     1       1.053  -0.383  -0.253  0.00  0.00    -0.043 A 
ATOM      4  C   UNL     1      -0.317  -0.674  -0.185  0.00  0.00    +0.028 A 
ATOM      5  C   UNL     1      -0.736  -1.961  -0.216  0.00  0.00    +0.065 A 
ATOM      6  N   UNL     1       0.157  -2.979  -0.311  0.00  0.00    -0.145 N 
ATOM      7  C   UNL     1       1.479  -2.731  -0.377  0.00  0.00    +0.284 A 
ATOM      8  O   UNL     1       2.269  -3.657  -0.463  0.00  0.00    -0.265 OA
ATOM      9  C   UNL     1       1.948  -1.407  -0.354  0.00  0.00    +0.076 A 
BRANCH   5  10
ATOM     10  C   UNL     1      -2.210  -2.266  -0.142  0.00  0.00    +0.039 C 
ATOM     11  C   UNL     1      -3.005  -1.077  -0.685  0.00  0.00    +0.010 C 
ATOM     12  C   UNL     1      -4.502  -1.387  -0.611  0.00  0.00    +0.001 C 
ATOM     13  C   UNL     1      -4.897  -1.644   0.845  0.00  0.00    +0.000 C 
ATOM     14  C   UNL     1      -4.102  -2.833   1.387  0.00  0.00    +0.001 C 
ATOM     15  C   UNL     1      -2.606  -2.523   1.313  0.00  0.00    +0.010 C 
ENDBRANCH   5  10
ENDBRANCH   1   6
BRANCH   1  16
ATOM     16  C   UNL     1      -0.476  -4.843  -1.659  0.00  0.00    +0.367 C 
ATOM     17  C   UNL     1      -1.464  -6.012  -1.619  0.00  0.00    +0.216 C 
ATOM     18  C   UNL     1      -1.593  -6.610  -3.023  0.00  0.00    +0.181 C 
ATOM     19  C   UNL     1      -0.206  -7.037  -3.514  0.00  0.00    +0.186 C 
ATOM     20  C   UNL     1       0.733  -5.829  -3.481  0.00  0.00    +0.266 C 
ATOM     21  O   UNL     1       0.784  -5.303  -2.153  0.00  0.00    -0.320 OA
BRANCH  20  22
ATOM     22  C   UNL     1       2.114  -6.255  -3.907  0.00  0.00    +0.387 C 
ATOM     23  O   UNL     1       2.307  -6.649  -5.044  0.00  0.00    -0.243 OA
ATOM     24  O   UNL     1       3.039  -6.204  -3.114  0.00  0.00    -0.243 OA
ENDBRANCH  20  22
BRANCH  19  25
ATOM     25  O   UNL     1      -0.305  -7.531  -4.851  0.00  0.00    -0.386 OA
ATOM     26  H   UNL     1       0.538  -7.821  -5.226  0.00  0.00    +0.210 HD
ENDBRANCH  19  25
BRANCH  18  27
ATOM     27  O   UNL     1      -2.458  -7.746  -2.981  0.00  0.00    -0.386 OA
ATOM     28  H   UNL     1      -2.586  -8.175  -3.838  0.00  0.00    +0.210 HD
ENDBRANCH  18  27
BRANCH  17  29
ATOM     29  O   UNL     1      -2.740  -5.544  -1.178  0.00  0.00    -0.383 OA
ATOM     30  H   UNL     1      -2.752  -5.239  -0.261  0.00  0.00    +0.210 HD
ENDBRANCH  17  29
ENDBRANCH   1  16
TORSDOF 7
