REMARK  Name = ZINC06446031
REMARK  9 active torsions:
REMARK  status: ('A' for Active; 'I' for Inactive)
REMARK    1  A    between atoms: C_6  and  C_7
REMARK    2  A    between atoms: C_14  and  C_16
REMARK    3  A    between atoms: C_16  and  C_17
REMARK    4  A    between atoms: C_17  and  C_18
REMARK    5  A    between atoms: C_18  and  O_19
REMARK    6  A    between atoms: C_21  and  C_24
REMARK    7  A    between atoms: C_24  and  C_25
REMARK    8  A    between atoms: C_25  and  C_26
REMARK    9  A    between atoms: C_26  and  O_27
REMARK                            x       y       z     vdW  Elec       q    Type
REMARK                         _______ _______ _______ _____ _____    ______ ____
ROOT
ATOM      1  C   UNL     1      -0.017   1.394   0.010  0.00  0.00    +0.010 A 
ATOM      2  C   UNL     1       1.151   2.103   0.002  0.00  0.00    +0.028 A 
ATOM      3  C   UNL     1       2.370   1.438  -0.013  0.00  0.00    +0.066 A 
ATOM      4  C   UNL     1       2.407   0.032  -0.021  0.00  0.00    +0.090 A 
ATOM      5  C   UNL     1       1.211  -0.687  -0.014  0.00  0.00    +0.038 A 
ATOM      6  C   UNL     1       0.002  -0.004   0.002  0.00  0.00    -0.016 A 
ATOM      7  N   UNL     1       3.716  -0.330  -0.035  0.00  0.00    -0.232 NA
ATOM      8  C   UNL     1       4.463   0.735  -0.037  0.00  0.00    +0.108 A 
ATOM      9  N   UNL     1       3.687   1.852  -0.023  0.00  0.00    -0.342 N 
ATOM     10  H   UNL     1       4.001   2.770  -0.022  0.00  0.00    +0.167 HD
ENDROOT
BRANCH   6  11
ATOM     11  C   UNL     1      -1.274  -0.760   0.011  0.00  0.00    -0.016 A 
ATOM     12  C   UNL     1      -1.256  -2.159   0.009  0.00  0.00    +0.011 A 
ATOM     13  C   UNL     1      -2.421  -2.867   0.017  0.00  0.00    +0.030 A 
ATOM     14  C   UNL     1      -3.648  -2.196   0.026  0.00  0.00    +0.089 A 
ATOM     15  C   UNL     1      -3.673  -0.791   0.028  0.00  0.00    +0.067 A 
ATOM     16  C   UNL     1      -2.485  -0.077   0.026  0.00  0.00    +0.036 A 
ATOM     17  N   UNL     1      -5.007  -0.433   0.038  0.00  0.00    -0.342 N 
ATOM     18  C   UNL     1      -5.734  -1.583   0.041  0.00  0.00    +0.108 A 
ATOM     19  N   UNL     1      -4.940  -2.614   0.035  0.00  0.00    -0.232 NA
ATOM     20  H   UNL     1      -5.360   0.470   0.042  0.00  0.00    +0.167 HD
BRANCH  18  21
ATOM     21  C   UNL     1      -7.239  -1.653   0.051  0.00  0.00    +0.076 C 
BRANCH  21  22
ATOM     22  C   UNL     1      -7.718  -2.502  -1.128  0.00  0.00    +0.035 C 
BRANCH  22  23
ATOM     23  C   UNL     1      -9.247  -2.573  -1.118  0.00  0.00    +0.156 C 
BRANCH  23  24
ATOM     24  O   UNL     1      -9.694  -3.365  -2.219  0.00  0.00    -0.395 OA
ATOM     25  H   UNL     1     -10.655  -3.454  -2.276  0.00  0.00    +0.209 HD
ENDBRANCH  23  24
ENDBRANCH  22  23
ENDBRANCH  21  22
ENDBRANCH  18  21
ENDBRANCH   6  11
BRANCH   8  26
ATOM     26  C   UNL     1       5.970   0.731  -0.051  0.00  0.00    +0.076 C 
BRANCH  26  27
ATOM     27  C   UNL     1       6.489  -0.104   1.122  0.00  0.00    +0.035 C 
BRANCH  27  28
ATOM     28  C   UNL     1       8.019  -0.108   1.107  0.00  0.00    +0.156 C 
BRANCH  28  29
ATOM     29  O   UNL     1       8.504  -0.888   2.202  0.00  0.00    -0.395 OA
ATOM     30  H   UNL     1       9.468  -0.935   2.256  0.00  0.00    +0.209 HD
ENDBRANCH  28  29
ENDBRANCH  27  28
ENDBRANCH  26  27
ENDBRANCH   8  26
TORSDOF 9
