REMARK  Name = ZINC15768746
REMARK  6 active torsions:
REMARK  status: ('A' for Active; 'I' for Inactive)
REMARK    1  A    between atoms: C_4  and  N_7
REMARK    2  A    between atoms: N_7  and  N_8
REMARK    3  A    between atoms: C_14  and  C_24
REMARK    4  A    between atoms: N_19  and  C_20
REMARK    5  A    between atoms: C_20  and  C_21
REMARK    6  A    between atoms: C_21  and  C_22
REMARK                            x       y       z     vdW  Elec       q    Type
REMARK                         _______ _______ _______ _____ _____    ______ ____
ROOT
ATOM      1  N   UNL     1       3.565   3.522  -0.014  0.00  0.00    -0.190 NA
ATOM      2  C   UNL     1       4.662   4.175   0.075  0.00  0.00    +0.054 C 
ATOM      3  C   UNL     1       6.009   3.479   0.064  0.00  0.00    +0.055 C 
ATOM      4  C   UNL     1       6.861   4.043   1.206  0.00  0.00    +0.026 C 
ATOM      5  C   UNL     1       6.795   5.574   1.194  0.00  0.00    +0.075 C 
ATOM      6  C   UNL     1       7.061   6.078  -0.240  0.00  0.00    +0.110 C 
ATOM      7  C   UNL     1       5.669   6.197  -0.893  0.00  0.00    +0.044 C 
ATOM      8  C   UNL     1       4.685   5.695   0.193  0.00  0.00    +0.104 C 
ATOM      9  N   UNL     1       5.395   5.982   1.478  0.00  0.00    -0.289 NA
ENDROOT
BRANCH   1  10
ATOM     10  N   UNL     1       3.582   2.121  -0.028  0.00  0.00    -0.238 N 
ATOM     11  H   UNL     1       4.542   1.584  -0.050  0.00  0.00    +0.174 HD
BRANCH  10  15
ATOM     12  C   UNL     1       0.004  -0.006   0.016  0.00  0.00    +0.000 A 
ATOM     13  C   UNL     1      -0.015   1.377   0.030  0.00  0.00    +0.002 A 
ATOM     14  C   UNL     1       1.169   2.086   0.016  0.00  0.00    +0.025 A 
ATOM     15  C   UNL     1       2.382   1.408  -0.013  0.00  0.00    +0.048 A 
ATOM     16  C   UNL     1       2.398   0.019  -0.027  0.00  0.00    +0.025 A 
ATOM     17  C   UNL     1       1.209  -0.684  -0.012  0.00  0.00    +0.002 A 
ENDBRANCH  10  15
ENDBRANCH   1  10
BRANCH   6  18
ATOM     18  C   UNL     1       7.884   5.107  -0.979  0.00  0.00    +0.067 C 
ATOM     19  N   UNL     1       8.519   4.358  -1.550  0.00  0.00    -0.196 NA
ENDBRANCH   6  18
BRANCH   9  20
ATOM     20  C   UNL     1       5.320   7.410   1.812  0.00  0.00    +0.100 C 
BRANCH  20  21
ATOM     21  C   UNL     1       3.921   7.739   2.337  0.00  0.00    +0.134 C 
BRANCH  21  22
ATOM     22  C   UNL     1       3.847   9.171   2.672  0.00  0.00    +0.064 C 
ATOM     23  N   UNL     1       3.789  10.275   2.931  0.00  0.00    -0.197 NA
ENDBRANCH  21  22
ENDBRANCH  20  21
ENDBRANCH   9  20
TORSDOF 6
