REMARK  Name = ZINC44136342
REMARK  7 active torsions:
REMARK  status: ('A' for Active; 'I' for Inactive)
REMARK    1  A    between atoms: C_1  and  C_2
REMARK    2  A    between atoms: C_2  and  C_3
REMARK    3  A    between atoms: C_2  and  C_4
REMARK    4  A    between atoms: C_2  and  O_5
REMARK    5  A    between atoms: O_5  and  C_6
REMARK    6  A    between atoms: C_11  and  N_24
REMARK    7  A    between atoms: C_13  and  C_16
REMARK                            x       y       z     vdW  Elec       q    Type
REMARK                         _______ _______ _______ _____ _____    ______ ____
ROOT
ATOM      1  C   UNL     1       1.554  -0.984  -0.979  0.00  0.00    +0.403 C 
ATOM      2  O   UNL     1       2.024  -0.592   0.071  0.00  0.00    -0.226 OA
ATOM      3  N   UNL     1       2.263  -0.869  -2.119  0.00  0.00    -0.267 N 
ATOM      4  C   UNL     1       1.706  -1.333  -3.397  0.00  0.00    +0.109 C 
ATOM      5  C   UNL     1       2.703  -2.297  -4.048  0.00  0.00    +0.003 C 
ATOM      6  C   UNL     1       4.066  -1.612  -4.169  0.00  0.00    -0.065 C 
ATOM      7  C   UNL     1       4.582  -1.252  -2.774  0.00  0.00    +0.022 C 
ATOM      8  C   UNL     1       3.605  -0.270  -2.110  0.00  0.00    +0.117 C 
ENDROOT
BRANCH   7   9
ATOM      9  C   UNL     1       5.939  -0.607  -2.891  0.00  0.00    -0.039 A 
ATOM     10  C   UNL     1       6.054   0.671  -3.404  0.00  0.00    +0.042 A 
ATOM     11  C   UNL     1       7.301   1.265  -3.513  0.00  0.00    +0.126 A 
ATOM     12  C   UNL     1       8.432   0.577  -3.107  0.00  0.00    +0.076 A 
ATOM     13  C   UNL     1       8.315  -0.703  -2.594  0.00  0.00    +0.126 A 
ATOM     14  C   UNL     1       7.067  -1.292  -2.481  0.00  0.00    +0.042 A 
ATOM     15  F   UNL     1       9.418  -1.375  -2.197  0.00  0.00    -0.205 F 
ATOM     16  F   UNL     1       7.413   2.514  -4.015  0.00  0.00    -0.205 F 
ENDBRANCH   7   9
BRANCH   6  17
ATOM     17  N   UNL     1       3.929  -0.388  -4.971  0.00  0.00    +0.380 N 
ATOM     18  H   UNL     1       3.380   0.288  -4.461  0.00  0.00    -0.090 HD
ATOM     19  H   UNL     1       4.844  -0.006  -5.159  0.00  0.00    -0.090 HD
ATOM     20  H   UNL     1       3.470  -0.607  -5.842  0.00  0.00    -0.090 HD
ENDBRANCH   6  17
BRANCH   1  21
ATOM     21  O   UNL     1       0.326  -1.534  -1.003  0.00  0.00    -0.445 OA
BRANCH  21  23
ATOM     22  C   UNL     1      -0.557  -0.223   0.825  0.00  0.00    +0.055 C 
ATOM     23  C   UNL     1      -0.369  -1.625   0.243  0.00  0.00    +0.107 C 
ATOM     24  C   UNL     1       0.445  -2.478   1.219  0.00  0.00    +0.055 C 
ATOM     25  C   UNL     1      -1.737  -2.272   0.018  0.00  0.00    +0.055 C 
ENDBRANCH  21  23
ENDBRANCH   1  21
TORSDOF 4
