REMARK  Name = ZINC20191205
REMARK  3 active torsions:
REMARK  status: ('A' for Active; 'I' for Inactive)
REMARK    1  A    between atoms: C_4  and  N_7
REMARK    2  A    between atoms: C_14  and  C_24
REMARK    3  A    between atoms: C_18  and  N_23
REMARK                            x       y       z     vdW  Elec       q    Type
REMARK                         _______ _______ _______ _____ _____    ______ ____
ROOT
ATOM      1  N   UNL     1      -3.766  -1.421  -0.976  0.00  0.00    -0.327 N 
ATOM      2  C   UNL     1      -3.631  -0.591   0.229  0.00  0.00    +0.124 C 
ATOM      3  C   UNL     1      -2.335   0.219   0.145  0.00  0.00    +0.125 C 
ATOM      4  N   UNL     1      -1.195  -0.699   0.010  0.00  0.00    -0.311 N 
ATOM      5  C   UNL     1      -1.330  -1.528  -1.196  0.00  0.00    +0.125 C 
ATOM      6  C   UNL     1      -2.626  -2.338  -1.111  0.00  0.00    +0.124 C 
ATOM      7  C   UNL     1       0.002  -0.004   0.002  0.00  0.00    +0.140 A 
ATOM      8  C   UNL     1       0.950  -0.245   1.025  0.00  0.00    +0.092 A 
ATOM      9  C   UNL     1       2.151   0.452   1.018  0.00  0.00    +0.032 A 
ATOM     10  C   UNL     1       2.375   1.377  -0.018  0.00  0.00    +0.003 A 
ATOM     11  C   UNL     1       3.568   2.114  -0.084  0.00  0.00    +0.032 A 
ATOM     12  C   UNL     1       3.755   3.012  -1.113  0.00  0.00    +0.025 A 
ATOM     13  C   UNL     1       2.767   3.191  -2.087  0.00  0.00    +0.025 A 
ATOM     14  C   UNL     1       1.603   2.488  -2.043  0.00  0.00    +0.030 A 
ATOM     15  C   UNL     1       1.378   1.563  -1.009  0.00  0.00    +0.073 A 
ATOM     16  N   UNL     1       0.236   0.866  -0.956  0.00  0.00    -0.231 NA
ENDROOT
BRANCH   1  20
ATOM     17  C   UNL     1      -7.367  -3.511  -0.952  0.00  0.00    +0.000 A 
ATOM     18  C   UNL     1      -6.491  -3.658  -2.012  0.00  0.00    +0.002 A 
ATOM     19  C   UNL     1      -5.296  -2.966  -2.023  0.00  0.00    +0.023 A 
ATOM     20  C   UNL     1      -4.974  -2.122  -0.968  0.00  0.00    +0.030 A 
ATOM     21  C   UNL     1      -5.854  -1.980   0.097  0.00  0.00    +0.023 A 
ATOM     22  C   UNL     1      -7.050  -2.671   0.099  0.00  0.00    +0.002 A 
ENDBRANCH   1  20
BRANCH  12  23
ATOM     23  N   UNL     1       4.940   3.749  -1.183  0.00  0.00    -0.358 N 
ATOM     24  H   UNL     1       5.093   4.467  -2.002  0.00  0.00    +0.142 HD
ATOM     25  H   UNL     1       5.720   3.611  -0.420  0.00  0.00    +0.142 HD
ENDBRANCH  12  23
BRANCH   8  26
ATOM     26  C   UNL     1       0.673  -1.198   2.058  0.00  0.00    +0.103 C 
ATOM     27  N   UNL     1       0.454  -1.953   2.877  0.00  0.00    -0.191 NA
ENDBRANCH   8  26
TORSDOF 3
