REMARK  Name = ZINC04279758
REMARK  5 active torsions:
REMARK  status: ('A' for Active; 'I' for Inactive)
REMARK    1  A    between atoms: C_1  and  C_2
REMARK    2  A    between atoms: C_6  and  C_8
REMARK    3  A    between atoms: C_12  and  C_28
REMARK    4  A    between atoms: C_13  and  C_25
REMARK    5  A    between atoms: C_14  and  C_18
REMARK                            x       y       z     vdW  Elec       q    Type
REMARK                         _______ _______ _______ _____ _____    ______ ____
ROOT
ATOM      1  C   UNL     1      -0.133  -2.383   2.626  0.00  0.00    +0.151 C 
ATOM      2  N   UNL     1      -0.093  -3.759   2.554  0.00  0.00    -0.269 N 
ATOM      3  C   UNL     1      -0.029  -4.253   3.825  0.00  0.00    +0.209 C 
ATOM      4  N   UNL     1       0.028  -5.493   4.284  0.00  0.00    -0.221 NA
ATOM      5  C   UNL     1       0.088  -5.823   5.564  0.00  0.00    +0.052 C 
ATOM      6  C   UNL     1       0.097  -4.872   6.549  0.00  0.00    +0.062 C 
ATOM      7  C   UNL     1       0.035  -3.420   6.108  0.00  0.00    +0.168 C 
ATOM      8  N   UNL     1      -0.029  -3.186   4.658  0.00  0.00    -0.181 N 
ATOM      9  N   UNL     1      -0.090  -2.028   3.881  0.00  0.00    -0.160 NA
ATOM     10  C   UNL     1       0.148  -7.279   5.947  0.00  0.00    +0.066 C 
ATOM     11  H   UNL     1      -0.109  -4.287   1.740  0.00  0.00    +0.156 HD
ENDROOT
BRANCH   1  17
ATOM     12  C   UNL     1      -0.335   2.263   0.816  0.00  0.00    +0.044 C 
ATOM     13  C   UNL     1      -0.304   0.773   0.595  0.00  0.00    -0.050 A 
ATOM     14  C   UNL     1      -0.344   0.264  -0.691  0.00  0.00    +0.003 A 
ATOM     15  C   UNL     1      -0.316  -1.103  -0.901  0.00  0.00    +0.001 A 
ATOM     16  C   UNL     1      -0.247  -1.968   0.172  0.00  0.00    +0.011 A 
ATOM     17  C   UNL     1      -0.207  -1.461   1.471  0.00  0.00    +0.017 A 
ATOM     18  C   UNL     1      -0.230  -0.082   1.676  0.00  0.00    +0.014 A 
ENDBRANCH   1  17
BRANCH   7  19
ATOM     19  C   UNL     1      -1.183  -2.791   6.735  0.00  0.00    -0.020 A 
ATOM     20  C   UNL     1      -2.446  -3.159   6.311  0.00  0.00    +0.007 A 
ATOM     21  C   UNL     1      -3.563  -2.582   6.886  0.00  0.00    +0.020 A 
ATOM     22  C   UNL     1      -3.416  -1.636   7.885  0.00  0.00    +0.041 A 
ATOM     23  C   UNL     1      -2.151  -1.269   8.309  0.00  0.00    +0.020 A 
ATOM     24  C   UNL     1      -1.035  -1.851   7.737  0.00  0.00    +0.007 A 
ATOM     25 CL   UNL     1      -4.818  -0.911   8.607  0.00  0.00    -0.084 Cl
ENDBRANCH   7  19
BRANCH   6  26
ATOM     26  C   UNL     1       0.161  -5.223   7.907  0.00  0.00    +0.241 C 
ATOM     27  O   UNL     1       0.095  -6.394   8.238  0.00  0.00    -0.271 OA
ATOM     28  N   UNL     1       0.295  -4.264   8.846  0.00  0.00    -0.325 N 
ATOM     29  H   UNL     1       0.279  -3.329   8.589  0.00  0.00    +0.145 HD
ATOM     30  H   UNL     1       0.409  -4.510   9.777  0.00  0.00    +0.145 HD
ENDBRANCH   6  26
TORSDOF 3
