REMARK  Name = ZINC29128222
REMARK  11 active torsions:
REMARK  status: ('A' for Active; 'I' for Inactive)
REMARK    1  A    between atoms: C_1  and  C_2
REMARK    2  A    between atoms: C_6  and  C_28
REMARK    3  A    between atoms: C_7  and  C_8
REMARK    4  A    between atoms: C_8  and  N_9
REMARK    5  A    between atoms: N_9  and  C_10
REMARK    6  A    between atoms: C_12  and  C_23
REMARK    7  A    between atoms: C_18  and  C_22
REMARK    8  A    between atoms: C_19  and  C_20
REMARK    9  A    between atoms: C_20  and  O_21
REMARK   10  A    between atoms: N_25  and  C_26
REMARK   11  A    between atoms: N_25  and  C_27
REMARK                            x       y       z     vdW  Elec       q    Type
REMARK                         _______ _______ _______ _____ _____    ______ ____
ROOT
ATOM      1  C   UNL     1      -1.317  -0.741   1.033  0.00  0.00    +0.055 A 
ATOM      2  C   UNL     1      -2.504  -0.075   0.753  0.00  0.00    +0.056 A 
ATOM      3  C   UNL     1      -3.677  -0.809   0.573  0.00  0.00    +0.104 A 
ATOM      4  N   UNL     1      -3.678  -2.131   0.665  0.00  0.00    -0.349 N 
ATOM      5  C   UNL     1      -2.568  -2.809   0.931  0.00  0.00    +0.072 A 
ATOM      6  C   UNL     1      -1.345  -2.137   1.119  0.00  0.00    +0.085 A 
ATOM      7  N   UNL     1      -0.389  -3.090   1.380  0.00  0.00    -0.355 N 
ATOM      8  H   UNL     1       0.652  -2.788   1.569  0.00  0.00    +0.166 HD
ATOM      9  C   UNL     1      -0.955  -4.334   1.355  0.00  0.00    +0.021 A 
ATOM     10  C   UNL     1      -2.268  -4.235   1.090  0.00  0.00    +0.022 A 
ATOM     11  C   UNL     1      -0.215  -5.625   1.591  0.00  0.00    +0.064 C 
ATOM     12  H   UNL     1      -4.613  -2.692   0.519  0.00  0.00    +0.166 HD
ENDROOT
BRANCH   3  13
ATOM     13  C   UNL     1      -4.941  -0.099   0.274  0.00  0.00    +0.262 C 
ATOM     14  O   UNL     1      -4.982   1.115   0.317  0.00  0.00    -0.268 OA
ATOM     15  N   UNL     1      -6.048  -0.799  -0.046  0.00  0.00    -0.302 N 
ATOM     16  C   UNL     1      -7.287  -0.096  -0.384  0.00  0.00    +0.132 C 
ATOM     17  C   UNL     1      -6.011  -2.264  -0.054  0.00  0.00    +0.132 C 
ENDBRANCH   3  13
BRANCH   1  18
ATOM     18  N   UNL     1      -0.129  -0.037   1.218  0.00  0.00    -0.338 N 
ATOM     19  H   UNL     1       0.803  -0.578   1.440  0.00  0.00    +0.146 HD
BRANCH  18  20
ATOM     20  C   UNL     1      -0.120   1.425   1.118  0.00  0.00    +0.137 C 
BRANCH  20  27
ATOM     21  C   UNL     1       0.732   2.097   3.796  0.00  0.00    +0.044 C 
ATOM     22  C   UNL     1       1.685   2.258   2.639  0.00  0.00    -0.046 A 
ATOM     23  C   UNL     1       2.967   2.724   2.860  0.00  0.00    +0.004 A 
ATOM     24  C   UNL     1       3.839   2.876   1.798  0.00  0.00    +0.001 A 
ATOM     25  C   UNL     1       3.430   2.559   0.516  0.00  0.00    +0.004 A 
ATOM     26  C   UNL     1       2.149   2.089   0.296  0.00  0.00    -0.046 A 
ATOM     27  C   UNL     1       1.277   1.936   1.358  0.00  0.00    -0.025 A 
ATOM     28  C   UNL     1       1.702   1.744  -1.101  0.00  0.00    +0.044 C 
ENDBRANCH  20  27
ENDBRANCH  18  20
ENDBRANCH   1  18
BRANCH  10  29
ATOM     29  C   UNL     1      -3.247  -5.375   0.977  0.00  0.00    +0.194 C 
BRANCH  29  30
ATOM     30  O   UNL     1      -3.298  -5.827  -0.378  0.00  0.00    -0.390 OA
ATOM     31  H   UNL     1      -3.962  -6.659  -0.656  0.00  0.00    +0.210 HD
ENDBRANCH  29  30
ENDBRANCH  10  29
TORSDOF 6
