REMARK  Name = ZINC22762400
REMARK  9 active torsions:
REMARK  status: ('A' for Active; 'I' for Inactive)
REMARK    1  A    between atoms: C_1  and  C_2
REMARK    2  A    between atoms: C_5  and  N_9
REMARK    3  A    between atoms: C_6  and  C_8
REMARK    4  A    between atoms: C_13  and  C_15
REMARK    5  A    between atoms: C_15  and  C_17
REMARK    6  A    between atoms: C_15  and  S_18
REMARK    7  A    between atoms: S_18  and  C_19
REMARK    8  A    between atoms: C_22  and  S_25
REMARK    9  A    between atoms: S_25  and  N_28
REMARK                            x       y       z     vdW  Elec       q    Type
REMARK                         _______ _______ _______ _____ _____    ______ ____
ROOT
ATOM      1  C   UNL     1       2.608  -0.079  -7.053  0.00  0.00    +0.136 C 
ATOM      2  C   UNL     1       3.065   1.170  -6.297  0.00  0.00    +0.029 C 
ENDROOT
BRANCH   1   7
ATOM      3  N   UNL     1       3.244   1.217 -11.638  0.00  0.00    -0.269 N 
ATOM      4  C   UNL     1       3.633   0.476 -10.582  0.00  0.00    +0.310 C 
ATOM      5  O   UNL     1       4.586  -0.272 -10.682  0.00  0.00    -0.252 OA
ATOM      6  N   UNL     1       2.965   0.564  -9.415  0.00  0.00    -0.239 N 
ATOM      7  C   UNL     1       3.354  -0.177  -8.358  0.00  0.00    +0.233 C 
ATOM      8  O   UNL     1       4.305  -0.923  -8.458  0.00  0.00    -0.274 OA
ATOM      9  H   UNL     1       2.328   1.823 -11.578  0.00  0.00    +0.156 HD
ATOM     10  H   UNL     1       2.103   1.240  -9.324  0.00  0.00    +0.159 HD
BRANCH   3  15
ATOM     11  C   UNL     1       6.330   1.210 -16.399  0.00  0.00    +0.044 C 
ATOM     12  C   UNL     1       5.510   1.212 -15.134  0.00  0.00    -0.050 A 
ATOM     13  C   UNL     1       6.108   0.910 -13.924  0.00  0.00    +0.005 A 
ATOM     14  C   UNL     1       5.359   0.911 -12.764  0.00  0.00    +0.024 A 
ATOM     15  C   UNL     1       4.005   1.215 -12.812  0.00  0.00    +0.038 A 
ATOM     16  C   UNL     1       3.407   1.513 -14.030  0.00  0.00    -0.029 A 
ATOM     17  C   UNL     1       4.162   1.516 -15.186  0.00  0.00    +0.008 A 
ATOM     18  C   UNL     1       1.936   1.837 -14.088  0.00  0.00    +0.045 C 
ENDBRANCH   3  15
ENDBRANCH   1   7
BRANCH   1  19
ATOM     19  S   UNL     1       2.948  -1.551  -6.049  0.00  0.00    -0.093 S 
BRANCH  19  20
ATOM     20  C   UNL     1       1.903  -1.360  -4.644  0.00  0.00    +0.098 A 
ATOM     21  C   UNL     1       1.906  -2.329  -3.644  0.00  0.00    +0.037 A 
ATOM     22  C   UNL     1       1.081  -2.166  -2.547  0.00  0.00    +0.032 A 
ATOM     23  C   UNL     1       0.277  -1.034  -2.484  0.00  0.00    +0.124 A 
ATOM     24  C   UNL     1       0.320  -0.116  -3.513  0.00  0.00    +0.140 A 
ATOM     25  N   UNL     1       1.121  -0.295  -4.547  0.00  0.00    -0.247 NA
BRANCH  23  26
ATOM     26  S   UNL     1      -0.792  -0.778  -1.107  0.00  0.00    +0.062 S 
ATOM     27  O   UNL     1      -1.048  -2.059  -0.547  0.00  0.00    -0.153 OA
ATOM     28  O   UNL     1      -1.833   0.079  -1.555  0.00  0.00    -0.153 OA
BRANCH  26  29
ATOM     29  N   UNL     1       0.065   0.071   0.027  0.00  0.00    -0.177 NA
ATOM     30  C   UNL     1       0.054   1.541   0.028  0.00  0.00    +0.109 C 
ATOM     31  C   UNL     1       1.500   2.045   0.006  0.00  0.00    +0.017 C 
ATOM     32  C   UNL     1       2.271   1.421   1.171  0.00  0.00    +0.003 C 
ATOM     33  C   UNL     1       2.288  -0.101   1.018  0.00  0.00    +0.017 C 
ATOM     34  C   UNL     1       0.851  -0.630   1.052  0.00  0.00    +0.109 C 
ENDBRANCH  26  29
ENDBRANCH  23  26
ENDBRANCH  19  20
ENDBRANCH   1  19
TORSDOF 6
