REMARK  Name = ZINC48305410
REMARK  12 active torsions:
REMARK  status: ('A' for Active; 'I' for Inactive)
REMARK    1  A    between atoms: C_1  and  C_2
REMARK    2  A    between atoms: C_2  and  C_4
REMARK    3  A    between atoms: C_2  and  N_10
REMARK    4  A    between atoms: C_4  and  N_5
REMARK    5  A    between atoms: N_13  and  C_14
REMARK    6  A    between atoms: C_14  and  C_15
REMARK    7  A    between atoms: C_20  and  C_21
REMARK    8  A    between atoms: C_21  and  S_22
REMARK    9  A    between atoms: S_22  and  N_25
REMARK   10  A    between atoms: N_25  and  C_26
REMARK   11  A    between atoms: C_26  and  C_27
REMARK   12  A    between atoms: C_26  and  C_28
REMARK                            x       y       z     vdW  Elec       q    Type
REMARK                         _______ _______ _______ _____ _____    ______ ____
ROOT
ATOM      1  C   UNL     1      -4.053  -1.252  -2.393  0.00  0.00    +0.141 C 
ENDROOT
BRANCH   1   5
ATOM      2  N   UNL     1      -1.372  -0.511   0.012  0.00  0.00    -0.295 N 
ATOM      3  C   UNL     1      -2.051  -0.643  -1.145  0.00  0.00    +0.300 C 
ATOM      4  O   UNL     1      -1.522  -0.341  -2.197  0.00  0.00    -0.253 OA
ATOM      5  N   UNL     1      -3.315  -1.109  -1.135  0.00  0.00    -0.295 N 
ATOM      6  H   UNL     1      -1.794  -0.752   0.852  0.00  0.00    +0.151 HD
ATOM      7  H   UNL     1      -3.737  -1.350  -0.295  0.00  0.00    +0.151 HD
BRANCH   2   9
ATOM      8  C   UNL     1      -0.019   1.526   0.010  0.00  0.00    +0.029 C 
ATOM      9  C   UNL     1       0.002  -0.004   0.002  0.00  0.00    +0.091 C 
BRANCH   9  10
ATOM     10  C   UNL     1       0.742  -0.511   1.242  0.00  0.00    +0.144 C 
BRANCH  10  11
ATOM     11  N   UNL     1       0.866  -1.969   1.174  0.00  0.00    -0.337 N 
ATOM     12  C   UNL     1      -0.028  -2.884   1.661  0.00  0.00    +0.104 A 
ATOM     13  C   UNL     1       0.474  -4.103   1.387  0.00  0.00    +0.101 A 
ATOM     14  N   UNL     1       1.643  -3.937   0.750  0.00  0.00    -0.352 N 
ATOM     15  C   UNL     1       1.882  -2.662   0.614  0.00  0.00    +0.173 A 
ATOM     16  H   UNL     1       2.218  -4.653   0.436  0.00  0.00    +0.166 HD
ENDBRANCH  10  11
ENDBRANCH   9  10
ENDBRANCH   2   9
ENDBRANCH   1   5
BRANCH   1  17
ATOM     17  C   UNL     1      -5.432  -1.789  -2.108  0.00  0.00    -0.026 A 
ATOM     18  C   UNL     1      -5.701  -3.133  -2.288  0.00  0.00    +0.005 A 
ATOM     19  C   UNL     1      -6.966  -3.626  -2.027  0.00  0.00    +0.000 A 
ATOM     20  C   UNL     1      -7.962  -2.774  -1.585  0.00  0.00    +0.000 A 
ATOM     21  C   UNL     1      -7.692  -1.431  -1.405  0.00  0.00    +0.005 A 
ATOM     22  C   UNL     1      -6.426  -0.939  -1.662  0.00  0.00    -0.020 A 
BRANCH  22  23
ATOM     23  C   UNL     1      -6.131   0.525  -1.460  0.00  0.00    +0.220 C 
BRANCH  23  24
ATOM     24  S   UNL     1      -6.469   1.428  -2.997  0.00  0.00    +0.034 S 
ATOM     25  O   UNL     1      -5.533   1.055  -3.999  0.00  0.00    -0.158 OA
ATOM     26  O   UNL     1      -7.863   1.424  -3.270  0.00  0.00    -0.158 OA
BRANCH  24  27
ATOM     27  N   UNL     1      -6.110   3.007  -2.650  0.00  0.00    -0.192 NA
ATOM     28  H   UNL     1      -6.812   3.676  -2.655  0.00  0.00    +0.148 HD
BRANCH  27  29
ATOM     29  C   UNL     1      -4.732   3.393  -2.337  0.00  0.00    +0.070 C 
ATOM     30  C   UNL     1      -4.042   3.897  -3.607  0.00  0.00    +0.025 C 
ATOM     31  C   UNL     1      -4.741   4.505  -1.286  0.00  0.00    +0.025 C 
ENDBRANCH  27  29
ENDBRANCH  24  27
ENDBRANCH  23  24
ENDBRANCH  22  23
ENDBRANCH   1  17
TORSDOF 9
