REMARK  Name = ZINC15684709
REMARK  8 active torsions:
REMARK  status: ('A' for Active; 'I' for Inactive)
REMARK    1  A    between atoms: C_1  and  C_2
REMARK    2  A    between atoms: C_4  and  C_17
REMARK    3  A    between atoms: C_5  and  C_16
REMARK    4  A    between atoms: N_6  and  C_7
REMARK    5  A    between atoms: C_10  and  N_13
REMARK    6  A    between atoms: C_18  and  C_19
REMARK    7  A    between atoms: C_18  and  C_21
REMARK    8  A    between atoms: N_23  and  C_24
REMARK                            x       y       z     vdW  Elec       q    Type
REMARK                         _______ _______ _______ _____ _____    ______ ____
ROOT
ATOM      1  C   UNL     1       3.207   3.514   2.450  0.00  0.00    +0.064 C 
ATOM      2  C   UNL     1       2.046   2.742   1.879  0.00  0.00    +0.022 A 
ATOM      3  C   UNL     1       2.101   1.482   1.416  0.00  0.00    +0.031 A 
ATOM      4  C   UNL     1       0.744   1.146   0.962  0.00  0.00    -0.003 A 
ATOM      5  C   UNL     1      -0.025   2.275   1.196  0.00  0.00    +0.028 A 
ATOM      6  N   UNL     1       0.768   3.214   1.749  0.00  0.00    -0.317 N 
ATOM      7  C   UNL     1      -1.493   2.425   0.890  0.00  0.00    +0.064 C 
ENDROOT
BRANCH   6   8
ATOM      8  C   UNL     1       0.346   4.494   2.130  0.00  0.00    +0.047 A 
ATOM      9  C   UNL     1      -0.579   4.645   3.155  0.00  0.00    +0.028 A 
ATOM     10  C   UNL     1      -0.990   5.909   3.532  0.00  0.00    +0.035 A 
ATOM     11  C   UNL     1      -0.488   7.023   2.883  0.00  0.00    +0.126 A 
ATOM     12  C   UNL     1       0.428   6.875   1.859  0.00  0.00    +0.035 A 
ATOM     13  C   UNL     1       0.847   5.614   1.481  0.00  0.00    +0.028 A 
BRANCH  11  14
ATOM     14  N   UNL     1      -0.935   8.375   3.286  0.00  0.00    +0.056 N 
ATOM     15  O   UNL     1      -0.494   9.357   2.715  0.00  0.00    -0.126 OA
ATOM     16  O   UNL     1      -1.742   8.506   4.188  0.00  0.00    -0.126 OA
ENDBRANCH  11  14
ENDBRANCH   6   8
BRANCH   4  17
ATOM     17  C   UNL     1       0.311  -0.079   0.395  0.00  0.00    +0.033 C 
ATOM     18  C   UNL     1       1.056  -0.680  -0.602  0.00  0.00    +0.114 C 
BRANCH  18  19
ATOM     19  C   UNL     1       2.154   0.056  -1.243  0.00  0.00    +0.259 C 
ATOM     20  O   UNL     1       2.323   1.235  -0.994  0.00  0.00    -0.269 OA
ATOM     21  N   UNL     1       2.974  -0.575  -2.107  0.00  0.00    -0.281 N 
ATOM     22  H   UNL     1       2.889  -1.531  -2.245  0.00  0.00    +0.155 HD
BRANCH  21  23
ATOM     23  C   UNL     1       3.947   0.150  -2.804  0.00  0.00    +0.034 A 
ATOM     24  C   UNL     1       3.711   1.473  -3.153  0.00  0.00    +0.026 A 
ATOM     25  C   UNL     1       4.675   2.189  -3.836  0.00  0.00    +0.040 A 
ATOM     26  C   UNL     1       5.872   1.584  -4.183  0.00  0.00    +0.124 A 
ATOM     27  C   UNL     1       6.106   0.262  -3.842  0.00  0.00    +0.040 A 
ATOM     28  C   UNL     1       5.147  -0.455  -3.153  0.00  0.00    +0.026 A 
ATOM     29  F   UNL     1       6.811   2.284  -4.856  0.00  0.00    -0.205 F 
ENDBRANCH  21  23
ENDBRANCH  18  19
BRANCH  18  30
ATOM     30  C   UNL     1       0.758  -2.020  -1.010  0.00  0.00    +0.104 C 
ATOM     31  N   UNL     1       0.521  -3.083  -1.333  0.00  0.00    -0.191 NA
ENDBRANCH  18  30
ENDBRANCH   4  17
TORSDOF 6
