REMARK  Name = ZINC58023059
REMARK  7 active torsions:
REMARK  status: ('A' for Active; 'I' for Inactive)
REMARK    1  A    between atoms: C_1  and  C_2
REMARK    2  A    between atoms: C_4  and  S_25
REMARK    3  A    between atoms: C_6  and  C_7
REMARK    4  A    between atoms: N_9  and  C_10
REMARK    5  A    between atoms: C_14  and  S_16
REMARK    6  A    between atoms: S_16  and  N_19
REMARK    7  A    between atoms: S_25  and  N_28
REMARK                            x       y       z     vdW  Elec       q    Type
REMARK                         _______ _______ _______ _____ _____    ______ ____
ROOT
ATOM      1  C   UNL     1       0.617  -0.424   2.606  0.00  0.00    +0.255 C 
ATOM      2  O   UNL     1       1.139   0.638   2.890  0.00  0.00    -0.269 OA
ATOM      3  N   UNL     1       0.052  -1.176   3.571  0.00  0.00    -0.281 N 
ATOM      4  H   UNL     1      -0.423  -1.989   3.337  0.00  0.00    +0.155 HD
ENDROOT
BRANCH   1  10
ATOM      5  C   UNL     1       1.826   1.060   0.149  0.00  0.00    +0.045 C 
ATOM      6  C   UNL     1       1.123  -0.271   0.086  0.00  0.00    -0.029 A 
ATOM      7  C   UNL     1       0.960  -0.956  -1.095  0.00  0.00    +0.040 A 
ATOM      8  C   UNL     1       0.317  -2.150  -1.080  0.00  0.00    +0.143 A 
ATOM      9  S   UNL     1      -0.087  -2.381   0.534  0.00  0.00    -0.064 S 
ATOM     10  C   UNL     1       0.603  -0.885   1.215  0.00  0.00    +0.079 A 
BRANCH   8  11
ATOM     11  S   UNL     1      -0.019  -3.215  -2.443  0.00  0.00    +0.062 S 
ATOM     12  O   UNL     1      -1.140  -4.006  -2.074  0.00  0.00    -0.153 OA
ATOM     13  O   UNL     1      -0.013  -2.400  -3.607  0.00  0.00    -0.153 OA
BRANCH  11  14
ATOM     14  N   UNL     1       1.266  -4.250  -2.583  0.00  0.00    -0.203 NA
ATOM     15  H   UNL     1       2.011  -4.184  -1.966  0.00  0.00    +0.144 HD
ATOM     16  H   UNL     1       1.273  -4.923  -3.283  0.00  0.00    +0.144 HD
ENDBRANCH  11  14
ENDBRANCH   8  11
ENDBRANCH   1  10
BRANCH   3  17
ATOM     17  C   UNL     1       0.149  -0.785   4.910  0.00  0.00    +0.036 A 
ATOM     18  C   UNL     1       0.122   0.563   5.245  0.00  0.00    +0.023 A 
ATOM     19  C   UNL     1       0.218   0.946   6.568  0.00  0.00    +0.004 A 
ATOM     20  C   UNL     1       0.342  -0.010   7.559  0.00  0.00    +0.029 A 
ATOM     21  C   UNL     1       0.369  -1.353   7.229  0.00  0.00    +0.114 A 
ATOM     22  C   UNL     1       0.268  -1.743   5.908  0.00  0.00    +0.052 A 
BRANCH  21  23
ATOM     23  S   UNL     1       0.527  -2.567   8.496  0.00  0.00    +0.100 S 
ATOM     24  O   UNL     1       1.075  -3.726   7.882  0.00  0.00    -0.146 OA
ATOM     25  O   UNL     1       1.148  -1.924   9.601  0.00  0.00    -0.146 OA
BRANCH  23  26
ATOM     26  N   UNL     1      -1.004  -2.970   8.982  0.00  0.00    -0.118 NA
ATOM     27  C   UNL     1      -1.177  -3.851   9.913  0.00  0.00    +0.117 C 
ATOM     28  N   UNL     1      -0.173  -4.511  10.572  0.00  0.00    -0.331 N 
ATOM     29  C   UNL     1      -0.694  -5.037  11.845  0.00  0.00    +0.103 C 
ATOM     30  C   UNL     1      -2.187  -5.319  11.564  0.00  0.00    +0.026 C 
ATOM     31  C   UNL     1      -2.517  -4.306  10.447  0.00  0.00    +0.074 C 
ATOM     32  H   UNL     1       0.736  -4.615  10.251  0.00  0.00    +0.147 HD
ENDBRANCH  23  26
ENDBRANCH  21  23
ENDBRANCH   3  17
TORSDOF 6
