REMARK  Name = ZINC45683802
REMARK  6 active torsions:
REMARK  status: ('A' for Active; 'I' for Inactive)
REMARK    1  A    between atoms: C_1  and  C_2
REMARK    2  A    between atoms: C_2  and  C_4
REMARK    3  A    between atoms: C_2  and  N_21
REMARK    4  A    between atoms: N_6  and  N_7
REMARK    5  A    between atoms: C_8  and  C_10
REMARK    6  A    between atoms: C_22  and  C_24
REMARK                            x       y       z     vdW  Elec       q    Type
REMARK                         _______ _______ _______ _____ _____    ______ ____
ROOT
ATOM      1  C   UNL     1       0.731  -0.503   1.223  0.00  0.00    +0.249 C 
ATOM      2  O   UNL     1       1.725  -1.187   1.099  0.00  0.00    -0.272 OA
ATOM      3  N   UNL     1       0.278  -0.191   2.453  0.00  0.00    -0.233 N 
ATOM      4  H   UNL     1      -0.517   0.356   2.553  0.00  0.00    +0.173 HD
ENDROOT
BRANCH   3   5
ATOM      5  N   UNL     1       0.955  -0.655   3.588  0.00  0.00    -0.231 N 
ATOM      6  C   UNL     1       0.502  -0.342   4.818  0.00  0.00    +0.273 C 
ATOM      7  O   UNL     1      -0.492   0.341   4.943  0.00  0.00    -0.270 OA
ATOM      8  H   UNL     1       1.751  -1.201   3.489  0.00  0.00    +0.173 HD
BRANCH   6   9
ATOM      9  C   UNL     1       1.231  -0.841   6.039  0.00  0.00    +0.297 C 
ATOM     10  C   UNL     1       1.135  -2.371   6.109  0.00  0.00    +0.283 C 
ATOM     11  O   UNL     1       1.824  -2.810   7.285  0.00  0.00    -0.484 OA
ATOM     12  C   UNL     1       1.563  -2.132   8.436  0.00  0.00    +0.162 A 
ATOM     13  C   UNL     1       1.895  -2.705   9.655  0.00  0.00    +0.049 A 
ATOM     14  C   UNL     1       1.639  -2.027  10.832  0.00  0.00    +0.004 A 
ATOM     15  C   UNL     1       1.050  -0.777  10.798  0.00  0.00    +0.004 A 
ATOM     16  C   UNL     1       0.715  -0.200   9.587  0.00  0.00    +0.049 A 
ATOM     17  C   UNL     1       0.969  -0.876   8.402  0.00  0.00    +0.163 A 
ATOM     18  O   UNL     1       0.626  -0.298   7.218  0.00  0.00    -0.472 OA
ENDBRANCH   6   9
ENDBRANCH   3   5
BRANCH   1  20
ATOM     19  C   UNL     1      -0.019   1.526   0.010  0.00  0.00    +0.038 C 
ATOM     20  C   UNL     1       0.002  -0.004   0.002  0.00  0.00    +0.158 C 
BRANCH  20  21
ATOM     21  N   UNL     1       0.688  -0.476  -1.203  0.00  0.00    -0.300 N 
ATOM     22  C   UNL     1       0.006  -0.608  -2.358  0.00  0.00    +0.251 C 
ATOM     23  O   UNL     1      -1.179  -0.335  -2.400  0.00  0.00    -0.270 OA
ATOM     24  H   UNL     1       1.632  -0.695  -1.170  0.00  0.00    +0.150 HD
BRANCH  22  25
ATOM     25  C   UNL     1       0.692  -1.081  -3.564  0.00  0.00    +0.074 A 
ATOM     26  C   UNL     1       0.183  -1.278  -4.839  0.00  0.00    +0.021 A 
ATOM     27  C   UNL     1       1.079  -1.734  -5.776  0.00  0.00    +0.008 A 
ATOM     28  C   UNL     1       2.365  -1.956  -5.405  0.00  0.00    +0.046 A 
ATOM     29  S   UNL     1       2.401  -1.544  -3.777  0.00  0.00    -0.092 S 
ENDBRANCH  22  25
ENDBRANCH  20  21
ENDBRANCH   1  20
TORSDOF 5
