REMARK  Name = ZINC64827862
REMARK  8 active torsions:
REMARK  status: ('A' for Active; 'I' for Inactive)
REMARK    1  A    between atoms: C_1  and  C_2
REMARK    2  A    between atoms: C_5  and  O_25
REMARK    3  A    between atoms: C_6  and  C_8
REMARK    4  A    between atoms: N_10  and  C_11
REMARK    5  A    between atoms: C_13  and  C_21
REMARK    6  A    between atoms: C_16  and  N_17
REMARK    7  A    between atoms: C_18  and  C_20
REMARK    8  A    between atoms: O_25  and  C_26
REMARK                            x       y       z     vdW  Elec       q    Type
REMARK                         _______ _______ _______ _____ _____    ______ ____
ROOT
ATOM      1  C   UNL     1      -0.032  -2.893   4.841  0.00  0.00    +0.056 A 
ATOM      2  C   UNL     1      -0.612  -4.152   4.871  0.00  0.00    +0.037 A 
ATOM      3  C   UNL     1      -0.693  -4.848   6.062  0.00  0.00    +0.057 A 
ATOM      4  C   UNL     1      -0.197  -4.291   7.228  0.00  0.00    +0.014 A 
ATOM      5  C   UNL     1       0.382  -3.036   7.207  0.00  0.00    +0.026 A 
ATOM      6  C   UNL     1       0.473  -2.334   6.014  0.00  0.00    +0.055 A 
ENDROOT
BRANCH   6   7
ATOM      7  N   UNL     1       1.064  -1.064   5.990  0.00  0.00    -0.284 N 
ATOM      8  C   UNL     1       1.092  -0.312   7.108  0.00  0.00    +0.214 C 
ATOM      9  O   UNL     1       0.519  -0.690   8.108  0.00  0.00    -0.276 OA
ATOM     10  C   UNL     1       1.837   0.998   7.117  0.00  0.00    +0.109 C 
ATOM     11  H   UNL     1       1.454  -0.726   5.169  0.00  0.00    +0.155 HD
ENDBRANCH   6   7
BRANCH   1  14
ATOM     12  C   UNL     1       0.053  -2.852   2.463  0.00  0.00    +0.252 C 
ATOM     13  O   UNL     1       0.084  -4.068   2.454  0.00  0.00    -0.270 OA
ATOM     14  N   UNL     1       0.051  -2.187   3.635  0.00  0.00    -0.280 N 
ATOM     15  H   UNL     1       0.107  -1.218   3.642  0.00  0.00    +0.155 HD
BRANCH  12  21
ATOM     16  C   UNL     1      -0.094   1.487   0.011  0.00  0.00    +0.044 C 
ATOM     17  C   UNL     1      -0.054  -0.019   0.004  0.00  0.00    -0.050 A 
ATOM     18  C   UNL     1      -0.051  -0.703  -1.201  0.00  0.00    +0.007 A 
ATOM     19  C   UNL     1      -0.015  -2.083  -1.220  0.00  0.00    +0.046 A 
ATOM     20  C   UNL     1       0.019  -2.795  -0.030  0.00  0.00    +0.132 A 
ATOM     21  C   UNL     1       0.017  -2.107   1.191  0.00  0.00    +0.079 A 
ATOM     22  C   UNL     1      -0.014  -0.710   1.196  0.00  0.00    +0.020 A 
BRANCH  20  23
ATOM     23  O   UNL     1       0.054  -4.151  -0.048  0.00  0.00    -0.494 OA
ATOM     24  C   UNL     1       0.053  -4.783  -1.329  0.00  0.00    +0.277 C 
ENDBRANCH  20  23
ENDBRANCH  12  21
ENDBRANCH   1  14
BRANCH   3  25
ATOM     25  C   UNL     1      -1.323  -6.216   6.093  0.00  0.00    +0.417 C 
ATOM     26  F   UNL     1      -0.341  -7.187   5.862  0.00  0.00    -0.166 F 
ATOM     27  F   UNL     1      -1.908  -6.433   7.345  0.00  0.00    -0.166 F 
ATOM     28  F   UNL     1      -2.304  -6.300   5.099  0.00  0.00    -0.166 F 
ENDBRANCH   3  25
TORSDOF 5
