REMARK  Name = ZINC15072100
REMARK  8 active torsions:
REMARK  status: ('A' for Active; 'I' for Inactive)
REMARK    1  A    between atoms: C_1  and  C_2
REMARK    2  A    between atoms: C_7  and  O_8
REMARK    3  A    between atoms: O_8  and  C_9
REMARK    4  A    between atoms: C_10  and  C_15
REMARK    5  A    between atoms: C_15  and  N_16
REMARK    6  A    between atoms: C_17  and  C_19
REMARK    7  A    between atoms: C_19  and  C_21
REMARK    8  A    between atoms: C_19  and  N_22
REMARK                            x       y       z     vdW  Elec       q    Type
REMARK                         _______ _______ _______ _____ _____    ______ ____
ROOT
ATOM      1  C   UNL     1       8.299   2.759   1.454  0.00  0.00    +0.225 A 
ATOM      2  C   UNL     1       7.674   1.638   1.984  0.00  0.00    +0.032 A 
ATOM      3  C   UNL     1       8.416   0.489   2.193  0.00  0.00    +0.012 A 
ATOM      4  C   UNL     1       9.762   0.499   1.853  0.00  0.00    +0.020 A 
ATOM      5  C   UNL     1      10.318   1.649   1.330  0.00  0.00    +0.114 A 
ATOM      6  N   UNL     1       9.585   2.731   1.147  0.00  0.00    -0.221 NA
ENDROOT
BRANCH   1   7
ATOM      7  O   UNL     1       7.584   3.894   1.249  0.00  0.00    -0.437 OA
BRANCH   7  14
ATOM      8  C   UNL     1       8.759   5.528   3.231  0.00  0.00    +0.047 C 
ATOM      9  C   UNL     1       8.848   5.843   1.760  0.00  0.00    -0.008 A 
ATOM     10  C   UNL     1       9.526   6.969   1.333  0.00  0.00    +0.007 A 
ATOM     11  C   UNL     1       9.608   7.258  -0.016  0.00  0.00    +0.000 A 
ATOM     12  C   UNL     1       9.013   6.421  -0.943  0.00  0.00    +0.004 A 
ATOM     13  C   UNL     1       8.340   5.291  -0.522  0.00  0.00    +0.046 A 
ATOM     14  C   UNL     1       8.251   5.002   0.832  0.00  0.00    +0.133 A 
ENDBRANCH   7  14
ENDBRANCH   1   7
BRANCH   2  15
ATOM     15  C   UNL     1       6.208   1.674   2.334  0.00  0.00    +0.145 C 
BRANCH  15  16
ATOM     16  N   UNL     1       5.412   1.493   1.117  0.00  0.00    -0.310 N 
ATOM     17  C   UNL     1       4.066   1.490   1.187  0.00  0.00    +0.234 C 
ATOM     18  O   UNL     1       3.514   1.639   2.257  0.00  0.00    -0.274 OA
ATOM     19  H   UNL     1       5.853   1.374   0.262  0.00  0.00    +0.149 HD
BRANCH  17  20
ATOM     20  C   UNL     1       3.247   1.304  -0.064  0.00  0.00    +0.159 C 
ATOM     21  C   UNL     1       3.563   2.427  -1.053  0.00  0.00    +0.038 C 
BRANCH  20  22
ATOM     22  N   UNL     1       1.822   1.339   0.276  0.00  0.00    -0.290 N 
ATOM     23  C   UNL     1       0.885   0.236   0.033  0.00  0.00    +0.109 C 
ATOM     24  C   UNL     1      -0.344   0.536   0.919  0.00  0.00    +0.028 C 
ATOM     25  C   UNL     1      -0.260   2.073   1.065  0.00  0.00    +0.097 C 
ATOM     26  C   UNL     1       1.205   2.386   0.849  0.00  0.00    +0.216 C 
ATOM     27  O   UNL     1       1.743   3.431   1.149  0.00  0.00    -0.276 OA
ENDBRANCH  20  22
ENDBRANCH  17  20
ENDBRANCH  15  16
ENDBRANCH   2  15
TORSDOF 6
