REMARK  Name = ZINC06481312
REMARK  17 active torsions:
REMARK  status: ('A' for Active; 'I' for Inactive)
REMARK    1  A    between atoms: C_1  and  C_2
REMARK    2  A    between atoms: C_2  and  C_3
REMARK    3  A    between atoms: C_3  and  C_4
REMARK    4  A    between atoms: C_4  and  C_5
REMARK    5  A    between atoms: C_5  and  C_7
REMARK    6  A    between atoms: C_5  and  N_14
REMARK    7  A    between atoms: N_9  and  C_10
REMARK    8  A    between atoms: C_10  and  C_11
REMARK    9  A    between atoms: C_10  and  C_12
REMARK   10  A    between atoms: C_10  and  C_13
REMARK   11  A    between atoms: N_14  and  C_15
REMARK   12  A    between atoms: C_18  and  O_21
REMARK   13  A    between atoms: O_21  and  C_22
REMARK   14  A    between atoms: C_22  and  C_23
REMARK   15  A    between atoms: C_24  and  C_26
REMARK   16  A    between atoms: C_27  and  N_34
REMARK   17  A    between atoms: C_28  and  C_31
REMARK                            x       y       z     vdW  Elec       q    Type
REMARK                         _______ _______ _______ _____ _____    ______ ____
ROOT
ATOM      1  N   UNL     1       0.047  -0.311   2.571  0.00  0.00    -0.255 N 
ATOM      2  C   UNL     1      -1.012  -1.107   2.324  0.00  0.00    +0.261 C 
ATOM      3  O   UNL     1      -0.850  -2.301   2.152  0.00  0.00    -0.269 OA
ENDROOT
BRANCH   1   4
ATOM      4  C   UNL     1       1.346  -0.826   2.474  0.00  0.00    +0.038 A 
ATOM      5  C   UNL     1       2.439   0.028   2.551  0.00  0.00    +0.027 A 
ATOM      6  C   UNL     1       3.720  -0.480   2.462  0.00  0.00    +0.047 A 
ATOM      7  C   UNL     1       3.915  -1.842   2.284  0.00  0.00    +0.121 A 
ATOM      8  C   UNL     1       2.824  -2.695   2.201  0.00  0.00    +0.047 A 
ATOM      9  C   UNL     1       1.542  -2.189   2.296  0.00  0.00    +0.027 A 
BRANCH   7  10
ATOM     10  O   UNL     1       5.176  -2.341   2.190  0.00  0.00    -0.492 OA
BRANCH  10  11
ATOM     11  C   UNL     1       6.253  -1.406   2.284  0.00  0.00    +0.225 C 
ATOM     12  C   UNL     1       7.585  -2.148   2.157  0.00  0.00    +0.048 C 
ENDBRANCH  10  11
ENDBRANCH   7  10
ENDBRANCH   1   4
BRANCH   2  13
ATOM     13  C   UNL     1      -2.358  -0.535   2.263  0.00  0.00    +0.116 A 
ATOM     14  C   UNL     1      -3.595  -1.182   2.254  0.00  0.00    +0.076 A 
ATOM     15  C   UNL     1      -4.665  -0.289   2.188  0.00  0.00    +0.155 A 
ATOM     16  N   UNL     1      -4.423   1.002   2.144  0.00  0.00    -0.203 NA
ATOM     17  S   UNL     1      -2.857   1.173   2.190  0.00  0.00    +0.019 S 
BRANCH  15  18
ATOM     18  C   UNL     1      -6.052  -0.788   2.168  0.00  0.00    +0.262 C 
ATOM     19  O   UNL     1      -6.269  -1.984   2.209  0.00  0.00    -0.269 OA
ATOM     20  N   UNL     1      -7.080   0.081   2.104  0.00  0.00    -0.324 N 
ATOM     21  H   UNL     1      -6.908   1.035   2.072  0.00  0.00    +0.145 HD
ATOM     22  H   UNL     1      -7.993  -0.248   2.091  0.00  0.00    +0.145 HD
ENDBRANCH  15  18
BRANCH  14  23
ATOM     23  N   UNL     1      -3.744  -2.562   2.304  0.00  0.00    -0.355 N 
ATOM     24  H   UNL     1      -2.962  -3.133   2.349  0.00  0.00    +0.142 HD
ATOM     25  H   UNL     1      -4.631  -2.954   2.294  0.00  0.00    +0.142 HD
ENDBRANCH  14  23
ENDBRANCH   2  13
BRANCH   1  26
ATOM     26  C   UNL     1      -0.160   1.091   2.940  0.00  0.00    +0.167 C 
BRANCH  26  27
ATOM     27  C   UNL     1       0.341   1.981   1.831  0.00  0.00    +0.234 C 
ATOM     28  O   UNL     1       1.042   1.522   0.955  0.00  0.00    -0.274 OA
ATOM     29  N   UNL     1       0.008   3.287   1.814  0.00  0.00    -0.309 N 
ATOM     30  H   UNL     1      -0.553   3.654   2.515  0.00  0.00    +0.149 HD
BRANCH  29  31
ATOM     31  C   UNL     1       0.495   4.153   0.737  0.00  0.00    +0.026 C 
ATOM     32  C   UNL     1      -0.009   3.625  -0.608  0.00  0.00    +0.031 C 
ATOM     33  C   UNL     1      -0.023   5.576   0.953  0.00  0.00    +0.031 C 
ATOM     34  C   UNL     1       2.025   4.160   0.740  0.00  0.00    +0.031 C 
ENDBRANCH  29  31
ENDBRANCH  26  27
BRANCH  26  35
ATOM     35  C   UNL     1       0.608   1.399   4.227  0.00  0.00    +0.032 C 
BRANCH  35  36
ATOM     36  C   UNL     1       0.013   0.590   5.381  0.00  0.00    +0.002 C 
BRANCH  36  38
ATOM     37  C   UNL     1       0.186   0.089   7.823  0.00  0.00    +0.004 C 
ATOM     38  C   UNL     1       0.781   0.897   6.668  0.00  0.00    -0.003 C 
ENDBRANCH  36  38
ENDBRANCH  35  36
ENDBRANCH  26  35
ENDBRANCH   1  26
TORSDOF 12
