REMARK  Name = ZINC39655274
REMARK  6 active torsions:
REMARK  status: ('A' for Active; 'I' for Inactive)
REMARK    1  A    between atoms: C_4  and  N_7
REMARK    2  A    between atoms: N_7  and  C_8
REMARK    3  A    between atoms: C_8  and  C_9
REMARK    4  A    between atoms: C_9  and  N_10
REMARK    5  A    between atoms: C_11  and  C_13
REMARK    6  A    between atoms: C_24  and  C_26
REMARK                            x       y       z     vdW  Elec       q    Type
REMARK                         _______ _______ _______ _____ _____    ______ ____
ROOT
ATOM      1  C   UNL     1       6.305  -6.234  -0.093  0.00  0.00    +0.100 C 
ATOM      2  C   UNL     1       5.537  -6.780  -1.317  0.00  0.00    +0.121 C 
ATOM      3  N   UNL     1       6.581  -7.001  -2.346  0.00  0.00    -0.296 N 
ATOM      4  C   UNL     1       7.736  -7.541  -1.589  0.00  0.00    +0.115 C 
ATOM      5  C   UNL     1       7.747  -6.738  -0.273  0.00  0.00    -0.004 C 
ATOM      6  C   UNL     1       8.141  -7.640   0.893  0.00  0.00    -0.010 C 
ATOM      7  C   UNL     1       9.597  -8.081   0.721  0.00  0.00    -0.082 C 
ATOM      8  N   UNL     1      10.466  -6.899   0.675  0.00  0.00    +0.379 N 
ATOM      9  C   UNL     1      10.142  -6.085  -0.502  0.00  0.00    -0.082 C 
ATOM     10  C   UNL     1       8.709  -5.559  -0.383  0.00  0.00    -0.010 C 
ATOM     11  C   UNL     1       6.499  -6.764  -3.670  0.00  0.00    +0.249 C 
ATOM     12  O   UNL     1       5.511  -6.226  -4.131  0.00  0.00    -0.270 OA
ATOM     13  H   UNL     1      10.330  -6.350   1.510  0.00  0.00    -0.086 HD
ATOM     14  H   UNL     1      11.430  -7.194   0.623  0.00  0.00    -0.086 HD
ENDROOT
BRANCH  11  15
ATOM     15  C   UNL     1       7.608  -7.158  -4.560  0.00  0.00    +0.072 A 
ATOM     16  C   UNL     1       8.340  -8.319  -4.297  0.00  0.00    +0.019 A 
ATOM     17  C   UNL     1       9.374  -8.682  -5.131  0.00  0.00    +0.039 A 
ATOM     18  C   UNL     1       9.691  -7.899  -6.232  0.00  0.00    +0.126 A 
ATOM     19  C   UNL     1       8.971  -6.747  -6.500  0.00  0.00    +0.077 A 
ATOM     20  C   UNL     1       7.927  -6.374  -5.674  0.00  0.00    +0.138 A 
ATOM     21  F   UNL     1       7.221  -5.253  -5.938  0.00  0.00    -0.205 F 
ATOM     22  F   UNL     1      10.707  -8.261  -7.045  0.00  0.00    -0.205 F 
ENDBRANCH  11  15
BRANCH   1  24
ATOM     23  N   UNL     1       6.303  -4.059   1.087  0.00  0.00    -0.314 N 
ATOM     24  C   UNL     1       6.273  -4.727  -0.084  0.00  0.00    +0.218 C 
ATOM     25  O   UNL     1       6.221  -4.115  -1.129  0.00  0.00    -0.275 OA
ATOM     26  H   UNL     1       6.344  -4.549   1.923  0.00  0.00    +0.149 HD
BRANCH  23  27
ATOM     27  C   UNL     1       6.272  -2.595   1.096  0.00  0.00    +0.123 C 
BRANCH  27  28
ATOM     28  C   UNL     1       6.315  -2.092   2.540  0.00  0.00    +0.120 C 
BRANCH  28  29
ATOM     29  N   UNL     1       6.284  -0.628   2.549  0.00  0.00    -0.342 N 
ATOM     30  H   UNL     1       6.242  -0.139   1.713  0.00  0.00    +0.146 HD
BRANCH  29  34
ATOM     31  C   UNL     1       6.373   1.435   6.165  0.00  0.00    +0.000 A 
ATOM     32  C   UNL     1       6.315   2.134   4.973  0.00  0.00    +0.002 A 
ATOM     33  C   UNL     1       6.285   1.453   3.772  0.00  0.00    +0.023 A 
ATOM     34  C   UNL     1       6.314   0.064   3.762  0.00  0.00    +0.027 A 
ATOM     35  C   UNL     1       6.373  -0.635   4.961  0.00  0.00    +0.023 A 
ATOM     36  C   UNL     1       6.403   0.052   6.159  0.00  0.00    +0.002 A 
ENDBRANCH  29  34
ENDBRANCH  28  29
ENDBRANCH  27  28
ENDBRANCH  23  27
ENDBRANCH   1  24
TORSDOF 6
