REMARK  Name = ZINC36293058
REMARK  11 active torsions:
REMARK  status: ('A' for Active; 'I' for Inactive)
REMARK    1  A    between atoms: C_1  and  N_2
REMARK    2  A    between atoms: N_2  and  C_3
REMARK    3  A    between atoms: N_2  and  C_4
REMARK    4  A    between atoms: C_4  and  C_5
REMARK    5  A    between atoms: C_5  and  C_6
REMARK    6  A    between atoms: C_6  and  O_7
REMARK    7  A    between atoms: O_7  and  C_8
REMARK    8  A    between atoms: C_15  and  C_17
REMARK    9  A    between atoms: C_20  and  O_24
REMARK   10  A    between atoms: C_21  and  N_23
REMARK   11  A    between atoms: O_24  and  C_25
REMARK                            x       y       z     vdW  Elec       q    Type
REMARK                         _______ _______ _______ _____ _____    ______ ____
ROOT
ATOM      1  C   UNL     1      -5.461  -0.659  -2.639  0.00  0.00    +0.163 A 
ATOM      2  C   UNL     1      -6.082  -1.376  -1.659  0.00  0.00    +0.051 A 
ATOM      3  C   UNL     1      -7.417  -1.776  -1.831  0.00  0.00    +0.022 A 
ATOM      4  C   UNL     1      -8.086  -1.454  -2.958  0.00  0.00    +0.093 A 
ATOM      5  N   UNL     1      -7.478  -0.736  -3.950  0.00  0.00    -0.303 N 
ATOM      6  C   UNL     1      -6.178  -0.326  -3.812  0.00  0.00    +0.181 A 
ATOM      7  N   UNL     1      -5.837   0.349  -4.900  0.00  0.00    -0.224 NA
ATOM      8  C   UNL     1      -6.885   0.392  -5.737  0.00  0.00    +0.090 A 
ATOM      9  C   UNL     1      -7.918  -0.288  -5.163  0.00  0.00    +0.121 A 
ENDROOT
BRANCH   8  10
ATOM     10  C   UNL     1      -6.911   1.054  -7.064  0.00  0.00    +0.004 A 
ATOM     11  C   UNL     1      -8.072   1.028  -7.834  0.00  0.00    +0.014 A 
ATOM     12  C   UNL     1      -8.097   1.645  -9.069  0.00  0.00    +0.048 A 
ATOM     13  C   UNL     1      -6.968   2.292  -9.547  0.00  0.00    +0.141 A 
ATOM     14  C   UNL     1      -5.804   2.322  -8.782  0.00  0.00    +0.067 A 
ATOM     15  C   UNL     1      -5.777   1.708  -7.540  0.00  0.00    +0.036 A 
BRANCH  14  16
ATOM     16  N   UNL     1      -4.664   2.975  -9.265  0.00  0.00    -0.355 N 
ATOM     17  H   UNL     1      -4.685   3.408 -10.133  0.00  0.00    +0.142 HD
ATOM     18  H   UNL     1      -3.854   2.995  -8.732  0.00  0.00    +0.142 HD
ENDBRANCH  14  16
BRANCH  13  19
ATOM     19  O   UNL     1      -6.997   2.898 -10.764  0.00  0.00    -0.493 OA
ATOM     20  C   UNL     1      -8.223   2.829 -11.495  0.00  0.00    +0.277 C 
ENDBRANCH  13  19
ENDBRANCH   8  10
BRANCH   1  21
ATOM     21  O   UNL     1      -4.169  -0.264  -2.488  0.00  0.00    -0.488 OA
BRANCH  21  22
ATOM     22  C   UNL     1      -3.513  -0.640  -1.275  0.00  0.00    +0.227 C 
BRANCH  22  23
ATOM     23  C   UNL     1      -2.078  -0.110  -1.286  0.00  0.00    +0.022 C 
BRANCH  23  24
ATOM     24  C   UNL     1      -1.376  -0.512   0.012  0.00  0.00    -0.076 C 
BRANCH  24  26
ATOM     25  C   UNL     1      -0.018   1.465   0.010  0.00  0.00    -0.097 C 
ATOM     26  N   UNL     1       0.002  -0.004   0.002  0.00  0.00    +0.376 N 
ATOM     27  C   UNL     1       0.713  -0.491   1.192  0.00  0.00    -0.097 C 
ATOM     28  H   UNL     1       0.474  -0.330  -0.828  0.00  0.00    -0.083 HD
ENDBRANCH  24  26
ENDBRANCH  23  24
ENDBRANCH  22  23
ENDBRANCH  21  22
ENDBRANCH   1  21
TORSDOF 8
