REMARK  Name = ZINC40141153
REMARK  12 active torsions:
REMARK  status: ('A' for Active; 'I' for Inactive)
REMARK    1  A    between atoms: C_1  and  C_2
REMARK    2  A    between atoms: C_2  and  C_3
REMARK    3  A    between atoms: C_3  and  C_4
REMARK    4  A    between atoms: C_8  and  S_10
REMARK    5  A    between atoms: S_10  and  C_11
REMARK    6  A    between atoms: N_13  and  C_14
REMARK    7  A    between atoms: C_15  and  C_26
REMARK    8  A    between atoms: C_16  and  C_21
REMARK    9  A    between atoms: C_17  and  C_20
REMARK   10  A    between atoms: C_21  and  O_23
REMARK   11  A    between atoms: O_23  and  C_24
REMARK   12  A    between atoms: C_24  and  C_25
REMARK                            x       y       z     vdW  Elec       q    Type
REMARK                         _______ _______ _______ _____ _____    ______ ____
ROOT
ATOM      1  C   UNL     1      -0.938  -5.098   5.276  0.00  0.00    +0.284 C 
ATOM      2  O   UNL     1       0.228  -4.777   5.410  0.00  0.00    -0.262 OA
ATOM      3  N   UNL     1      -1.535  -5.872   6.204  0.00  0.00    -0.262 N 
ATOM      4  H   UNL     1      -2.464  -6.128   6.096  0.00  0.00    +0.157 HD
ENDROOT
BRANCH   3   5
ATOM      5  C   UNL     1      -0.816  -6.305   7.320  0.00  0.00    +0.107 A 
ATOM      6  C   UNL     1      -1.298  -7.086   8.313  0.00  0.00    +0.003 A 
ATOM      7  C   UNL     1      -0.194  -7.281   9.260  0.00  0.00    +0.084 A 
ATOM      8  C   UNL     1       0.873  -6.593   8.751  0.00  0.00    +0.029 A 
ATOM      9  N   UNL     1       0.493  -6.015   7.585  0.00  0.00    -0.346 N 
ATOM     10  H   UNL     1       1.067  -5.473   7.021  0.00  0.00    +0.167 HD
ATOM     11  C   UNL     1       2.241  -6.498   9.377  0.00  0.00    +0.064 C 
ATOM     12  C   UNL     1      -2.693  -7.644   8.425  0.00  0.00    +0.048 C 
BRANCH   7  13
ATOM     13  C   UNL     1      -0.228  -8.060  10.507  0.00  0.00    +0.341 C 
ATOM     14  O   UNL     1       0.059  -9.241  10.494  0.00  0.00    -0.245 OA
BRANCH  13  15
ATOM     15  O   UNL     1      -0.578  -7.464  11.665  0.00  0.00    -0.461 OA
BRANCH  15  16
ATOM     16  C   UNL     1      -0.589  -8.281  12.837  0.00  0.00    +0.229 C 
ATOM     17  C   UNL     1      -1.008  -7.437  14.043  0.00  0.00    +0.048 C 
ENDBRANCH  15  16
ENDBRANCH  13  15
ENDBRANCH   7  13
ENDBRANCH   3   5
BRANCH   1  18
ATOM     18  S   UNL     1      -1.845  -4.551   3.868  0.00  0.00    -0.003 S 
BRANCH  18  22
ATOM     19  C   UNL     1       0.763  -2.041   1.233  0.00  0.00    +0.153 C 
ATOM     20  N   UNL     1       1.385  -2.578   2.465  0.00  0.00    -0.254 N 
ATOM     21  N   UNL     1       0.557  -3.345   3.253  0.00  0.00    -0.172 NA
ATOM     22  C   UNL     1      -0.681  -3.592   2.957  0.00  0.00    +0.158 C 
ATOM     23  S   UNL     1      -0.933  -2.735   1.409  0.00  0.00    -0.073 S 
ATOM     24  H   UNL     1       2.309  -2.402   2.699  0.00  0.00    +0.169 HD
BRANCH  19  25
ATOM     25  C   UNL     1       0.742  -0.511   1.242  0.00  0.00    +0.035 C 
BRANCH  25  27
ATOM     26  C   UNL     1      -0.019   1.526   0.010  0.00  0.00    +0.004 C 
ATOM     27  C   UNL     1       0.002  -0.004   0.002  0.00  0.00    -0.001 C 
ENDBRANCH  25  27
ENDBRANCH  19  25
ENDBRANCH  18  22
ENDBRANCH   1  18
TORSDOF 8
