REMARK  Name = ZINC17043947
REMARK  11 active torsions:
REMARK  status: ('A' for Active; 'I' for Inactive)
REMARK    1  A    between atoms: C_1  and  C_2
REMARK    2  A    between atoms: C_2  and  C_3
REMARK    3  A    between atoms: C_3  and  C_5
REMARK    4  A    between atoms: C_3  and  C_6
REMARK    5  A    between atoms: C_11  and  C_34
REMARK    6  A    between atoms: C_21  and  O_32
REMARK    7  A    between atoms: C_25  and  N_75
REMARK    8  A    between atoms: C_30  and  N_75
REMARK    9  A    between atoms: C_31  and  N_75
REMARK   10  A    between atoms: O_32  and  C_33
REMARK   11  A    between atoms: C_34  and  C_35
REMARK                            x       y       z     vdW  Elec       q    Type
REMARK                         _______ _______ _______ _____ _____    ______ ____
ROOT
ATOM      1  C   UNL     1      -5.223   4.462   2.197  0.00  0.00    +0.162 C 
ATOM      2  C   UNL     1      -5.172   3.184   1.396  0.00  0.00    +0.234 C 
ATOM      3  O   UNL     1      -5.948   3.006   0.480  0.00  0.00    -0.274 OA
ATOM      4  N   UNL     1      -4.237   2.243   1.718  0.00  0.00    -0.302 N 
ATOM      5  C   UNL     1      -4.088   1.139   0.743  0.00  0.00    +0.163 C 
ATOM      6  C   UNL     1      -2.660   0.674   0.737  0.00  0.00    +0.237 C 
ATOM      7  O   UNL     1      -2.401  -0.468   1.058  0.00  0.00    -0.273 OA
ATOM      8  N   UNL     1      -1.658   1.528   0.376  0.00  0.00    -0.290 N 
ATOM      9  C   UNL     1      -0.383   0.946   0.414  0.00  0.00    +0.075 C 
ATOM     10  C   UNL     1       0.758   1.588   0.271  0.00  0.00    +0.023 C 
ATOM     11  C   UNL     1       0.942   3.046   0.260  0.00  0.00    -0.023 A 
ATOM     12  C   UNL     1       2.142   3.560  -0.261  0.00  0.00    +0.011 A 
ATOM     13  C   UNL     1       2.354   4.917  -0.291  0.00  0.00    +0.046 A 
ATOM     14  C   UNL     1       1.389   5.789   0.189  0.00  0.00    +0.123 A 
ATOM     15  C   UNL     1       0.197   5.291   0.708  0.00  0.00    -0.006 A 
ATOM     16  C   UNL     1      -0.021   3.929   0.743  0.00  0.00    +0.015 A 
ATOM     17  C   UNL     1      -0.828   6.257   1.232  0.00  0.00    +0.032 C 
ATOM     18  C   UNL     1      -2.183   6.007   0.565  0.00  0.00    +0.023 C 
ATOM     19  C   UNL     1      -3.092   5.338   1.563  0.00  0.00    +0.200 C 
ATOM     20  O   UNL     1      -2.631   4.683   2.477  0.00  0.00    -0.278 OA
ATOM     21  N   UNL     1      -4.450   5.479   1.430  0.00  0.00    -0.305 N 
ATOM     22  H   UNL     1      -3.696   2.300   2.523  0.00  0.00    +0.150 HD
ATOM     23  H   UNL     1      -1.824   2.441   0.097  0.00  0.00    +0.154 HD
ATOM     24  H   UNL     1      -4.879   6.147   0.876  0.00  0.00    +0.149 HD
ENDROOT
BRANCH  18  27
ATOM     25  C   UNL     1      -2.835   8.233   1.261  0.00  0.00    -0.096 C 
ATOM     26  C   UNL     1      -1.998   7.861  -0.981  0.00  0.00    -0.096 C 
ATOM     27  N   UNL     1      -2.786   7.284   0.129  0.00  0.00    +0.384 N 
ATOM     28  H   UNL     1      -3.742   7.106  -0.199  0.00  0.00    -0.082 HD
ENDBRANCH  18  27
BRANCH   1  29
ATOM     29  C   UNL     1      -6.673   4.921   2.352  0.00  0.00    +0.015 C 
ATOM     30  C   UNL     1      -6.703   6.306   3.000  0.00  0.00    +0.010 C 
BRANCH  29  32
ATOM     31  C   UNL     1      -8.912   4.311   3.280  0.00  0.00    +0.004 C 
ATOM     32  C   UNL     1      -7.431   3.928   3.236  0.00  0.00    +0.002 C 
ENDBRANCH  29  32
ENDBRANCH   1  29
BRANCH  14  33
ATOM     33  O   UNL     1       1.614   7.129   0.152  0.00  0.00    -0.495 OA
ATOM     34  C   UNL     1       2.861   7.562  -0.396  0.00  0.00    +0.277 C 
ENDBRANCH  14  33
BRANCH   5  35
ATOM     35  C   UNL     1      -4.998  -0.027   1.144  0.00  0.00    +0.067 C 
BRANCH  35  36
ATOM     36  C   UNL     1      -4.979  -1.075   0.061  0.00  0.00    -0.045 A 
ATOM     37  C   UNL     1      -5.791  -0.935  -1.050  0.00  0.00    +0.004 A 
ATOM     38  C   UNL     1      -5.769  -1.894  -2.046  0.00  0.00    +0.000 A 
ATOM     39  C   UNL     1      -4.944  -2.997  -1.926  0.00  0.00    +0.000 A 
ATOM     40  C   UNL     1      -4.137  -3.139  -0.813  0.00  0.00    +0.000 A 
ATOM     41  C   UNL     1      -4.154  -2.178   0.180  0.00  0.00    +0.004 A 
ENDBRANCH  35  36
ENDBRANCH   5  35
TORSDOF 6
