REMARK  Name = ZINC40733429
REMARK  6 active torsions:
REMARK  status: ('A' for Active; 'I' for Inactive)
REMARK    1  A    between atoms: C_1  and  C_2
REMARK    2  A    between atoms: C_2  and  C_3
REMARK    3  A    between atoms: C_11  and  N_23
REMARK    4  A    between atoms: C_12  and  N_16
REMARK    5  A    between atoms: N_16  and  C_17
REMARK    6  A    between atoms: C_17  and  C_18
REMARK                            x       y       z     vdW  Elec       q    Type
REMARK                         _______ _______ _______ _____ _____    ______ ____
ROOT
ATOM      1  C   UNL     1       1.331   0.562  -2.387  0.00  0.00    +0.075 C 
ATOM      2  C   UNL     1      -0.072   0.001  -2.634  0.00  0.00    +0.022 C 
ATOM      3  C   UNL     1      -0.005  -1.527  -2.679  0.00  0.00    +0.003 C 
ATOM      4  C   UNL     1       0.497  -2.057  -1.334  0.00  0.00    +0.019 C 
ATOM      5  C   UNL     1       1.907  -1.519  -1.072  0.00  0.00    +0.107 C 
ATOM      6  N   UNL     1       1.883  -0.053  -1.172  0.00  0.00    -0.311 N 
ATOM      7  C   UNL     1       2.369   0.736  -0.137  0.00  0.00    +0.147 A 
ATOM      8  C   UNL     1       3.724   1.067  -0.073  0.00  0.00    +0.105 A 
ATOM      9  C   UNL     1       4.160   1.862   0.988  0.00  0.00    +0.145 A 
ATOM     10  N   UNL     1       3.273   2.272   1.892  0.00  0.00    -0.219 NA
ATOM     11  C   UNL     1       2.003   1.937   1.795  0.00  0.00    +0.225 A 
ATOM     12  N   UNL     1       1.550   1.192   0.807  0.00  0.00    -0.219 NA
ENDROOT
BRANCH   8  13
ATOM     13  N   UNL     1       4.625   0.611  -1.050  0.00  0.00    -0.353 N 
ATOM     14  H   UNL     1       4.329  -0.018  -1.727  0.00  0.00    +0.143 HD
ATOM     15  H   UNL     1       5.542   0.925  -1.049  0.00  0.00    +0.143 HD
ENDBRANCH   8  13
BRANCH   1  17
ATOM     16  C   UNL     1       0.807   2.730  -3.514  0.00  0.00    +0.006 C 
ATOM     17  C   UNL     1       1.252   2.079  -2.202  0.00  0.00    +0.019 C 
ENDBRANCH   1  17
BRANCH   9  18
ATOM     18  N   UNL     1       5.498   2.220   1.098  0.00  0.00    -0.320 N 
ATOM     19  H   UNL     1       6.138   1.917   0.435  0.00  0.00    +0.148 HD
BRANCH  18  20
ATOM     20  C   UNL     1       5.943   3.056   2.216  0.00  0.00    +0.177 C 
BRANCH  20  21
ATOM     21  C   UNL     1       7.426   3.297   2.104  0.00  0.00    +0.122 A 
ATOM     22  C   UNL     1       8.010   4.322   1.457  0.00  0.00    +0.046 A 
ATOM     23  C   UNL     1       9.406   4.157   1.605  0.00  0.00    +0.041 A 
ATOM     24  C   UNL     1       9.592   3.043   2.334  0.00  0.00    +0.195 A 
ATOM     25  O   UNL     1       8.389   2.529   2.639  0.00  0.00    -0.466 OA
ENDBRANCH  20  21
ENDBRANCH  18  20
ENDBRANCH   9  18
TORSDOF 5
