REMARK  Name = ZINC53113229
REMARK  8 active torsions:
REMARK  status: ('A' for Active; 'I' for Inactive)
REMARK    1  A    between atoms: C_1  and  C_2
REMARK    2  A    between atoms: C_5  and  N_22
REMARK    3  A    between atoms: C_7  and  S_8
REMARK    4  A    between atoms: S_8  and  N_11
REMARK    5  A    between atoms: N_11  and  C_12
REMARK    6  A    between atoms: C_12  and  C_20
REMARK    7  A    between atoms: C_16  and  C_19
REMARK    8  A    between atoms: C_20  and  O_21
REMARK                            x       y       z     vdW  Elec       q    Type
REMARK                         _______ _______ _______ _____ _____    ______ ____
ROOT
ATOM      1  S   UNL     1       0.407   0.537   3.566  0.00  0.00    +0.059 S 
ATOM      2  O   UNL     1       0.750  -0.597   4.350  0.00  0.00    -0.153 OA
ATOM      3  O   UNL     1      -0.223   0.424   2.297  0.00  0.00    -0.153 OA
ENDROOT
BRANCH   1  10
ATOM      4  C   UNL     1       1.106   1.483   6.350  0.00  0.00    +0.046 C 
ATOM      5  C   UNL     1      -0.237   1.923   5.827  0.00  0.00    -0.024 A 
ATOM      6  C   UNL     1      -1.057   2.715   6.610  0.00  0.00    +0.007 A 
ATOM      7  C   UNL     1      -2.288   3.121   6.134  0.00  0.00    +0.023 A 
ATOM      8  C   UNL     1      -2.703   2.732   4.866  0.00  0.00    +0.026 A 
ATOM      9  C   UNL     1      -1.877   1.937   4.082  0.00  0.00    +0.051 A 
ATOM     10  C   UNL     1      -0.644   1.540   4.562  0.00  0.00    +0.110 A 
BRANCH   8  11
ATOM     11  N   UNL     1      -3.947   3.140   4.382  0.00  0.00    -0.358 N 
ATOM     12  H   UNL     1      -4.523   3.696   4.930  0.00  0.00    +0.142 HD
ATOM     13  H   UNL     1      -4.236   2.869   3.496  0.00  0.00    +0.142 HD
ENDBRANCH   8  11
ENDBRANCH   1  10
BRANCH   1  14
ATOM     14  N   UNL     1       1.808   1.386   3.324  0.00  0.00    -0.182 NA
ATOM     15  H   UNL     1       2.590   1.197   3.866  0.00  0.00    +0.149 HD
BRANCH  14  16
ATOM     16  C   UNL     1       1.867   2.423   2.290  0.00  0.00    +0.063 C 
ATOM     17  C   UNL     1       1.728   1.777   0.910  0.00  0.00    +0.026 C 
ATOM     18  C   UNL     1       2.869   0.779   0.698  0.00  0.00    +0.002 C 
ATOM     19  C   UNL     1       4.210   1.511   0.786  0.00  0.00    +0.003 C 
ATOM     20  C   UNL     1       4.348   2.158   2.166  0.00  0.00    -0.012 C 
ATOM     21  C   UNL     1       3.208   3.155   2.378  0.00  0.00    +0.029 C 
ATOM     22  C   UNL     1       5.689   2.889   2.254  0.00  0.00    +0.007 C 
BRANCH  16  23
ATOM     23  C   UNL     1       0.727   3.421   2.503  0.00  0.00    +0.179 C 
BRANCH  23  24
ATOM     24  O   UNL     1      -0.521   2.786   2.216  0.00  0.00    -0.393 OA
ATOM     25  H   UNL     1      -1.290   3.361   2.330  0.00  0.00    +0.209 HD
ENDBRANCH  23  24
ENDBRANCH  16  23
ENDBRANCH  14  16
ENDBRANCH   1  14
TORSDOF 6
