REMARK  Name = ZINC67066589
REMARK  7 active torsions:
REMARK  status: ('A' for Active; 'I' for Inactive)
REMARK    1  A    between atoms: N_8  and  C_10
REMARK    2  A    between atoms: C_10  and  C_11
REMARK    3  A    between atoms: C_11  and  N_12
REMARK    4  A    between atoms: N_15  and  N_16
REMARK    5  A    between atoms: C_17  and  C_19
REMARK    6  A    between atoms: C_19  and  C_20
REMARK    7  A    between atoms: C_20  and  C_21
REMARK                            x       y       z     vdW  Elec       q    Type
REMARK                         _______ _______ _______ _____ _____    ______ ____
ROOT
ATOM      1  N   UNL     1       5.706  -4.647   0.286  0.00  0.00    -0.300 N 
ATOM      2  C   UNL     1       6.970  -4.969  -0.055  0.00  0.00    +0.316 C 
ATOM      3  O   UNL     1       7.551  -4.327  -0.908  0.00  0.00    -0.251 OA
ATOM      4  N   UNL     1       7.588  -6.001   0.551  0.00  0.00    -0.218 N 
ATOM      5  H   UNL     1       5.242  -5.158   0.967  0.00  0.00    +0.150 HD
ATOM      6  H   UNL     1       8.498  -6.233   0.307  0.00  0.00    +0.174 HD
ENDROOT
BRANCH   4   7
ATOM      7  N   UNL     1       6.918  -6.740   1.535  0.00  0.00    -0.233 N 
ATOM      8  C   UNL     1       7.536  -7.773   2.141  0.00  0.00    +0.229 C 
ATOM      9  O   UNL     1       8.674  -8.062   1.835  0.00  0.00    -0.274 OA
ATOM     10  H   UNL     1       6.008  -6.508   1.780  0.00  0.00    +0.173 HD
BRANCH   8  11
ATOM     11  C   UNL     1       6.815  -8.567   3.199  0.00  0.00    +0.097 C 
BRANCH  11  12
ATOM     12  C   UNL     1       7.734  -9.673   3.722  0.00  0.00    +0.013 C 
BRANCH  12  13
ATOM     13  C   UNL     1       7.002 -10.480   4.796  0.00  0.00    -0.011 C 
ATOM     14  C   UNL     1       5.812 -11.206   4.166  0.00  0.00    +0.003 C 
ATOM     15  C   UNL     1       5.080 -12.013   5.240  0.00  0.00    +0.000 C 
ATOM     16  C   UNL     1       6.038 -13.038   5.850  0.00  0.00    +0.000 C 
ATOM     17  C   UNL     1       7.228 -12.311   6.480  0.00  0.00    +0.000 C 
ATOM     18  C   UNL     1       7.960 -11.505   5.406  0.00  0.00    +0.003 C 
ENDBRANCH  12  13
ENDBRANCH  11  12
ENDBRANCH   8  11
ENDBRANCH   4   7
BRANCH   1  19
ATOM     19  C   UNL     1       5.033  -3.524  -0.373  0.00  0.00    +0.087 C 
BRANCH  19  20
ATOM     20  C   UNL     1       3.620  -3.373   0.192  0.00  0.00    -0.059 C 
BRANCH  20  28
ATOM     21  C   UNL     1      -0.017   1.378   0.010  0.00  0.00    +0.000 A 
ATOM     22  C   UNL     1       1.171   2.086   0.002  0.00  0.00    +0.000 A 
ATOM     23  C   UNL     1       2.377   1.411  -0.013  0.00  0.00    +0.002 A 
ATOM     24  C   UNL     1       2.397   0.029  -0.021  0.00  0.00    -0.063 A 
ATOM     25  C   UNL     1       1.208  -0.679  -0.013  0.00  0.00    -0.063 A 
ATOM     26  C   UNL     1       0.002  -0.004   0.002  0.00  0.00    +0.002 A 
ATOM     27  C   UNL     1       1.536  -2.155  -0.025  0.00  0.00    -0.042 C 
ATOM     28  N   UNL     1       2.945  -2.248  -0.468  0.00  0.00    +0.386 N 
ATOM     29  C   UNL     1       3.538  -0.962  -0.037  0.00  0.00    -0.042 C 
ATOM     30  H   UNL     1       2.996  -2.343  -1.472  0.00  0.00    -0.081 HD
ENDBRANCH  20  28
ENDBRANCH  19  20
ENDBRANCH   1  19
TORSDOF 7
