REMARK  Name = ZINC08768506
REMARK  6 active torsions:
REMARK  status: ('A' for Active; 'I' for Inactive)
REMARK    1  A    between atoms: C_16  and  C_17
REMARK    2  A    between atoms: C_16  and  N_58
REMARK    3  A    between atoms: C_17  and  C_26
REMARK    4  A    between atoms: C_18  and  O_25
REMARK    5  A    between atoms: C_20  and  O_24
REMARK    6  A    between atoms: C_26  and  C_27
REMARK                            x       y       z     vdW  Elec       q    Type
REMARK                         _______ _______ _______ _____ _____    ______ ____
ROOT
ATOM      1  C   UNL     1       2.154   3.640  -4.212  0.00  0.00    +0.114 C 
ATOM      2  C   UNL     1       3.518   3.386  -3.599  0.00  0.00    +0.205 C 
ATOM      3  N   UNL     1       3.689   2.257  -2.954  0.00  0.00    -0.165 NA
ATOM      4  C   UNL     1       2.719   1.352  -2.829  0.00  0.00    +0.310 C 
ATOM      5  N   UNL     1       1.502   1.470  -3.320  0.00  0.00    -0.127 NA
ATOM      6  C   UNL     1       1.123   2.545  -4.007  0.00  0.00    +0.254 C 
ATOM      7  O   UNL     1      -0.004   2.643  -4.453  0.00  0.00    -0.272 OA
ENDROOT
BRANCH   4   8
ATOM      8  O   UNL     1       3.005   0.226  -2.146  0.00  0.00    -0.480 OA
ATOM      9  H   UNL     1       2.297  -0.427  -2.058  0.00  0.00    +0.295 HD
ENDBRANCH   4   8
BRANCH   2  10
ATOM     10  O   UNL     1       4.511   4.282  -3.712  0.00  0.00    -0.495 OA
ATOM     11  H   UNL     1       5.355   4.056  -3.297  0.00  0.00    +0.293 HD
ENDBRANCH   2  10
BRANCH   1  12
ATOM     12  C   UNL     1       1.598   4.937  -3.620  0.00  0.00    -0.053 C 
BRANCH  12  26
ATOM     13  C   UNL     1      -2.147   5.842   0.358  0.00  0.00    +0.007 A 
ATOM     14  C   UNL     1      -1.354   4.705   0.166  0.00  0.00    +0.022 A 
ATOM     15  C   UNL     1       0.001   4.808   0.131  0.00  0.00    +0.023 A 
ATOM     16  N   UNL     1       0.608   5.997   0.352  0.00  0.00    -0.312 N 
ATOM     17  C   UNL     1      -0.138   7.125   0.454  0.00  0.00    +0.251 A 
ATOM     18  O   UNL     1       0.415   8.211   0.515  0.00  0.00    -0.268 OA
ATOM     19  C   UNL     1      -1.538   7.056   0.485  0.00  0.00    +0.070 A 
ATOM     20  C   UNL     1       2.054   6.138   0.524  0.00  0.00    +0.126 C 
ATOM     21  C   UNL     1       2.821   4.959  -0.051  0.00  0.00    -0.007 C 
ATOM     22  C   UNL     1       2.177   3.652   0.421  0.00  0.00    +0.011 C 
ATOM     23  C   UNL     1       0.786   3.563  -0.218  0.00  0.00    +0.020 C 
ATOM     24  C   UNL     1       0.964   3.540  -1.744  0.00  0.00    -0.069 C 
ATOM     25  C   UNL     1       2.881   5.012  -1.570  0.00  0.00    -0.074 C 
ATOM     26  N   UNL     1       1.531   4.847  -2.147  0.00  0.00    +0.381 N 
ATOM     27  H   UNL     1       0.924   5.596  -1.795  0.00  0.00    -0.082 HD
ENDBRANCH  12  26
ENDBRANCH   1  12
BRANCH   1  28
ATOM     28  C   UNL     1       2.338   3.847  -5.717  0.00  0.00    +0.059 C 
BRANCH  28  29
ATOM     29  C   UNL     1       2.886   2.586  -6.334  0.00  0.00    -0.042 A 
ATOM     30  C   UNL     1       2.020   1.617  -6.807  0.00  0.00    +0.007 A 
ATOM     31  C   UNL     1       2.518   0.459  -7.374  0.00  0.00    +0.050 A 
ATOM     32  C   UNL     1       3.886   0.266  -7.470  0.00  0.00    +0.166 A 
ATOM     33  C   UNL     1       4.758   1.242  -6.993  0.00  0.00    +0.166 A 
ATOM     34  C   UNL     1       4.252   2.403  -6.431  0.00  0.00    +0.053 A 
ATOM     35  O   UNL     1       6.040   0.821  -7.201  0.00  0.00    -0.453 OA
ATOM     36  C   UNL     1       5.945  -0.234  -8.176  0.00  0.00    +0.466 C 
ATOM     37  O   UNL     1       4.622  -0.766  -7.976  0.00  0.00    -0.453 OA
ENDBRANCH  28  29
ENDBRANCH   1  28
TORSDOF 6
