REMARK  Name = ZINC20467378
REMARK  11 active torsions:
REMARK  status: ('A' for Active; 'I' for Inactive)
REMARK    1  A    between atoms: C_1  and  C_2
REMARK    2  A    between atoms: C_4  and  N_31
REMARK    3  A    between atoms: C_8  and  C_30
REMARK    4  A    between atoms: C_11  and  O_29
REMARK    5  A    between atoms: C_13  and  C_17
REMARK    6  A    between atoms: C_17  and  C_19
REMARK    7  A    between atoms: C_17  and  C_20
REMARK    8  A    between atoms: N_22  and  C_23
REMARK    9  A    between atoms: C_23  and  C_24
REMARK   10  A    between atoms: N_31  and  S_32
REMARK   11  A    between atoms: S_32  and  C_35
REMARK                            x       y       z     vdW  Elec       q    Type
REMARK                         _______ _______ _______ _____ _____    ______ ____
ROOT
ATOM      1  C   UNL     1       4.181   1.884  -0.202  0.00  0.00    +0.009 C 
ATOM      2  C   UNL     1       4.305   0.361  -0.282  0.00  0.00    +0.011 C 
ATOM      3  C   UNL     1       5.132  -0.019  -1.511  0.00  0.00    +0.079 C 
ATOM      4  C   UNL     1       5.256  -1.542  -1.591  0.00  0.00    +0.021 C 
ATOM      5  C   UNL     1       3.862  -2.162  -1.703  0.00  0.00    +0.008 C 
ATOM      6  C   UNL     1       3.034  -1.782  -0.473  0.00  0.00    -0.027 C 
ATOM      7  C   UNL     1       2.910  -0.259  -0.393  0.00  0.00    +0.028 C 
ATOM      8  C   UNL     1       2.083   0.122   0.837  0.00  0.00    +0.122 C 
ATOM      9  C   UNL     1       0.689  -0.498   0.726  0.00  0.00    +0.029 C 
ATOM     10  C   UNL     1       0.813  -2.021   0.645  0.00  0.00    +0.007 C 
ATOM     11  C   UNL     1       1.640  -2.402  -0.584  0.00  0.00    +0.007 C 
ATOM     12  C   UNL     1       3.726  -2.304   0.788  0.00  0.00    +0.011 C 
ENDROOT
BRANCH   9  13
ATOM     13  C   UNL     1      -0.002   0.024  -0.536  0.00  0.00    +0.077 C 
ATOM     14  C   UNL     1      -0.047   1.553  -0.497  0.00  0.00    +0.017 C 
BRANCH  13  15
ATOM     15  C   UNL     1      -1.407  -0.518  -0.600  0.00  0.00    +0.217 C 
ATOM     16  O   UNL     1      -1.815  -1.250   0.277  0.00  0.00    -0.276 OA
ATOM     17  N   UNL     1      -2.209  -0.190  -1.631  0.00  0.00    -0.308 N 
ATOM     18  H   UNL     1      -1.839   0.474  -2.426  0.00  0.00    +0.149 HD
BRANCH  17  19
ATOM     19  C   UNL     1      -3.575  -0.717  -1.693  0.00  0.00    +0.178 C 
BRANCH  19  20
ATOM     20  C   UNL     1      -4.256  -0.202  -2.935  0.00  0.00    +0.122 A 
ATOM     21  C   UNL     1      -4.247  -0.798  -4.141  0.00  0.00    +0.046 A 
ATOM     22  C   UNL     1      -5.007   0.021  -5.008  0.00  0.00    +0.041 A 
ATOM     23  C   UNL     1      -5.427   1.072  -4.282  0.00  0.00    +0.195 A 
ATOM     24  O   UNL     1      -4.970   0.932  -3.027  0.00  0.00    -0.466 OA
ENDBRANCH  19  20
ENDBRANCH  17  19
ENDBRANCH  13  15
ENDBRANCH   9  13
BRANCH   8  25
ATOM     25  O   UNL     1       1.968   1.544   0.911  0.00  0.00    -0.391 OA
ATOM     26  H   UNL     1       1.404   2.007   1.735  0.00  0.00    +0.210 HD
ENDBRANCH   8  25
BRANCH   3  27
ATOM     27  N   UNL     1       6.467   0.575  -1.405  0.00  0.00    -0.191 NA
ATOM     28  H   UNL     1       6.883   0.819  -0.416  0.00  0.00    +0.148 HD
BRANCH  27  29
ATOM     29  S   UNL     1       7.248   1.105  -2.765  0.00  0.00    +0.027 S 
ATOM     30  O   UNL     1       8.501   1.588  -2.299  0.00  0.00    -0.158 OA
ATOM     31  O   UNL     1       7.184   0.011  -3.670  0.00  0.00    -0.158 OA
ATOM     32  C   UNL     1       6.237   2.481  -3.377  0.00  0.00    +0.214 C 
ENDBRANCH  27  29
ENDBRANCH   3  27
TORSDOF 7
