REMARK  Name = ZINC57004989
REMARK  6 active torsions:
REMARK  status: ('A' for Active; 'I' for Inactive)
REMARK    1  A    between atoms: C_1  and  C_2
REMARK    2  A    between atoms: C_2  and  C_4
REMARK    3  A    between atoms: C_2  and  N_10
REMARK    4  A    between atoms: C_4  and  N_5
REMARK    5  A    between atoms: N_13  and  C_14
REMARK    6  A    between atoms: C_23  and  O_25
REMARK                            x       y       z     vdW  Elec       q    Type
REMARK                         _______ _______ _______ _____ _____    ______ ____
ROOT
ATOM      1  N   UNL     1       0.711  -0.489   1.189  0.00  0.00    -0.295 N 
ATOM      2  C   UNL     1       2.054  -0.600   1.174  0.00  0.00    +0.300 C 
ATOM      3  O   UNL     1       2.677  -0.297   0.175  0.00  0.00    -0.253 OA
ATOM      4  N   UNL     1       2.706  -1.046   2.266  0.00  0.00    -0.290 N 
ATOM      5  H   UNL     1       0.213  -0.731   1.986  0.00  0.00    +0.151 HD
ATOM      6  H   UNL     1       2.208  -1.288   3.062  0.00  0.00    +0.151 HD
ENDROOT
BRANCH   4   7
ATOM      7  C   UNL     1       4.166  -1.166   2.249  0.00  0.00    +0.134 C 
ATOM      8  C   UNL     1       4.575  -2.522   1.715  0.00  0.00    -0.021 A 
ATOM      9  C   UNL     1       4.631  -2.995   0.415  0.00  0.00    +0.006 A 
ATOM     10  C   UNL     1       5.041  -4.290   0.163  0.00  0.00    +0.000 A 
ATOM     11  C   UNL     1       5.397  -5.117   1.212  0.00  0.00    +0.000 A 
ATOM     12  C   UNL     1       5.342  -4.647   2.510  0.00  0.00    +0.004 A 
ATOM     13  C   UNL     1       4.931  -3.349   2.764  0.00  0.00    -0.040 A 
ATOM     14  C   UNL     1       4.785  -2.606   4.074  0.00  0.00    +0.069 C 
ATOM     15  C   UNL     1       4.724  -1.110   3.687  0.00  0.00    +0.143 C 
BRANCH  15  16
ATOM     16  O   UNL     1       3.836  -0.396   4.549  0.00  0.00    -0.389 OA
ATOM     17  H   UNL     1       4.142  -0.333   5.464  0.00  0.00    +0.210 HD
ENDBRANCH  15  16
ENDBRANCH   4   7
BRANCH   1  19
ATOM     18  C   UNL     1      -0.019   1.526   0.010  0.00  0.00    +0.029 C 
ATOM     19  C   UNL     1       0.002  -0.004   0.002  0.00  0.00    +0.091 C 
BRANCH  19  20
ATOM     20  C   UNL     1      -1.433  -0.534   0.013  0.00  0.00    +0.144 C 
BRANCH  20  21
ATOM     21  N   UNL     1      -1.416  -1.993  -0.116  0.00  0.00    -0.337 N 
ATOM     22  C   UNL     1      -1.445  -2.706  -1.284  0.00  0.00    +0.104 A 
ATOM     23  C   UNL     1      -1.414  -4.009  -0.946  0.00  0.00    +0.101 A 
ATOM     24  N   UNL     1      -1.368  -4.090   0.393  0.00  0.00    -0.352 N 
ATOM     25  C   UNL     1      -1.364  -2.886   0.896  0.00  0.00    +0.173 A 
ATOM     26  H   UNL     1      -1.338  -4.913   0.905  0.00  0.00    +0.166 HD
ENDBRANCH  20  21
ENDBRANCH  19  20
ENDBRANCH   1  19
TORSDOF 5
