REMARK  Name = ZINC00254048
REMARK  10 active torsions:
REMARK  status: ('A' for Active; 'I' for Inactive)
REMARK    1  A    between atoms: C_1  and  C_2
REMARK    2  A    between atoms: C_2  and  O_3
REMARK    3  A    between atoms: O_3  and  C_4
REMARK    4  A    between atoms: C_4  and  C_6
REMARK    5  A    between atoms: C_7  and  C_24
REMARK    6  A    between atoms: C_8  and  C_13
REMARK    7  A    between atoms: C_9  and  C_12
REMARK    8  A    between atoms: N_10  and  C_11
REMARK    9  A    between atoms: N_15  and  C_16
REMARK   10  A    between atoms: C_21  and  C_22
REMARK                            x       y       z     vdW  Elec       q    Type
REMARK                         _______ _______ _______ _____ _____    ______ ____
ROOT
ATOM      1  C   UNL     1      -4.398   0.126  -0.364  0.00  0.00    +0.131 A 
ATOM      2  C   UNL     1      -3.268   0.647  -0.923  0.00  0.00    -0.006 A 
ATOM      3  C   UNL     1      -2.449   1.091   0.139  0.00  0.00    +0.061 A 
ATOM      4  C   UNL     1      -3.121   0.812   1.314  0.00  0.00    +0.028 A 
ATOM      5  N   UNL     1      -4.294   0.237   1.006  0.00  0.00    -0.341 N 
ATOM      6  C   UNL     1      -5.301  -0.207   1.972  0.00  0.00    +0.149 C 
ATOM      7  C   UNL     1      -2.623   1.108   2.705  0.00  0.00    +0.064 C 
ATOM      8  C   UNL     1      -2.953   0.734  -2.394  0.00  0.00    +0.047 C 
ENDROOT
BRANCH   3   9
ATOM      9  C   UNL     1      -1.124   1.726   0.017  0.00  0.00    +0.250 C 
ATOM     10  O   UNL     1      -1.036   2.935  -0.076  0.00  0.00    -0.270 OA
ATOM     11  N   UNL     1      -0.011   0.966   0.007  0.00  0.00    -0.281 N 
ATOM     12  H   UNL     1      -0.084  -0.001   0.015  0.00  0.00    +0.155 HD
BRANCH  11  13
ATOM     13  C   UNL     1       1.249   1.572  -0.020  0.00  0.00    +0.038 A 
ATOM     14  C   UNL     1       1.437   2.756  -0.720  0.00  0.00    +0.043 A 
ATOM     15  C   UNL     1       2.683   3.352  -0.745  0.00  0.00    +0.043 A 
ATOM     16  C   UNL     1       3.743   2.770  -0.071  0.00  0.00    +0.020 A 
ATOM     17  C   UNL     1       3.559   1.592   0.628  0.00  0.00    +0.006 A 
ATOM     18  C   UNL     1       2.314   0.994   0.659  0.00  0.00    -0.029 A 
ATOM     19  C   UNL     1       2.112  -0.288   1.426  0.00  0.00    +0.045 C 
ATOM     20 CL   UNL     1       2.920   4.833  -1.620  0.00  0.00    -0.083 Cl
ENDBRANCH  11  13
ENDBRANCH   3   9
BRANCH   1  21
ATOM     21  C   UNL     1      -5.529  -0.454  -1.095  0.00  0.00    +0.356 C 
ATOM     22  O   UNL     1      -5.509  -0.498  -2.311  0.00  0.00    -0.243 OA
BRANCH  21  23
ATOM     23  O   UNL     1      -6.592  -0.937  -0.420  0.00  0.00    -0.460 OA
BRANCH  23  25
ATOM     24  C   UNL     1      -8.783  -1.990  -0.277  0.00  0.00    +0.048 C 
ATOM     25  C   UNL     1      -7.675  -1.496  -1.209  0.00  0.00    +0.229 C 
ENDBRANCH  23  25
ENDBRANCH  21  23
ENDBRANCH   1  21
TORSDOF 5
