REMARK  Name = ZINC67433256
REMARK  10 active torsions:
REMARK  status: ('A' for Active; 'I' for Inactive)
REMARK    1  A    between atoms: C_1  and  C_2
REMARK    2  A    between atoms: C_5  and  O_8
REMARK    3  A    between atoms: O_8  and  C_9
REMARK    4  A    between atoms: C_9  and  C_10
REMARK    5  A    between atoms: C_10  and  C_12
REMARK    6  A    between atoms: C_10  and  N_13
REMARK    7  A    between atoms: N_13  and  S_14
REMARK    8  A    between atoms: S_14  and  N_17
REMARK    9  A    between atoms: C_19  and  C_26
REMARK   10  A    between atoms: C_22  and  C_25
REMARK                            x       y       z     vdW  Elec       q    Type
REMARK                         _______ _______ _______ _____ _____    ______ ____
ROOT
ATOM      1  N   UNL     1       0.989  -7.271   0.960  0.00  0.00    -0.174 NA
ATOM      2  H   UNL     1       1.448  -6.491   0.611  0.00  0.00    +0.150 HD
ENDROOT
BRANCH   1   3
ATOM      3  S   UNL     1       1.758  -8.736   1.000  0.00  0.00    +0.098 S 
ATOM      4  O   UNL     1       3.025  -8.547   0.383  0.00  0.00    -0.141 OA
ATOM      5  O   UNL     1       1.623  -9.231   2.325  0.00  0.00    -0.141 OA
BRANCH   3   6
ATOM      6  N   UNL     1       0.905  -9.764   0.022  0.00  0.00    -0.162 NA
ATOM      7  C   UNL     1       1.145  -9.803  -1.430  0.00  0.00    +0.142 C 
ATOM      8  C   UNL     1       1.359 -11.263  -1.846  0.00  0.00    +0.131 C 
ATOM      9  O   UNL     1       0.272 -12.055  -1.361  0.00  0.00    -0.371 OA
ATOM     10  C   UNL     1       0.160 -12.084   0.064  0.00  0.00    +0.131 C 
ATOM     11  C   UNL     1      -0.112 -10.670   0.579  0.00  0.00    +0.142 C 
ATOM     12  C   UNL     1      -0.992 -13.008   0.467  0.00  0.00    +0.039 C 
ATOM     13  C   UNL     1       2.672 -11.776  -1.251  0.00  0.00    +0.039 C 
ENDBRANCH   3   6
ENDBRANCH   1   3
BRANCH   1  14
ATOM     14  C   UNL     1      -0.386  -7.152   1.454  0.00  0.00    +0.112 C 
ATOM     15  C   UNL     1      -1.361  -7.286   0.283  0.00  0.00    +0.029 C 
BRANCH  14  16
ATOM     16  C   UNL     1      -0.572  -5.787   2.119  0.00  0.00    +0.249 C 
BRANCH  16  17
ATOM     17  O   UNL     1      -0.432  -4.756   1.139  0.00  0.00    -0.490 OA
BRANCH  17  22
ATOM     18  C   UNL     1      -1.006   0.558   2.916  0.00  0.00    +0.044 C 
ATOM     19  C   UNL     1      -0.852  -0.864   2.441  0.00  0.00    -0.050 A 
ATOM     20  C   UNL     1      -0.587  -1.121   1.109  0.00  0.00    +0.007 A 
ATOM     21  C   UNL     1      -0.446  -2.424   0.670  0.00  0.00    +0.046 A 
ATOM     22  C   UNL     1      -0.570  -3.474   1.568  0.00  0.00    +0.121 A 
ATOM     23  C   UNL     1      -0.835  -3.213   2.904  0.00  0.00    +0.046 A 
ATOM     24  C   UNL     1      -0.971  -1.909   3.339  0.00  0.00    +0.007 A 
ENDBRANCH  17  22
ENDBRANCH  16  17
ENDBRANCH  14  16
ENDBRANCH   1  14
TORSDOF 6
