REMARK  Name = ZINC33141170
REMARK  6 active torsions:
REMARK  status: ('A' for Active; 'I' for Inactive)
REMARK    1  A    between atoms: C_1  and  N_2
REMARK    2  A    between atoms: C_3  and  C_5
REMARK    3  A    between atoms: N_19  and  C_22
REMARK    4  A    between atoms: C_22  and  C_23
REMARK    5  A    between atoms: N_25  and  C_26
REMARK    6  A    between atoms: C_29  and  C_32
REMARK                            x       y       z     vdW  Elec       q    Type
REMARK                         _______ _______ _______ _____ _____    ______ ____
ROOT
ATOM      1  C   UNL     1      11.648  -7.530  -0.567  0.00  0.00    +0.092 C 
ATOM      2  C   UNL     1      12.494  -6.647   0.354  0.00  0.00    +0.016 C 
ATOM      3  C   UNL     1      11.766  -6.473   1.690  0.00  0.00    +0.020 C 
ATOM      4  C   UNL     1      10.385  -5.864   1.438  0.00  0.00    +0.107 C 
ATOM      5  N   UNL     1       9.615  -6.747   0.552  0.00  0.00    -0.309 N 
ATOM      6  C   UNL     1      10.270  -6.891  -0.754  0.00  0.00    +0.119 C 
ATOM      7  C   UNL     1       8.321  -6.295   0.408  0.00  0.00    +0.164 A 
ATOM      8  N   UNL     1       7.672  -6.005  -0.701  0.00  0.00    -0.205 NA
ATOM      9  C   UNL     1       6.410  -5.573  -0.699  0.00  0.00    +0.176 A 
ATOM     10  C   UNL     1       5.827  -5.452   0.577  0.00  0.00    +0.124 A 
ATOM     11  S   UNL     1       7.145  -5.968   1.645  0.00  0.00    -0.045 S 
ATOM     12  C   UNL     1       4.521  -5.014   0.741  0.00  0.00    +0.270 A 
ATOM     13  O   UNL     1       4.026  -4.913   1.852  0.00  0.00    -0.266 OA
ATOM     14  N   UNL     1       3.809  -4.703  -0.371  0.00  0.00    -0.289 N 
ATOM     15  C   UNL     1       4.392  -4.833  -1.590  0.00  0.00    +0.204 A 
ATOM     16  N   UNL     1       5.614  -5.236  -1.754  0.00  0.00    -0.217 NA
ENDROOT
BRANCH   1  19
ATOM     17  C   UNL     1      12.422  -8.516  -4.184  0.00  0.00    +0.128 C 
ATOM     18  N   UNL     1      11.760  -8.391  -2.883  0.00  0.00    -0.318 N 
ATOM     19  C   UNL     1      12.329  -7.658  -1.906  0.00  0.00    +0.217 C 
ATOM     20  O   UNL     1      13.388  -7.102  -2.103  0.00  0.00    -0.275 OA
ATOM     21  H   UNL     1      10.799  -8.896  -2.704  0.00  0.00    +0.148 HD
ENDBRANCH   1  19
BRANCH  14  22
ATOM     22  C   UNL     1       2.425  -4.236  -0.258  0.00  0.00    +0.222 C 
BRANCH  22  23
ATOM     23  C   UNL     1       2.410  -2.734  -0.137  0.00  0.00    +0.237 C 
ATOM     24  O   UNL     1       3.452  -2.114  -0.144  0.00  0.00    -0.274 OA
ATOM     25  N   UNL     1       1.237  -2.079  -0.020  0.00  0.00    -0.284 N 
ATOM     26  H   UNL     1       0.298  -2.645   0.073  0.00  0.00    +0.155 HD
BRANCH  25  27
ATOM     27  C   UNL     1       1.214  -0.680  -0.019  0.00  0.00    +0.033 A 
ATOM     28  C   UNL     1       2.137   0.031  -0.774  0.00  0.00    +0.024 A 
ATOM     29  C   UNL     1       2.111   1.412  -0.771  0.00  0.00    +0.014 A 
ATOM     30  C   UNL     1       1.168   2.086  -0.017  0.00  0.00    +0.055 A 
ATOM     31  C   UNL     1       0.248   1.380   0.736  0.00  0.00    +0.014 A 
ATOM     32  C   UNL     1       0.268  -0.001   0.737  0.00  0.00    +0.024 A 
BRANCH  30  33
ATOM     33  C   UNL     1       1.143   3.593  -0.015  0.00  0.00    +0.417 C 
ATOM     34  F   UNL     1       0.306   4.046  -1.041  0.00  0.00    -0.166 F 
ATOM     35  F   UNL     1       0.662   4.050   1.216  0.00  0.00    -0.166 F 
ATOM     36  F   UNL     1       2.438   4.081  -0.221  0.00  0.00    -0.166 F 
ENDBRANCH  30  33
ENDBRANCH  25  27
ENDBRANCH  22  23
ENDBRANCH  14  22
TORSDOF 5
