REMARK  Name = ZINC44974059
REMARK  8 active torsions:
REMARK  status: ('A' for Active; 'I' for Inactive)
REMARK    1  A    between atoms: C_1  and  C_2
REMARK    2  A    between atoms: C_12  and  C_14
REMARK    3  A    between atoms: C_16  and  O_22
REMARK    4  A    between atoms: C_19  and  O_20
REMARK    5  A    between atoms: O_20  and  C_21
REMARK    6  A    between atoms: O_22  and  C_23
REMARK    7  A    between atoms: C_27  and  C_29
REMARK    8  A    between atoms: C_27  and  C_30
REMARK                            x       y       z     vdW  Elec       q    Type
REMARK                         _______ _______ _______ _____ _____    ______ ____
ROOT
ATOM      1  C   UNL     1      -0.018   1.503   0.010  0.00  0.00    +0.086 C 
ATOM      2  C   UNL     1       0.002  -0.004   0.002  0.00  0.00    +0.109 A 
ATOM      3  N   UNL     1       0.005  -0.635  -1.140  0.00  0.00    -0.196 NA
ATOM      4  C   UNL     1       0.022  -1.980  -1.190  0.00  0.00    +0.279 A 
ATOM      5  O   UNL     1       0.027  -2.558  -2.268  0.00  0.00    -0.265 OA
ATOM      6  C   UNL     1       0.034  -2.716   0.012  0.00  0.00    +0.069 A 
ATOM      7  C   UNL     1       0.034  -2.036   1.192  0.00  0.00    +0.111 A 
ATOM      8  N   UNL     1       0.022  -0.668   1.175  0.00  0.00    -0.331 N 
ATOM      9  N   UNL     1       0.056  -2.720   2.384  0.00  0.00    -0.304 N 
ATOM     10  C   UNL     1       0.453  -4.029   2.431  0.00  0.00    +0.017 C 
ATOM     11  C   UNL     1       0.471  -4.784   1.312  0.00  0.00    +0.024 C 
ATOM     12  C   UNL     1       0.042  -4.215  -0.016  0.00  0.00    +0.096 C 
ATOM     13  C   UNL     1       0.893  -6.125   1.351  0.00  0.00    +0.162 C 
ATOM     14  O   UNL     1       0.891  -6.780   0.327  0.00  0.00    -0.292 OA
ATOM     15  C   UNL     1       1.346  -6.765   2.634  0.00  0.00    +0.086 C 
ATOM     16  C   UNL     1       1.929  -5.684   3.552  0.00  0.00    -0.023 C 
ATOM     17  C   UNL     1       0.865  -4.605   3.764  0.00  0.00    +0.058 C 
ATOM     18  C   UNL     1       2.309  -6.303   4.898  0.00  0.00    +0.011 C 
ATOM     19  C   UNL     1       3.166  -5.066   2.897  0.00  0.00    +0.011 C 
ATOM     20  H   UNL     1      -0.214  -2.271   3.201  0.00  0.00    +0.153 HD
ATOM     21  H   UNL     1       0.024  -0.175   2.010  0.00  0.00    +0.168 HD
ENDROOT
BRANCH  12  22
ATOM     22  C   UNL     1      -1.344  -4.710  -0.341  0.00  0.00    +0.010 A 
ATOM     23  C   UNL     1      -2.403  -4.387   0.485  0.00  0.00    +0.053 A 
ATOM     24  C   UNL     1      -3.679  -4.843   0.186  0.00  0.00    +0.121 A 
ATOM     25  C   UNL     1      -3.890  -5.622  -0.942  0.00  0.00    +0.049 A 
ATOM     26  C   UNL     1      -2.831  -5.945  -1.767  0.00  0.00    +0.049 A 
ATOM     27  C   UNL     1      -1.556  -5.485  -1.471  0.00  0.00    +0.124 A 
BRANCH  27  28
ATOM     28  O   UNL     1      -0.514  -5.798  -2.287  0.00  0.00    -0.495 OA
ATOM     29  C   UNL     1      -0.805  -6.599  -3.433  0.00  0.00    +0.277 C 
ENDBRANCH  27  28
BRANCH  24  30
ATOM     30  O   UNL     1      -4.722  -4.525   0.999  0.00  0.00    -0.495 OA
ATOM     31  C   UNL     1      -6.008  -5.028   0.630  0.00  0.00    +0.277 C 
ENDBRANCH  24  30
ENDBRANCH  12  22
TORSDOF 3
