REMARK  Name = ZINC64940579
REMARK  8 active torsions:
REMARK  status: ('A' for Active; 'I' for Inactive)
REMARK    1  A    between atoms: C_1  and  N_2
REMARK    2  A    between atoms: C_3  and  C_5
REMARK    3  A    between atoms: C_8  and  S_11
REMARK    4  A    between atoms: S_11  and  N_14
REMARK    5  A    between atoms: N_14  and  N_15
REMARK    6  A    between atoms: N_18  and  C_19
REMARK    7  A    between atoms: C_19  and  C_20
REMARK    8  A    between atoms: C_20  and  C_21
REMARK                            x       y       z     vdW  Elec       q    Type
REMARK                         _______ _______ _______ _____ _____    ______ ____
ROOT
ATOM      1  N   UNL     1      -0.701  -7.177  -1.839  0.00  0.00    -0.107 NA
ATOM      2  H   UNL     1      -1.349  -7.733  -1.378  0.00  0.00    +0.172 HD
ENDROOT
BRANCH   1   3
ATOM      3  N   UNL     1      -0.922  -6.801  -3.170  0.00  0.00    -0.216 N 
ATOM      4  C   UNL     1      -1.145  -7.742  -4.108  0.00  0.00    +0.315 C 
ATOM      5  O   UNL     1      -1.336  -7.415  -5.264  0.00  0.00    -0.251 OA
ATOM      6  N   UNL     1      -1.155  -9.045  -3.766  0.00  0.00    -0.298 N 
ATOM      7  H   UNL     1      -0.914  -5.862  -3.416  0.00  0.00    +0.172 HD
ATOM      8  H   UNL     1      -1.002  -9.306  -2.845  0.00  0.00    +0.150 HD
BRANCH   6   9
ATOM      9  C   UNL     1      -1.398 -10.068  -4.787  0.00  0.00    +0.111 C 
BRANCH   9  10
ATOM     10  C   UNL     1      -1.358 -11.454  -4.139  0.00  0.00    +0.061 C 
BRANCH  10  11
ATOM     11  C   UNL     1      -1.607 -12.506  -5.189  0.00  0.00    -0.009 A 
ATOM     12  C   UNL     1      -0.714 -13.164  -5.967  0.00  0.00    +0.011 A 
ATOM     13  C   UNL     1      -1.175 -14.101  -6.872  0.00  0.00    +0.008 A 
ATOM     14  C   UNL     1      -2.508 -14.334  -6.955  0.00  0.00    +0.045 A 
ATOM     15  S   UNL     1      -3.155 -13.216  -5.724  0.00  0.00    -0.102 S 
ENDBRANCH  10  11
ENDBRANCH   9  10
ENDBRANCH   6   9
ENDBRANCH   1   3
BRANCH   1  16
ATOM     16  S   UNL     1       0.666  -6.673  -1.051  0.00  0.00    +0.074 S 
ATOM     17  O   UNL     1       1.767  -7.060  -1.862  0.00  0.00    -0.152 OA
ATOM     18  O   UNL     1       0.532  -7.089   0.301  0.00  0.00    -0.152 OA
BRANCH  16  22
ATOM     19  C   UNL     1       0.605  -2.143  -1.026  0.00  0.00    +0.037 A 
ATOM     20  C   UNL     1       0.016  -2.857   0.018  0.00  0.00    +0.015 A 
ATOM     21  C   UNL     1       0.038  -4.237   0.004  0.00  0.00    +0.029 A 
ATOM     22  C   UNL     1       0.642  -4.912  -1.042  0.00  0.00    +0.107 A 
ATOM     23  C   UNL     1       1.228  -4.209  -2.079  0.00  0.00    +0.029 A 
ATOM     24  C   UNL     1       1.208  -2.830  -2.081  0.00  0.00    +0.015 A 
BRANCH  19  27
ATOM     25  C   UNL     1      -0.018   1.461   0.010  0.00  0.00    +0.128 C 
ATOM     26  N   UNL     1       0.002  -0.004   0.002  0.00  0.00    -0.314 N 
ATOM     27  C   UNL     1       0.585  -0.664  -1.018  0.00  0.00    +0.244 C 
ATOM     28  O   UNL     1       1.094  -0.045  -1.931  0.00  0.00    -0.270 OA
ATOM     29  H   UNL     1      -0.404  -0.499   0.731  0.00  0.00    +0.149 HD
ENDBRANCH  19  27
ENDBRANCH  16  22
ENDBRANCH   1  16
TORSDOF 7
