REMARK  Name = ZINC58167529
REMARK  7 active torsions:
REMARK  status: ('A' for Active; 'I' for Inactive)
REMARK    1  A    between atoms: C_1  and  N_2
REMARK    2  A    between atoms: C_6  and  S_7
REMARK    3  A    between atoms: S_7  and  C_8
REMARK    4  A    between atoms: C_8  and  C_9
REMARK    5  A    between atoms: C_17  and  C_18
REMARK    6  A    between atoms: N_20  and  C_21
REMARK    7  A    between atoms: C_25  and  N_27
REMARK                            x       y       z     vdW  Elec       q    Type
REMARK                         _______ _______ _______ _____ _____    ______ ____
ROOT
ATOM      1  C   UNL     1       0.054  -1.812   5.275  0.00  0.00    +0.021 A 
ATOM      2  C   UNL     1       1.231  -1.537   6.098  0.00  0.00    +0.025 A 
ATOM      3  C   UNL     1       2.609  -1.633   5.890  0.00  0.00    +0.012 A 
ATOM      4  C   UNL     1       3.471  -1.290   6.892  0.00  0.00    +0.001 A 
ATOM      5  C   UNL     1       2.987  -0.848   8.116  0.00  0.00    +0.004 A 
ATOM      6  C   UNL     1       1.632  -0.746   8.342  0.00  0.00    +0.047 A 
ATOM      7  C   UNL     1       0.735  -1.089   7.336  0.00  0.00    +0.136 A 
ATOM      8  O   UNL     1      -0.610  -1.094   7.262  0.00  0.00    -0.450 OA
ATOM      9  C   UNL     1      -1.023  -1.514   6.047  0.00  0.00    +0.195 A 
ENDROOT
BRANCH   9  10
ATOM     10  C   UNL     1      -2.425  -1.634   5.625  0.00  0.00    +0.284 C 
ATOM     11  O   UNL     1      -2.692  -2.027   4.505  0.00  0.00    -0.266 OA
ATOM     12  N   UNL     1      -3.416  -1.309   6.479  0.00  0.00    -0.279 N 
ATOM     13  H   UNL     1      -3.207  -1.066   7.395  0.00  0.00    +0.155 HD
BRANCH  12  14
ATOM     14  C   UNL     1      -4.745  -1.320   6.045  0.00  0.00    +0.036 A 
ATOM     15  C   UNL     1      -5.761  -1.673   6.925  0.00  0.00    +0.023 A 
ATOM     16  C   UNL     1      -7.074  -1.685   6.497  0.00  0.00    +0.004 A 
ATOM     17  C   UNL     1      -7.382  -1.347   5.193  0.00  0.00    +0.023 A 
ATOM     18  C   UNL     1      -6.371  -0.993   4.308  0.00  0.00    +0.037 A 
ATOM     19  C   UNL     1      -5.051  -0.975   4.737  0.00  0.00    +0.046 A 
BRANCH  18  20
ATOM     20  N   UNL     1      -6.683  -0.651   2.988  0.00  0.00    -0.270 N 
ATOM     21  C   UNL     1      -7.821   0.018   2.716  0.00  0.00    +0.301 C 
ATOM     22  O   UNL     1      -8.616   0.251   3.606  0.00  0.00    -0.253 OA
ATOM     23  N   UNL     1      -8.078   0.429   1.458  0.00  0.00    -0.313 N 
ATOM     24  H   UNL     1      -6.081  -0.896   2.268  0.00  0.00    +0.156 HD
ATOM     25  H   UNL     1      -7.443   0.243   0.749  0.00  0.00    +0.146 HD
ATOM     26  H   UNL     1      -8.897   0.911   1.263  0.00  0.00    +0.146 HD
ENDBRANCH  18  20
ENDBRANCH  12  14
ENDBRANCH   9  10
BRANCH   1  27
ATOM     27  C   UNL     1       0.039  -2.317   3.855  0.00  0.00    +0.117 C 
BRANCH  27  28
ATOM     28  S   UNL     1       0.067  -0.909   2.712  0.00  0.00    -0.083 S 
BRANCH  28  34
ATOM     29  C   UNL     1       0.088   0.460  -0.261  0.00  0.00    +0.151 C 
ATOM     30  N   UNL     1       0.057  -0.993  -0.073  0.00  0.00    -0.329 N 
ATOM     31  C   UNL     1       0.039  -1.947  -1.065  0.00  0.00    +0.107 A 
ATOM     32  C   UNL     1       0.012  -3.145  -0.457  0.00  0.00    +0.131 A 
ATOM     33  N   UNL     1       0.013  -2.945   0.872  0.00  0.00    -0.230 NA
ATOM     34  C   UNL     1       0.046  -1.655   1.116  0.00  0.00    +0.169 A 
ENDBRANCH  28  34
ENDBRANCH  27  28
ENDBRANCH   1  27
TORSDOF 6
