REMARK  Name = ZINC05943055
REMARK  8 active torsions:
REMARK  status: ('A' for Active; 'I' for Inactive)
REMARK    1  A    between atoms: C_1  and  C_2
REMARK    2  A    between atoms: C_6  and  C_9
REMARK    3  A    between atoms: C_7  and  O_8
REMARK    4  A    between atoms: N_11  and  N_12
REMARK    5  A    between atoms: C_13  and  C_14
REMARK    6  A    between atoms: C_16  and  O_22
REMARK    7  A    between atoms: C_17  and  O_21
REMARK    8  A    between atoms: O_22  and  C_23
REMARK                            x       y       z     vdW  Elec       q    Type
REMARK                         _______ _______ _______ _____ _____    ______ ____
ROOT
ATOM      1  C   UNL     1      -0.016   1.344   0.009  0.00  0.00    +0.267 C 
ATOM      2  O   UNL     1       1.029   1.966   0.003  0.00  0.00    -0.268 OA
ATOM      3  N   UNL     1       0.002  -0.004   0.002  0.00  0.00    -0.203 N 
ATOM      4  H   UNL     1      -0.831  -0.500   0.007  0.00  0.00    +0.178 HD
ENDROOT
BRANCH   1  10
ATOM      5  C   UNL     1      -2.575   5.638   0.045  0.00  0.00    +0.047 C 
ATOM      6  C   UNL     1      -2.543   4.132   0.037  0.00  0.00    -0.008 A 
ATOM      7  C   UNL     1      -3.724   3.417   0.039  0.00  0.00    +0.007 A 
ATOM      8  C   UNL     1      -3.705   2.032   0.031  0.00  0.00    +0.001 A 
ATOM      9  C   UNL     1      -2.506   1.353   0.021  0.00  0.00    +0.017 A 
ATOM     10  C   UNL     1      -1.303   2.064   0.019  0.00  0.00    +0.080 A 
ATOM     11  C   UNL     1      -1.327   3.465   0.033  0.00  0.00    +0.132 A 
BRANCH  11  12
ATOM     12  O   UNL     1      -0.166   4.166   0.037  0.00  0.00    -0.506 OA
ATOM     13  H   UNL     1       0.169   4.378  -0.846  0.00  0.00    +0.292 HD
ENDBRANCH  11  12
ENDBRANCH   1  10
BRANCH   3  14
ATOM     14  N   UNL     1       1.225  -0.688  -0.013  0.00  0.00    -0.187 NA
ATOM     15  C   UNL     1       1.242  -1.986  -0.021  0.00  0.00    +0.138 C 
BRANCH  15  16
ATOM     16  C   UNL     1       2.529  -2.705  -0.037  0.00  0.00    -0.001 A 
ATOM     17  C   UNL     1       2.550  -4.103  -0.038  0.00  0.00    +0.059 A 
ATOM     18  C   UNL     1       3.759  -4.773  -0.060  0.00  0.00    +0.163 A 
ATOM     19  C   UNL     1       4.953  -4.056  -0.068  0.00  0.00    +0.173 A 
ATOM     20  C   UNL     1       4.933  -2.668  -0.059  0.00  0.00    +0.063 A 
ATOM     21  C   UNL     1       3.730  -1.992  -0.044  0.00  0.00    +0.028 A 
ATOM     22 BR   UNL     1       6.558  -1.701  -0.070  0.00  0.00    -0.046 Br
BRANCH  19  23
ATOM     23  O   UNL     1       6.141  -4.717  -0.083  0.00  0.00    -0.503 OA
ATOM     24  H   UNL     1       6.493  -4.913   0.796  0.00  0.00    +0.292 HD
ENDBRANCH  19  23
BRANCH  18  25
ATOM     25  O   UNL     1       3.782  -6.133  -0.069  0.00  0.00    -0.491 OA
ATOM     26  C   UNL     1       2.520  -6.803  -0.060  0.00  0.00    +0.277 C 
ENDBRANCH  18  25
ENDBRANCH  15  16
ENDBRANCH   3  14
TORSDOF 6
