REMARK  Name = ZINC66303570
REMARK  6 active torsions:
REMARK  status: ('A' for Active; 'I' for Inactive)
REMARK    1  A    between atoms: C_1  and  C_2
REMARK    2  A    between atoms: C_2  and  C_4
REMARK    3  A    between atoms: C_2  and  N_15
REMARK    4  A    between atoms: C_16  and  C_18
REMARK    5  A    between atoms: C_18  and  C_19
REMARK    6  A    between atoms: C_22  and  C_24
REMARK                            x       y       z     vdW  Elec       q    Type
REMARK                         _______ _______ _______ _____ _____    ______ ____
ROOT
ATOM      1  N   UNL     1      -1.372  -0.511   0.012  0.00  0.00    -0.308 N 
ATOM      2  C   UNL     1      -2.029  -0.655   1.181  0.00  0.00    +0.219 C 
ATOM      3  O   UNL     1      -1.481  -0.365   2.224  0.00  0.00    -0.275 OA
ATOM      4  H   UNL     1      -1.810  -0.743  -0.822  0.00  0.00    +0.149 HD
ENDROOT
BRANCH   1   6
ATOM      5  C   UNL     1      -0.019   1.526   0.010  0.00  0.00    +0.033 C 
ATOM      6  C   UNL     1       0.002  -0.004   0.002  0.00  0.00    +0.100 C 
BRANCH   6   7
ATOM      7  C   UNL     1       0.707  -0.490  -1.238  0.00  0.00    -0.026 A 
ATOM      8  C   UNL     1       0.035  -0.521  -2.446  0.00  0.00    +0.009 A 
ATOM      9  C   UNL     1       0.676  -0.964  -3.589  0.00  0.00    +0.048 A 
ATOM     10  C   UNL     1       1.994  -1.379  -3.523  0.00  0.00    +0.142 A 
ATOM     11  C   UNL     1       2.672  -1.350  -2.305  0.00  0.00    +0.076 A 
ATOM     12  C   UNL     1       2.027  -0.899  -1.165  0.00  0.00    +0.032 A 
ATOM     13  N   UNL     1       4.006  -1.776  -2.252  0.00  0.00    -0.280 N 
ATOM     14  C   UNL     1       4.699  -1.903  -3.404  0.00  0.00    +0.255 C 
ATOM     15  O   UNL     1       5.846  -2.299  -3.385  0.00  0.00    -0.272 OA
ATOM     16  C   UNL     1       4.043  -1.549  -4.714  0.00  0.00    +0.325 C 
ATOM     17  O   UNL     1       2.640  -1.818  -4.637  0.00  0.00    -0.481 OA
ATOM     18  H   UNL     1       4.426  -1.976  -1.400  0.00  0.00    +0.155 HD
ENDBRANCH   6   7
ENDBRANCH   1   6
BRANCH   2  19
ATOM     19  C   UNL     1      -3.442  -1.177   1.191  0.00  0.00    +0.151 C 
BRANCH  19  20
ATOM     20  C   UNL     1      -3.943  -1.242   2.611  0.00  0.00    +0.058 A 
ATOM     21  C   UNL     1      -5.098  -0.611   2.957  0.00  0.00    +0.071 A 
ATOM     22  S   UNL     1      -5.189  -1.018   4.696  0.00  0.00    -0.074 S 
ATOM     23  C   UNL     1      -3.684  -1.980   4.772  0.00  0.00    +0.128 A 
ATOM     24  N   UNL     1      -3.269  -1.911   3.515  0.00  0.00    -0.242 NA
BRANCH  23  25
ATOM     25  C   UNL     1      -3.070  -2.671   5.926  0.00  0.00    +0.114 A 
ATOM     26  C   UNL     1      -3.686  -2.626   7.179  0.00  0.00    +0.141 A 
ATOM     27  N   UNL     1      -3.133  -3.245   8.205  0.00  0.00    -0.260 NA
ATOM     28  C   UNL     1      -1.998  -3.906   8.048  0.00  0.00    +0.130 A 
ATOM     29  C   UNL     1      -1.384  -3.953   6.808  0.00  0.00    +0.131 A 
ATOM     30  N   UNL     1      -1.931  -3.342   5.774  0.00  0.00    -0.250 NA
ENDBRANCH  23  25
ENDBRANCH  19  20
ENDBRANCH   2  19
TORSDOF 5
