REMARK  Name = ZINC44171447
REMARK  8 active torsions:
REMARK  status: ('A' for Active; 'I' for Inactive)
REMARK    1  A    between atoms: C_4  and  C_7
REMARK    2  A    between atoms: C_10  and  C_23
REMARK    3  A    between atoms: C_12  and  O_22
REMARK    4  A    between atoms: C_14  and  C_17
REMARK    5  A    between atoms: C_17  and  C_19
REMARK    6  A    between atoms: C_17  and  O_21
REMARK    7  A    between atoms: C_19  and  O_20
REMARK    8  A    between atoms: C_23  and  O_24
REMARK                            x       y       z     vdW  Elec       q    Type
REMARK                         _______ _______ _______ _____ _____    ______ ____
ROOT
ATOM      1  C   UNL     1       3.711  -0.707  -0.038  0.00  0.00    +0.283 C 
ATOM      2  O   UNL     1       4.444  -0.346  -1.211  0.00  0.00    -0.339 OA
ATOM      3  C   UNL     1       5.702  -1.016  -1.334  0.00  0.00    +0.178 C 
ATOM      4  C   UNL     1       5.462  -2.529  -1.337  0.00  0.00    +0.177 C 
ATOM      5  C   UNL     1       4.661  -2.906  -0.086  0.00  0.00    +0.183 C 
ATOM      6  O   UNL     1       3.469  -2.116  -0.042  0.00  0.00    -0.339 OA
ENDROOT
BRANCH   1  10
ATOM      7  C   UNL     1      -0.017   1.378   0.010  0.00  0.00    +0.000 A 
ATOM      8  C   UNL     1       1.171   2.086   0.002  0.00  0.00    +0.000 A 
ATOM      9  C   UNL     1       2.377   1.411  -0.013  0.00  0.00    +0.008 A 
ATOM     10  C   UNL     1       2.396   0.029  -0.020  0.00  0.00    +0.008 A 
ATOM     11  C   UNL     1       1.208  -0.679  -0.012  0.00  0.00    +0.008 A 
ATOM     12  C   UNL     1       0.002  -0.004   0.002  0.00  0.00    +0.000 A 
ENDBRANCH   1  10
BRANCH   4  13
ATOM     13  O   UNL     1       6.717  -3.213  -1.330  0.00  0.00    -0.386 OA
ATOM     14  H   UNL     1       7.278  -3.013  -2.091  0.00  0.00    +0.210 HD
ENDBRANCH   4  13
BRANCH   5  15
ATOM     15  C   UNL     1       4.293  -4.390  -0.141  0.00  0.00    +0.171 C 
BRANCH  15  16
ATOM     16  O   UNL     1       5.486  -5.175  -0.196  0.00  0.00    -0.387 OA
ATOM     17  H   UNL     1       6.072  -5.054   0.564  0.00  0.00    +0.210 HD
ENDBRANCH  15  16
BRANCH  15  18
ATOM     18  C   UNL     1       3.494  -4.764   1.109  0.00  0.00    +0.189 C 
BRANCH  18  19
ATOM     19  O   UNL     1       3.051  -6.119   1.003  0.00  0.00    -0.392 OA
ATOM     20  H   UNL     1       2.537  -6.425   1.763  0.00  0.00    +0.210 HD
ENDBRANCH  18  19
ENDBRANCH  15  18
ENDBRANCH   5  15
BRANCH   3  21
ATOM     21  C   UNL     1       6.600  -0.640  -0.154  0.00  0.00    +0.190 C 
BRANCH  21  22
ATOM     22  O   UNL     1       6.908   0.754  -0.214  0.00  0.00    -0.392 OA
ATOM     23  H   UNL     1       7.475   1.063   0.505  0.00  0.00    +0.210 HD
ENDBRANCH  21  22
ENDBRANCH   3  21
TORSDOF 8
