REMARK  Name = ZINC66327728
REMARK  6 active torsions:
REMARK  status: ('A' for Active; 'I' for Inactive)
REMARK    1  A    between atoms: C_1  and  C_2
REMARK    2  A    between atoms: C_2  and  C_4
REMARK    3  A    between atoms: C_2  and  N_15
REMARK    4  A    between atoms: N_15  and  S_16
REMARK    5  A    between atoms: S_16  and  C_19
REMARK    6  A    between atoms: C_22  and  N_24
REMARK                            x       y       z     vdW  Elec       q    Type
REMARK                         _______ _______ _______ _____ _____    ______ ____
ROOT
ATOM      1  C   UNL     1      -0.019   1.526   0.010  0.00  0.00    +0.031 C 
ATOM      2  C   UNL     1       0.002  -0.004   0.002  0.00  0.00    +0.103 C 
ENDROOT
BRANCH   2   3
ATOM      3  C   UNL     1      -1.412  -0.526   0.013  0.00  0.00    -0.027 A 
ATOM      4  C   UNL     1      -2.140  -0.568  -1.162  0.00  0.00    +0.009 A 
ATOM      5  C   UNL     1      -3.438  -1.046  -1.161  0.00  0.00    +0.048 A 
ATOM      6  C   UNL     1      -4.010  -1.484   0.021  0.00  0.00    +0.142 A 
ATOM      7  C   UNL     1      -3.276  -1.440   1.205  0.00  0.00    +0.076 A 
ATOM      8  C   UNL     1      -1.975  -0.966   1.196  0.00  0.00    +0.032 A 
ATOM      9  N   UNL     1      -3.869  -1.884   2.396  0.00  0.00    -0.280 N 
ATOM     10  C   UNL     1      -4.996  -2.626   2.329  0.00  0.00    +0.255 C 
ATOM     11  O   UNL     1      -5.544  -2.995   3.346  0.00  0.00    -0.272 OA
ATOM     12  C   UNL     1      -5.571  -2.994   0.984  0.00  0.00    +0.325 C 
ATOM     13  O   UNL     1      -5.284  -1.958   0.040  0.00  0.00    -0.481 OA
ATOM     14  H   UNL     1      -3.476  -1.663   3.254  0.00  0.00    +0.155 HD
ENDBRANCH   2   3
BRANCH   2  15
ATOM     15  N   UNL     1       0.688  -0.476  -1.203  0.00  0.00    -0.182 NA
ATOM     16  H   UNL     1       0.197  -0.571  -2.035  0.00  0.00    +0.149 HD
BRANCH  15  17
ATOM     17  S   UNL     1       2.300  -0.849  -1.146  0.00  0.00    +0.065 S 
ATOM     18  O   UNL     1       2.660  -1.296  -2.446  0.00  0.00    -0.153 OA
ATOM     19  O   UNL     1       2.947   0.245  -0.511  0.00  0.00    -0.153 OA
BRANCH  17  20
ATOM     20  C   UNL     1       2.478  -2.233  -0.071  0.00  0.00    +0.145 A 
ATOM     21  C   UNL     1       2.448  -3.555  -0.369  0.00  0.00    +0.038 A 
ATOM     22  C   UNL     1       2.611  -4.476   0.649  0.00  0.00    +0.042 A 
ATOM     23  C   UNL     1       2.797  -4.029   1.916  0.00  0.00    +0.165 A 
ATOM     24  S   UNL     1       2.752  -2.258   1.693  0.00  0.00    -0.045 S 
BRANCH  23  25
ATOM     25  N   UNL     1       2.992  -4.808   3.160  0.00  0.00    +0.063 N 
ATOM     26  O   UNL     1       2.999  -6.016   3.122  0.00  0.00    -0.126 OA
ATOM     27  O   UNL     1       3.144  -4.235   4.213  0.00  0.00    -0.126 OA
ENDBRANCH  23  25
ENDBRANCH  17  20
ENDBRANCH  15  17
ENDBRANCH   2  15
TORSDOF 5
