REMARK  Name = ZINC19320810
REMARK  8 active torsions:
REMARK  status: ('A' for Active; 'I' for Inactive)
REMARK    1  A    between atoms: C_1  and  C_2
REMARK    2  A    between atoms: C_6  and  C_24
REMARK    3  A    between atoms: C_8  and  N_12
REMARK    4  A    between atoms: N_16  and  C_19
REMARK    5  A    between atoms: C_19  and  C_20
REMARK    6  A    between atoms: C_20  and  C_21
REMARK    7  A    between atoms: C_21  and  O_22
REMARK    8  A    between atoms: O_22  and  C_23
REMARK                            x       y       z     vdW  Elec       q    Type
REMARK                         _______ _______ _______ _____ _____    ______ ____
ROOT
ATOM      1  N   UNL     1       0.085  -4.812   3.438  0.00  0.00    -0.181 NA
ATOM      2  C   UNL     1       0.102  -6.129   3.423  0.00  0.00    +0.185 C 
ATOM      3  N   UNL     1       0.113  -6.849   2.243  0.00  0.00    -0.304 N 
ATOM      4  C   UNL     1       0.986  -8.033   2.188  0.00  0.00    +0.193 C 
ATOM      5  N   UNL     1       0.752  -8.848   3.390  0.00  0.00    -0.271 NA
ATOM      6  C   UNL     1       0.985  -8.061   4.612  0.00  0.00    +0.193 C 
ATOM      7  N   UNL     1       0.118  -6.877   4.585  0.00  0.00    -0.304 N 
ATOM      8  H   UNL     1      -0.432  -6.585   1.485  0.00  0.00    +0.150 HD
ATOM      9  H   UNL     1      -0.423  -6.631   5.352  0.00  0.00    +0.150 HD
ENDROOT
BRANCH   1  17
ATOM     10  C   UNL     1      -0.018   1.503   0.010  0.00  0.00    +0.044 C 
ATOM     11  C   UNL     1       0.002  -0.004   0.002  0.00  0.00    -0.048 A 
ATOM     12  C   UNL     1       0.005  -0.683  -1.214  0.00  0.00    +0.004 A 
ATOM     13  C   UNL     1       0.024  -2.045  -1.258  0.00  0.00    +0.012 A 
ATOM     14  C   UNL     1       0.040  -2.774  -0.060  0.00  0.00    +0.022 A 
ATOM     15  C   UNL     1       0.059  -4.182  -0.044  0.00  0.00    +0.051 A 
ATOM     16  N   UNL     1       0.074  -4.798   1.117  0.00  0.00    -0.215 NA
ATOM     17  C   UNL     1       0.070  -4.118   2.269  0.00  0.00    +0.254 A 
ATOM     18  N   UNL     1       0.051  -2.794   2.313  0.00  0.00    -0.211 NA
ATOM     19  C   UNL     1       0.036  -2.084   1.180  0.00  0.00    +0.077 A 
ATOM     20  C   UNL     1       0.022  -0.681   1.184  0.00  0.00    +0.032 A 
ATOM     21  C   UNL     1       0.064  -4.966  -1.331  0.00  0.00    +0.066 C 
ENDBRANCH   1  17
BRANCH   5  22
ATOM     22  C   UNL     1       1.585 -10.058   3.376  0.00  0.00    +0.089 C 
BRANCH  22  23
ATOM     23  C   UNL     1       1.141 -10.996   4.500  0.00  0.00    +0.043 C 
BRANCH  23  24
ATOM     24  C   UNL     1       2.008 -12.256   4.486  0.00  0.00    +0.160 C 
BRANCH  24  25
ATOM     25  O   UNL     1       1.593 -13.132   5.536  0.00  0.00    -0.383 OA
ATOM     26  C   UNL     1       2.344 -14.346   5.610  0.00  0.00    +0.193 C 
ENDBRANCH  24  25
ENDBRANCH  23  24
ENDBRANCH  22  23
ENDBRANCH   5  22
TORSDOF 5
