REMARK  Name = ZINC09690033
REMARK  6 active torsions:
REMARK  status: ('A' for Active; 'I' for Inactive)
REMARK    1  A    between atoms: C_1  and  N_2
REMARK    2  A    between atoms: N_2  and  C_3
REMARK    3  A    between atoms: C_6  and  C_11
REMARK    4  A    between atoms: C_11  and  S_12
REMARK    5  A    between atoms: S_12  and  C_13
REMARK    6  A    between atoms: C_17  and  C_19
REMARK                            x       y       z     vdW  Elec       q    Type
REMARK                         _______ _______ _______ _____ _____    ______ ____
ROOT
ATOM      1  S   UNL     1      -6.389   1.096   0.037  0.00  0.00    -0.079 S 
ENDROOT
BRANCH   1   2
ATOM      2  C   UNL     1      -4.642   0.865   0.028  0.00  0.00    +0.185 A 
ATOM      3  N   UNL     1      -3.999  -0.324   0.018  0.00  0.00    -0.253 N 
ATOM      4  H   UNL     1      -4.406  -1.204   0.015  0.00  0.00    +0.191 HD
ATOM      5  N   UNL     1      -2.625  -0.033   0.008  0.00  0.00    -0.151 NA
ATOM      6  C   UNL     1      -2.510   1.276   0.021  0.00  0.00    +0.185 A 
ATOM      7  N   UNL     1      -3.737   1.819   0.030  0.00  0.00    -0.201 NA
BRANCH   6   8
ATOM      8  C   UNL     1      -1.233   2.030   0.019  0.00  0.00    +0.056 A 
ATOM      9  C   UNL     1      -1.243   3.423   0.032  0.00  0.00    +0.014 A 
ATOM     10  C   UNL     1      -0.052   4.120   0.025  0.00  0.00    +0.001 A 
ATOM     11  C   UNL     1       1.152   3.439   0.010  0.00  0.00    +0.003 A 
ATOM     12  C   UNL     1       1.171   2.056   0.002  0.00  0.00    +0.039 A 
ATOM     13  C   UNL     1      -0.016   1.347   0.009  0.00  0.00    +0.134 A 
ATOM     14  F   UNL     1       0.002  -0.004   0.002  0.00  0.00    -0.205 F 
ENDBRANCH   6   8
ENDBRANCH   1   2
BRANCH   1  15
ATOM     15  C   UNL     1      -6.466   2.905   0.048  0.00  0.00    +0.153 C 
BRANCH  15  21
ATOM     16  C   UNL     1      -9.749   3.892   3.681  0.00  0.00    +0.132 C 
ATOM     17  N   UNL     1     -10.458   4.115   2.418  0.00  0.00    -0.306 N 
ATOM     18  C   UNL     1     -11.858   4.545   2.430  0.00  0.00    +0.132 C 
ATOM     19  C   UNL     1      -9.805   3.922   1.218  0.00  0.00    +0.222 A 
ATOM     20  N   UNL     1      -8.533   3.532   1.206  0.00  0.00    -0.198 NA
ATOM     21  C   UNL     1      -7.907   3.346   0.057  0.00  0.00    +0.146 A 
ATOM     22  N   UNL     1      -8.541   3.551  -1.085  0.00  0.00    -0.199 NA
ATOM     23  C   UNL     1      -9.815   3.936  -1.081  0.00  0.00    +0.217 A 
ATOM     24  N   UNL     1     -10.447   4.124   0.072  0.00  0.00    -0.181 NA
ATOM     25  N   UNL     1     -10.477   4.145  -2.274  0.00  0.00    -0.327 N 
ATOM     26  H   UNL     1     -11.404   4.429  -2.271  0.00  0.00    +0.145 HD
ATOM     27  H   UNL     1     -10.015   4.007  -3.116  0.00  0.00    +0.145 HD
ENDBRANCH  15  21
ENDBRANCH   1  15
TORSDOF 4
