REMARK  Name = ZINC04390686
REMARK  4 active torsions:
REMARK  status: ('A' for Active; 'I' for Inactive)
REMARK    1  A    between atoms: C_4  and  C_7
REMARK    2  A    between atoms: C_7  and  O_9
REMARK    3  A    between atoms: O_9  and  N_10
REMARK    4  A    between atoms: C_11  and  C_12
REMARK                            x       y       z     vdW  Elec       q    Type
REMARK                         _______ _______ _______ _____ _____    ______ ____
ROOT
ATOM      1  N   UNL     1       5.019  -2.584  -0.061  0.00  0.00    -0.059 NA
ATOM      2  C   UNL     1       5.176  -3.877  -0.069  0.00  0.00    +0.163 C 
ATOM      3  N   UNL     1       4.071  -4.708  -0.063  0.00  0.00    -0.340 N 
ATOM      4  H   UNL     1       3.178  -4.328  -0.052  0.00  0.00    +0.144 HD
ATOM      5  H   UNL     1       4.188  -5.671  -0.069  0.00  0.00    +0.144 HD
ENDROOT
BRANCH   2   6
ATOM      6  C   UNL     1       6.537  -4.457  -0.086  0.00  0.00    +0.018 A 
ATOM      7  C   UNL     1       7.657  -3.623  -0.087  0.00  0.00    +0.015 A 
ATOM      8  C   UNL     1       8.922  -4.163  -0.098  0.00  0.00    +0.046 A 
ATOM      9  C   UNL     1       9.099  -5.547  -0.109  0.00  0.00    +0.124 A 
ATOM     10  C   UNL     1       7.979  -6.372  -0.116  0.00  0.00    -0.002 A 
ATOM     11  C   UNL     1       6.712  -5.842  -0.095  0.00  0.00    +0.018 A 
ATOM     12  C   UNL     1       8.483  -7.802  -0.153  0.00  0.00    +0.080 C 
ATOM     13  C   UNL     1       9.962  -7.610  -0.563  0.00  0.00    +0.234 C 
ATOM     14  O   UNL     1      10.248  -6.277  -0.109  0.00  0.00    -0.491 OA
ENDBRANCH   2   6
BRANCH   1  15
ATOM     15  O   UNL     1       3.717  -2.029  -0.045  0.00  0.00    -0.310 OA
BRANCH  15  16
ATOM     16  C   UNL     1       3.695  -0.684  -0.037  0.00  0.00    +0.366 C 
ATOM     17  O   UNL     1       4.737  -0.059  -0.044  0.00  0.00    -0.243 OA
BRANCH  16  21
ATOM     18  C   UNL     1      -0.017   1.379   0.010  0.00  0.00    +0.000 A 
ATOM     19  C   UNL     1       1.168   2.094   0.002  0.00  0.00    +0.001 A 
ATOM     20  C   UNL     1       2.377   1.430  -0.013  0.00  0.00    +0.015 A 
ATOM     21  C   UNL     1       2.404   0.034  -0.021  0.00  0.00    +0.061 A 
ATOM     22  C   UNL     1       1.204  -0.681  -0.013  0.00  0.00    +0.015 A 
ATOM     23  C   UNL     1       0.002  -0.004   0.002  0.00  0.00    +0.001 A 
ENDBRANCH  16  21
ENDBRANCH  15  16
ENDBRANCH   1  15
TORSDOF 4
