REMARK  Name = ZINC51329320
REMARK  6 active torsions:
REMARK  status: ('A' for Active; 'I' for Inactive)
REMARK    1  A    between atoms: C_1  and  C_2
REMARK    2  A    between atoms: C_2  and  C_21
REMARK    3  A    between atoms: C_8  and  O_11
REMARK    4  A    between atoms: O_11  and  C_12
REMARK    5  A    between atoms: C_12  and  C_13
REMARK    6  A    between atoms: C_15  and  C_18
REMARK                            x       y       z     vdW  Elec       q    Type
REMARK                         _______ _______ _______ _____ _____    ______ ____
ROOT
ATOM      1  C   UNL     1      -0.019   1.526   0.010  0.00  0.00    +0.056 C 
ATOM      2  C   UNL     1       0.002  -0.004   0.002  0.00  0.00    +0.109 C 
ATOM      3  C   UNL     1       0.832  -0.534  -1.191  0.00  0.00    +0.086 C 
ATOM      4  C   UNL     1       2.204  -0.704  -0.568  0.00  0.00    +0.002 A 
ATOM      5  C   UNL     1       3.456  -0.875  -1.120  0.00  0.00    +0.007 A 
ATOM      6  C   UNL     1       4.564  -1.000  -0.301  0.00  0.00    +0.004 A 
ATOM      7  C   UNL     1       4.412  -0.953   1.073  0.00  0.00    +0.049 A 
ATOM      8  C   UNL     1       3.157  -0.786   1.631  0.00  0.00    +0.163 A 
ATOM      9  C   UNL     1       2.034  -0.662   0.808  0.00  0.00    +0.166 A 
ATOM     10  O   UNL     1       0.721  -0.510   1.139  0.00  0.00    -0.482 OA
ATOM     11  C   UNL     1      -1.422  -0.563  -0.032  0.00  0.00    +0.056 C 
ENDROOT
BRANCH   8  12
ATOM     12  O   UNL     1       3.016  -0.742   2.983  0.00  0.00    -0.481 OA
BRANCH  12  13
ATOM     13  C   UNL     1       4.205  -0.874   3.764  0.00  0.00    +0.303 C 
BRANCH  13  14
ATOM     14  C   UNL     1       3.855  -0.802   5.228  0.00  0.00    +0.143 A 
ATOM     15  C   UNL     1       3.545  -1.850   6.005  0.00  0.00    +0.063 A 
ATOM     16  C   UNL     1       3.281  -1.296   7.343  0.00  0.00    +0.101 A 
ATOM     17  C   UNL     1       3.465   0.053   7.224  0.00  0.00    +0.210 A 
ATOM     18  O   UNL     1       3.810   0.321   5.962  0.00  0.00    -0.464 OA
BRANCH  16  19
ATOM     19  C   UNL     1       2.901  -2.039   8.552  0.00  0.00    +0.390 C 
ATOM     20  O   UNL     1       2.772  -3.255   8.509  0.00  0.00    -0.240 OA
ATOM     21  O   UNL     1       2.712  -1.440   9.603  0.00  0.00    -0.240 OA
ENDBRANCH  16  19
ENDBRANCH  13  14
ENDBRANCH  12  13
ENDBRANCH   8  12
TORSDOF 4
