REMARK  Name = ZINC62362417
REMARK  2 active torsions:
REMARK  status: ('A' for Active; 'I' for Inactive)
REMARK    1  A    between atoms: C_5  and  N_7
REMARK    2  A    between atoms: C_14  and  N_20
REMARK                            x       y       z     vdW  Elec       q    Type
REMARK                         _______ _______ _______ _____ _____    ______ ____
ROOT
ATOM      1  N   UNL     1       1.245  -2.080   0.039  0.00  0.00    -0.326 N 
ATOM      2  C   UNL     1       1.294  -2.857   1.285  0.00  0.00    +0.124 C 
ATOM      3  C   UNL     1       0.115  -3.837   1.299  0.00  0.00    +0.125 C 
ATOM      4  N   UNL     1       0.086  -4.556   0.018  0.00  0.00    -0.311 N 
ATOM      5  C   UNL     1       0.037  -3.779  -1.229  0.00  0.00    +0.125 C 
ATOM      6  C   UNL     1       1.210  -2.799  -1.243  0.00  0.00    +0.124 C 
ATOM      7  C   UNL     1       0.106  -5.944  -0.015  0.00  0.00    +0.147 A 
ATOM      8  C   UNL     1      -1.086  -6.676   0.069  0.00  0.00    +0.102 A 
ATOM      9  C   UNL     1      -1.009  -8.061   0.031  0.00  0.00    +0.155 A 
ATOM     10  N   UNL     1       0.180  -8.638  -0.082  0.00  0.00    -0.222 NA
ATOM     11  C   UNL     1       1.280  -7.918  -0.158  0.00  0.00    +0.225 A 
ATOM     12  N   UNL     1       1.256  -6.600  -0.132  0.00  0.00    -0.219 NA
ATOM     13 CL   UNL     1      -2.449  -9.025   0.131  0.00  0.00    -0.060 Cl
ENDROOT
BRANCH   1  18
ATOM     14  C   UNL     1      -0.003   1.375   0.162  0.00  0.00    +0.002 A 
ATOM     15  C   UNL     1       1.184   2.083   0.136  0.00  0.00    +0.002 A 
ATOM     16  C   UNL     1       2.392   1.413   0.078  0.00  0.00    +0.022 A 
ATOM     17  C   UNL     1       2.416   0.031   0.046  0.00  0.00    +0.062 A 
ATOM     18  C   UNL     1       1.225  -0.683   0.072  0.00  0.00    +0.048 A 
ATOM     19  C   UNL     1       0.014  -0.006   0.130  0.00  0.00    +0.024 A 
ATOM     20 CL   UNL     1       3.933  -0.810  -0.028  0.00  0.00    -0.082 Cl
ENDBRANCH   1  18
BRANCH   8  21
ATOM     21  N   UNL     1      -2.322  -6.026   0.187  0.00  0.00    -0.353 N 
ATOM     22  H   UNL     1      -2.370  -5.059   0.123  0.00  0.00    +0.143 HD
ATOM     23  H   UNL     1      -3.129  -6.543   0.334  0.00  0.00    +0.143 HD
ENDBRANCH   8  21
TORSDOF 2
