REMARK  Name = ZINC09738971
REMARK  7 active torsions:
REMARK  status: ('A' for Active; 'I' for Inactive)
REMARK    1  A    between atoms: C_1  and  C_2
REMARK    2  A    between atoms: C_2  and  C_3
REMARK    3  A    between atoms: C_2  and  C_4
REMARK    4  A    between atoms: C_2  and  C_5
REMARK    5  A    between atoms: C_8  and  N_11
REMARK    6  A    between atoms: C_14  and  C_26
REMARK    7  A    between atoms: C_16  and  C_18
REMARK                            x       y       z     vdW  Elec       q    Type
REMARK                         _______ _______ _______ _____ _____    ______ ____
ROOT
ATOM      1  N   UNL     1      -6.131   1.433   0.039  0.00  0.00    -0.245 N 
ATOM      2  C   UNL     1      -4.806   1.035   0.030  0.00  0.00    +0.170 A 
ATOM      3  C   UNL     1      -4.809  -0.372   0.023  0.00  0.00    +0.117 A 
ATOM      4  C   UNL     1      -3.586  -1.043   0.013  0.00  0.00    +0.154 A 
ATOM      5  N   UNL     1      -2.464  -0.322   0.007  0.00  0.00    -0.220 NA
ATOM      6  C   UNL     1      -2.504   1.001   0.019  0.00  0.00    +0.163 A 
ATOM      7  N   UNL     1      -3.650   1.674   0.028  0.00  0.00    -0.208 NA
ATOM      8  N   UNL     1      -6.134  -0.770   0.027  0.00  0.00    -0.303 N 
ATOM      9  H   UNL     1      -6.452  -1.687   0.024  0.00  0.00    +0.171 HD
ATOM     10  C   UNL     1      -6.908   0.333   0.037  0.00  0.00    +0.333 A 
ATOM     11  O   UNL     1      -8.124   0.334   0.042  0.00  0.00    -0.246 OA
ENDROOT
BRANCH   6  12
ATOM     12  C   UNL     1      -1.229   1.757   0.017  0.00  0.00    +0.022 A 
ATOM     13  C   UNL     1      -0.013   1.076   0.008  0.00  0.00    +0.014 A 
ATOM     14  C   UNL     1       1.172   1.782   0.000  0.00  0.00    +0.042 A 
ATOM     15  C   UNL     1       1.156   3.167   0.009  0.00  0.00    +0.158 A 
ATOM     16  C   UNL     1      -0.052   3.851   0.024  0.00  0.00    +0.159 A 
ATOM     17  C   UNL     1      -1.243   3.151   0.031  0.00  0.00    +0.053 A 
ATOM     18  F   UNL     1      -0.063   5.202   0.031  0.00  0.00    -0.202 F 
ATOM     19  F   UNL     1       2.319   3.855   0.002  0.00  0.00    -0.202 F 
ENDBRANCH   6  12
BRANCH   1  23
ATOM     20  C   UNL     1      -7.490   5.374   0.068  0.00  0.00    -0.042 A 
ATOM     21  C   UNL     1      -8.398   4.331   0.067  0.00  0.00    +0.006 A 
ATOM     22  C   UNL     1      -7.951   3.024   0.057  0.00  0.00    +0.026 A 
ATOM     23  C   UNL     1      -6.588   2.758   0.049  0.00  0.00    +0.053 A 
ATOM     24  C   UNL     1      -5.679   3.808   0.057  0.00  0.00    +0.026 A 
ATOM     25  C   UNL     1      -6.133   5.112   0.060  0.00  0.00    +0.006 A 
BRANCH  20  27
ATOM     26  C   UNL     1      -8.824   7.038   1.334  0.00  0.00    +0.015 C 
ATOM     27  C   UNL     1      -7.982   6.798   0.079  0.00  0.00    -0.013 C 
ATOM     28  C   UNL     1      -6.785   7.751   0.079  0.00  0.00    +0.015 C 
ATOM     29  C   UNL     1      -8.836   7.053  -1.165  0.00  0.00    +0.015 C 
ENDBRANCH  20  27
ENDBRANCH   1  23
BRANCH   4  30
ATOM     30  C   UNL     1      -3.534  -2.523   0.005  0.00  0.00    +0.262 C 
ATOM     31  O   UNL     1      -4.565  -3.167   0.006  0.00  0.00    -0.269 OA
ATOM     32  N   UNL     1      -2.344  -3.155  -0.005  0.00  0.00    -0.324 N 
ATOM     33  H   UNL     1      -1.522  -2.641  -0.006  0.00  0.00    +0.145 HD
ATOM     34  H   UNL     1      -2.310  -4.125  -0.010  0.00  0.00    +0.145 HD
ENDBRANCH   4  30
TORSDOF 4
