REMARK  Name = ZINC34909261
REMARK  9 active torsions:
REMARK  status: ('A' for Active; 'I' for Inactive)
REMARK    1  A    between atoms: C_1  and  C_2
REMARK    2  A    between atoms: C_2  and  O_3
REMARK    3  A    between atoms: O_3  and  C_4
REMARK    4  A    between atoms: C_4  and  C_6
REMARK    5  A    between atoms: C_8  and  C_20
REMARK    6  A    between atoms: C_14  and  C_15
REMARK    7  A    between atoms: C_14  and  O_19
REMARK    8  A    between atoms: C_22  and  N_27
REMARK    9  A    between atoms: C_25  and  O_26
REMARK                            x       y       z     vdW  Elec       q    Type
REMARK                         _______ _______ _______ _____ _____    ______ ____
ROOT
ATOM      1  C   UNL     1       1.664  -2.374  -2.705  0.00  0.00    +0.181 C 
ATOM      2  C   UNL     1       1.738  -3.902  -2.610  0.00  0.00    +0.124 C 
ATOM      3  N   UNL     1       2.072  -4.449  -3.926  0.00  0.00    -0.319 N 
ATOM      4  C   UNL     1       1.718  -3.817  -5.055  0.00  0.00    +0.133 C 
ATOM      5  S   UNL     1       2.130  -4.526  -6.558  0.00  0.00    -0.019 S 
ATOM      6  N   UNL     1       1.053  -2.652  -5.053  0.00  0.00    -0.291 N 
ATOM      7  C   UNL     1       0.663  -1.998  -3.803  0.00  0.00    +0.244 C 
ATOM      8  H   UNL     1       2.560  -5.285  -3.983  0.00  0.00    +0.148 HD
ATOM      9  H   UNL     1       0.828  -2.232  -5.898  0.00  0.00    +0.151 HD
ENDROOT
BRANCH   2  10
ATOM     10  C   UNL     1       2.800  -4.294  -1.616  0.00  0.00    +0.017 A 
ATOM     11  C   UNL     1       4.101  -4.493  -2.036  0.00  0.00    +0.041 A 
ATOM     12  C   UNL     1       5.076  -4.852  -1.124  0.00  0.00    +0.127 A 
ATOM     13  C   UNL     1       4.752  -5.013   0.210  0.00  0.00    +0.036 A 
ATOM     14  C   UNL     1       3.453  -4.816   0.636  0.00  0.00    +0.048 A 
ATOM     15  C   UNL     1       2.474  -4.449  -0.277  0.00  0.00    +0.122 A 
BRANCH  12  16
ATOM     16  N   UNL     1       6.469  -5.065  -1.577  0.00  0.00    +0.056 N 
ATOM     17  O   UNL     1       6.753  -4.924  -2.744  0.00  0.00    -0.126 OA
ATOM     18  O   UNL     1       7.323  -5.379  -0.781  0.00  0.00    -0.126 OA
ENDBRANCH  12  16
BRANCH  15  19
ATOM     19  O   UNL     1       1.196  -4.249   0.140  0.00  0.00    -0.506 OA
ATOM     20  H   UNL     1       0.646  -5.044   0.118  0.00  0.00    +0.292 HD
ENDBRANCH  15  19
ENDBRANCH   2  10
BRANCH   7  21
ATOM     21  C   UNL     1       0.661  -0.480  -3.994  0.00  0.00    +0.436 C 
ATOM     22  F   UNL     1       1.965  -0.039  -4.243  0.00  0.00    -0.166 F 
ATOM     23  F   UNL     1      -0.158  -0.147  -5.078  0.00  0.00    -0.166 F 
ATOM     24  F   UNL     1       0.174   0.136  -2.836  0.00  0.00    -0.166 F 
ENDBRANCH   7  21
BRANCH   1  25
ATOM     25  C   UNL     1       1.206  -1.807  -1.386  0.00  0.00    +0.317 C 
ATOM     26  O   UNL     1       0.049  -1.909  -1.054  0.00  0.00    -0.250 OA
BRANCH  25  27
ATOM     27  O   UNL     1       2.083  -1.189  -0.580  0.00  0.00    -0.465 OA
BRANCH  27  29
ATOM     28  C   UNL     1       2.718  -0.010   1.432  0.00  0.00    +0.048 C 
ATOM     29  C   UNL     1       1.580  -0.675   0.654  0.00  0.00    +0.229 C 
ENDBRANCH  27  29
ENDBRANCH  25  27
ENDBRANCH   1  25
BRANCH   7  30
ATOM     30  O   UNL     1      -0.645  -2.435  -3.427  0.00  0.00    -0.364 OA
ATOM     31  H   UNL     1      -1.330  -2.229  -4.077  0.00  0.00    +0.212 HD
ENDBRANCH   7  30
TORSDOF 8
