REMARK  Name = ZINC02952969
REMARK  5 active torsions:
REMARK  status: ('A' for Active; 'I' for Inactive)
REMARK    1  A    between atoms: C_1  and  C_2
REMARK    2  A    between atoms: C_6  and  C_17
REMARK    3  A    between atoms: N_8  and  C_9
REMARK    4  A    between atoms: C_20  and  C_23
REMARK    5  A    between atoms: C_23  and  O_24
REMARK                            x       y       z     vdW  Elec       q    Type
REMARK                         _______ _______ _______ _____ _____    ______ ____
ROOT
ATOM      1  C   UNL     1       0.583   7.275   0.020  0.00  0.00    +0.069 C 
ATOM      2  C   UNL     1       0.808   5.785   0.006  0.00  0.00    +0.081 A 
ATOM      3  C   UNL     1       2.102   5.283  -0.008  0.00  0.00    +0.159 A 
ATOM      4  C   UNL     1       2.287   3.887  -0.012  0.00  0.00    +0.027 A 
ATOM      5  C   UNL     1       3.644   3.337  -0.013  0.00  0.00    +0.030 A 
ATOM      6  C   UNL     1       4.678   4.204   0.264  0.00  0.00    +0.099 A 
ATOM      7  C   UNL     1       4.324   5.612   0.538  0.00  0.00    +0.233 A 
ATOM      8  N   UNL     1       5.098   6.369   1.284  0.00  0.00    -0.211 NA
ATOM      9  O   UNL     1       3.179   6.103  -0.013  0.00  0.00    -0.435 OA
ATOM     10  C   UNL     1       1.156   3.062  -0.019  0.00  0.00    +0.007 A 
ATOM     11  C   UNL     1      -0.090   3.653  -0.007  0.00  0.00    +0.117 A 
ATOM     12  N   UNL     1      -0.224   4.966   0.006  0.00  0.00    -0.256 NA
ENDROOT
BRANCH   8  13
ATOM     13  C   UNL     1       4.811   7.697   1.440  0.00  0.00    +0.081 A 
ATOM     14  C   UNL     1       5.253   8.626   0.494  0.00  0.00    +0.029 A 
ATOM     15  C   UNL     1       4.955   9.963   0.655  0.00  0.00    +0.002 A 
ATOM     16  C   UNL     1       4.229  10.387   1.754  0.00  0.00    +0.001 A 
ATOM     17  C   UNL     1       3.792   9.473   2.697  0.00  0.00    +0.016 A 
ATOM     18  C   UNL     1       4.078   8.132   2.547  0.00  0.00    +0.039 A 
ATOM     19  I   UNL     1       3.417   6.751   3.978  0.00  0.00    -0.042 I 
ENDBRANCH   8  13
BRANCH   6  20
ATOM     20  C   UNL     1       6.079   3.746   0.285  0.00  0.00    +0.247 C 
ATOM     21  O   UNL     1       6.341   2.581   0.056  0.00  0.00    -0.270 OA
ATOM     22  N   UNL     1       7.069   4.619   0.559  0.00  0.00    -0.325 N 
ATOM     23  H   UNL     1       6.859   5.548   0.742  0.00  0.00    +0.145 HD
ATOM     24  H   UNL     1       7.991   4.318   0.573  0.00  0.00    +0.145 HD
ENDBRANCH   6  20
BRANCH  10  25
ATOM     25  C   UNL     1       1.298   1.561  -0.033  0.00  0.00    +0.193 C 
BRANCH  25  26
ATOM     26  O   UNL     1       0.001   0.961  -0.031  0.00  0.00    -0.390 OA
ATOM     27  H   UNL     1       0.015  -0.006  -0.039  0.00  0.00    +0.210 HD
ENDBRANCH  25  26
ENDBRANCH  10  25
TORSDOF 4
