REMARK  Name = ZINC62217570
REMARK  5 active torsions:
REMARK  status: ('A' for Active; 'I' for Inactive)
REMARK    1  A    between atoms: C_4  and  S_7
REMARK    2  A    between atoms: S_7  and  C_10
REMARK    3  A    between atoms: C_11  and  N_22
REMARK    4  A    between atoms: N_12  and  C_15
REMARK    5  A    between atoms: C_18  and  O_21
REMARK                            x       y       z     vdW  Elec       q    Type
REMARK                         _______ _______ _______ _____ _____    ______ ____
ROOT
ATOM      1  C   UNL     1       4.406  -1.094   1.637  0.00  0.00    +0.244 A 
ATOM      2  C   UNL     1       5.153  -0.245   2.390  0.00  0.00    +0.166 A 
ATOM      3  N   UNL     1       5.284  -0.825   3.618  0.00  0.00    -0.197 N 
ATOM      4  N   UNL     1       4.587  -2.042   3.555  0.00  0.00    -0.057 NA
ATOM      5  N   UNL     1       4.084  -2.156   2.376  0.00  0.00    -0.108 NA
ENDROOT
BRANCH   3   6
ATOM      6  C   UNL     1       5.977  -0.309   4.724  0.00  0.00    +0.069 A 
ATOM      7  C   UNL     1       7.137   0.428   4.533  0.00  0.00    +0.031 A 
ATOM      8  C   UNL     1       7.819   0.936   5.621  0.00  0.00    +0.047 A 
ATOM      9  C   UNL     1       7.344   0.710   6.905  0.00  0.00    +0.117 A 
ATOM     10  C   UNL     1       6.184  -0.027   7.096  0.00  0.00    +0.047 A 
ATOM     11  C   UNL     1       5.499  -0.530   6.008  0.00  0.00    +0.031 A 
BRANCH   9  12
ATOM     12  O   UNL     1       8.015   1.210   7.976  0.00  0.00    -0.507 OA
ATOM     13  H   UNL     1       7.731   2.096   8.239  0.00  0.00    +0.292 HD
ENDBRANCH   9  12
ENDBRANCH   3   6
BRANCH   1  14
ATOM     14  S   UNL     1       3.934  -0.832  -0.041  0.00  0.00    +0.047 S 
ATOM     15  O   UNL     1       3.674  -2.114  -0.595  0.00  0.00    -0.163 OA
ATOM     16  O   UNL     1       4.890   0.060  -0.597  0.00  0.00    -0.163 OA
BRANCH  14  20
ATOM     17  C   UNL     1      -0.017   1.378   0.010  0.00  0.00    +0.000 A 
ATOM     18  C   UNL     1       1.171   2.086   0.002  0.00  0.00    +0.002 A 
ATOM     19  C   UNL     1       2.377   1.411  -0.013  0.00  0.00    +0.027 A 
ATOM     20  C   UNL     1       2.396   0.029  -0.020  0.00  0.00    +0.095 A 
ATOM     21  C   UNL     1       1.208  -0.679  -0.012  0.00  0.00    +0.027 A 
ATOM     22  C   UNL     1       0.002  -0.004   0.002  0.00  0.00    +0.002 A 
ENDBRANCH  14  20
ENDBRANCH   1  14
BRANCH   2  23
ATOM     23  N   UNL     1       5.682   0.979   1.987  0.00  0.00    -0.340 N 
ATOM     24  H   UNL     1       5.528   1.300   1.084  0.00  0.00    +0.144 HD
ATOM     25  H   UNL     1       6.204   1.510   2.608  0.00  0.00    +0.144 HD
ENDBRANCH   2  23
TORSDOF 5
