REMARK  Name = ZINC09338145
REMARK  8 active torsions:
REMARK  status: ('A' for Active; 'I' for Inactive)
REMARK    1  A    between atoms: C_1  and  N_60
REMARK    2  A    between atoms: C_2  and  C_3
REMARK    3  A    between atoms: C_2  and  N_60
REMARK    4  A    between atoms: C_7  and  C_21
REMARK    5  A    between atoms: C_14  and  C_19
REMARK    6  A    between atoms: C_15  and  S_17
REMARK    7  A    between atoms: S_17  and  C_18
REMARK    8  A    between atoms: C_23  and  N_60
REMARK                            x       y       z     vdW  Elec       q    Type
REMARK                         _______ _______ _______ _____ _____    ______ ____
ROOT
ATOM      1  C   UNL     1       2.859  -1.838   1.500  0.00  0.00    +0.201 C 
ATOM      2  O   UNL     1       2.329  -1.093   0.703  0.00  0.00    -0.278 OA
ATOM      3  N   UNL     1       2.709  -1.627   2.822  0.00  0.00    -0.274 N 
ATOM      4  C   UNL     1       1.879  -0.619   3.270  0.00  0.00    +0.120 C 
ATOM      5  C   UNL     1       1.634  -0.494   4.597  0.00  0.00    +0.166 C 
ATOM      6  C   UNL     1       0.748   0.591   5.138  0.00  0.00    +0.030 C 
ATOM      7  C   UNL     1      -0.184   0.008   6.205  0.00  0.00    +0.014 C 
ATOM      8  C   UNL     1      -1.075   1.119   6.764  0.00  0.00    +0.001 C 
ATOM      9  C   UNL     1      -0.202   2.205   7.396  0.00  0.00    +0.000 C 
ATOM     10  C   UNL     1       0.735   2.786   6.335  0.00  0.00    +0.001 C 
ATOM     11  C   UNL     1       1.624   1.674   5.776  0.00  0.00    +0.014 C 
ATOM     12  C   UNL     1      -0.077   1.203   4.040  0.00  0.00    +0.069 C 
ATOM     13  C   UNL     1       0.228   1.012   2.728  0.00  0.00    +0.112 C 
ATOM     14  N   UNL     1       1.313   0.246   2.365  0.00  0.00    -0.228 NA
ATOM     15  H   UNL     1       3.183  -2.183   3.459  0.00  0.00    +0.156 HD
ENDROOT
BRANCH  13  16
ATOM     16  S   UNL     1      -0.764   1.763   1.480  0.00  0.00    -0.108 S 
ATOM     17  C   UNL     1       0.103   1.188  -0.000  0.00  0.00    +0.091 C 
ENDBRANCH  13  16
BRANCH  12  18
ATOM     18  C   UNL     1      -1.215   2.002   4.382  0.00  0.00    +0.098 C 
ATOM     19  N   UNL     1      -2.117   2.636   4.654  0.00  0.00    -0.191 NA
ENDBRANCH  12  18
BRANCH   5  20
ATOM     20  C   UNL     1       2.230  -1.425   5.507  0.00  0.00    +0.074 C 
ATOM     21  N   UNL     1       2.704  -2.164   6.229  0.00  0.00    -0.196 NA
ENDBRANCH   5  20
BRANCH   1  22
ATOM     22  C   UNL     1       3.686  -2.999   1.011  0.00  0.00    +0.019 C 
BRANCH  22  24
ATOM     23  C   UNL     1       2.354  -3.288  -0.990  0.00  0.00    -0.095 C 
ATOM     24  N   UNL     1       3.703  -2.985  -0.467  0.00  0.00    +0.385 N 
ATOM     25  H   UNL     1       3.982  -2.050  -0.788  0.00  0.00    -0.081 HD
BRANCH  24  26
ATOM     26  C   UNL     1       4.675  -3.977  -0.971  0.00  0.00    -0.068 C 
ATOM     27  C   UNL     1       6.072  -3.598  -0.475  0.00  0.00    -0.015 C 
ATOM     28  C   UNL     1       7.093  -4.604  -1.010  0.00  0.00    -0.002 C 
ATOM     29  C   UNL     1       7.073  -4.587  -2.540  0.00  0.00    -0.000 C 
ATOM     30  C   UNL     1       5.676  -4.966  -3.035  0.00  0.00    -0.002 C 
ATOM     31  C   UNL     1       4.655  -3.960  -2.501  0.00  0.00    -0.015 C 
ENDBRANCH  24  26
ENDBRANCH  22  24
ENDBRANCH   1  22
TORSDOF 6
