REMARK  Name = ZINC09087580
REMARK  4 active torsions:
REMARK  status: ('A' for Active; 'I' for Inactive)
REMARK    1  A    between atoms: C_8  and  C_26
REMARK    2  A    between atoms: C_10  and  C_17
REMARK    3  A    between atoms: C_21  and  N_23
REMARK    4  A    between atoms: C_26  and  C_28
REMARK                            x       y       z     vdW  Elec       q    Type
REMARK                         _______ _______ _______ _____ _____    ______ ____
ROOT
ATOM      1  C   UNL     1       4.207   0.649   2.961  0.00  0.00    +0.000 A 
ATOM      2  C   UNL     1       5.403   0.487   3.637  0.00  0.00    +0.002 A 
ATOM      3  C   UNL     1       6.249  -0.555   3.318  0.00  0.00    +0.023 A 
ATOM      4  C   UNL     1       5.904  -1.453   2.311  0.00  0.00    +0.036 A 
ATOM      5  C   UNL     1       4.699  -1.281   1.638  0.00  0.00    -0.027 A 
ATOM      6  C   UNL     1       3.857  -0.240   1.960  0.00  0.00    +0.004 A 
ATOM      7  C   UNL     1       4.623  -2.395   0.628  0.00  0.00    +0.052 C 
ATOM      8  C   UNL     1       4.539  -1.838  -0.797  0.00  0.00    +0.069 C 
ATOM      9  C   UNL     1       3.468  -2.714  -1.489  0.00  0.00    +0.016 C 
ATOM     10  C   UNL     1       2.588  -3.179  -0.320  0.00  0.00    -0.047 C 
ATOM     11  C   UNL     1       3.933  -4.631   1.149  0.00  0.00    -0.005 C 
ATOM     12  S   UNL     1       2.452  -5.615   0.655  0.00  0.00    -0.181 S 
ATOM     13  C   UNL     1       1.850  -4.480  -0.669  0.00  0.00    +0.052 C 
ATOM     14  C   UNL     1       5.898  -3.176   0.824  0.00  0.00    +0.212 C 
ATOM     15  O   UNL     1       6.242  -4.163   0.209  0.00  0.00    -0.277 OA
ATOM     16  N   UNL     1       6.580  -2.568   1.812  0.00  0.00    -0.286 N 
ATOM     17  H   UNL     1       7.441  -2.870   2.140  0.00  0.00    +0.155 HD
ATOM     18  N   UNL     1       3.461  -3.230   0.873  0.00  0.00    +0.401 N 
ATOM     19  H   UNL     1       2.944  -2.880   1.687  0.00  0.00    -0.078 HD
ENDROOT
BRANCH   9  20
ATOM     20  C   UNL     1       2.665  -1.899  -2.468  0.00  0.00    -0.043 A 
ATOM     21  C   UNL     1       1.285  -1.987  -2.474  0.00  0.00    +0.004 A 
ATOM     22  C   UNL     1       0.548  -1.236  -3.369  0.00  0.00    +0.002 A 
ATOM     23  C   UNL     1       1.190  -0.402  -4.266  0.00  0.00    +0.033 A 
ATOM     24  C   UNL     1       2.570  -0.318  -4.264  0.00  0.00    +0.126 A 
ATOM     25  C   UNL     1       3.307  -1.066  -3.365  0.00  0.00    +0.036 A 
BRANCH  24  26
ATOM     26  N   UNL     1       3.258   0.575  -5.224  0.00  0.00    +0.056 N 
ATOM     27  O   UNL     1       4.474   0.649  -5.222  0.00  0.00    -0.126 OA
ATOM     28  O   UNL     1       2.608   1.234  -6.016  0.00  0.00    -0.126 OA
ENDBRANCH  24  26
ENDBRANCH   9  20
BRANCH   8  29
ATOM     29  C   UNL     1       4.103  -0.396  -0.773  0.00  0.00    +0.173 C 
ATOM     30  O   UNL     1       2.926  -0.118  -0.662  0.00  0.00    -0.291 OA
BRANCH  29  31
ATOM     31  C   UNL     1       5.064   0.634  -0.880  0.00  0.00    +0.055 A 
ATOM     32  C   UNL     1       4.877   2.013  -0.880  0.00  0.00    +0.019 A 
ATOM     33  C   UNL     1       5.997   2.793  -0.999  0.00  0.00    +0.008 A 
ATOM     34  C   UNL     1       7.215   2.196  -1.109  0.00  0.00    +0.046 A 
ATOM     35  S   UNL     1       6.836   0.506  -1.050  0.00  0.00    -0.094 S 
ENDBRANCH  29  31
ENDBRANCH   8  29
TORSDOF 4
