REMARK  Name = ZINC52333714
REMARK  6 active torsions:
REMARK  status: ('A' for Active; 'I' for Inactive)
REMARK    1  A    between atoms: C_1  and  C_2
REMARK    2  A    between atoms: C_2  and  C_4
REMARK    3  A    between atoms: C_2  and  N_10
REMARK    4  A    between atoms: N_10  and  S_11
REMARK    5  A    between atoms: S_11  and  C_14
REMARK    6  A    between atoms: C_16  and  N_22
REMARK                            x       y       z     vdW  Elec       q    Type
REMARK                         _______ _______ _______ _____ _____    ______ ____
ROOT
ATOM      1  S   UNL     1       2.288  -0.978   1.069  0.00  0.00    +0.060 S 
ATOM      2  O   UNL     1       3.107   0.051   0.531  0.00  0.00    -0.153 OA
ATOM      3  O   UNL     1       2.518  -1.542   2.353  0.00  0.00    -0.153 OA
ENDROOT
BRANCH   1   4
ATOM      4  C   UNL     1       2.335  -2.311  -0.082  0.00  0.00    +0.125 A 
ATOM      5  C   UNL     1       3.100  -2.207  -1.228  0.00  0.00    +0.055 A 
ATOM      6  C   UNL     1       3.137  -3.257  -2.135  0.00  0.00    +0.062 A 
ATOM      7  C   UNL     1       2.403  -4.413  -1.886  0.00  0.00    +0.145 A 
ATOM      8  C   UNL     1       1.640  -4.511  -0.738  0.00  0.00    +0.062 A 
ATOM      9  C   UNL     1       1.610  -3.463   0.166  0.00  0.00    +0.070 A 
ATOM     10 CL   UNL     1       0.656  -3.592   1.611  0.00  0.00    -0.081 Cl
ATOM     11  F   UNL     1       2.436  -5.437  -2.767  0.00  0.00    -0.204 F 
BRANCH   6  12
ATOM     12  N   UNL     1       3.910  -3.154  -3.296  0.00  0.00    -0.356 N 
ATOM     13  H   UNL     1       4.421  -2.347  -3.468  0.00  0.00    +0.142 HD
ATOM     14  H   UNL     1       3.935  -3.888  -3.929  0.00  0.00    +0.142 HD
ENDBRANCH   6  12
ENDBRANCH   1   4
BRANCH   1  15
ATOM     15  N   UNL     1       0.739  -0.394   1.080  0.00  0.00    -0.187 NA
ATOM     16  H   UNL     1       0.195  -0.475   1.879  0.00  0.00    +0.148 HD
BRANCH  15  18
ATOM     17  C   UNL     1       0.381   1.760  -0.021  0.00  0.00    +0.026 C 
ATOM     18  C   UNL     1       0.189   0.245  -0.118  0.00  0.00    +0.077 C 
BRANCH  18  19
ATOM     19  C   UNL     1      -1.303  -0.074  -0.228  0.00  0.00    +0.007 C 
ATOM     20  C   UNL     1      -1.495  -1.589  -0.325  0.00  0.00    +0.005 C 
ATOM     21  C   UNL     1      -2.987  -1.908  -0.434  0.00  0.00    +0.000 C 
ATOM     22  C   UNL     1      -3.561  -1.240  -1.685  0.00  0.00    +0.000 C 
ATOM     23  C   UNL     1      -3.370   0.275  -1.588  0.00  0.00    +0.000 C 
ATOM     24  C   UNL     1      -1.877   0.594  -1.479  0.00  0.00    +0.005 C 
ENDBRANCH  18  19
ENDBRANCH  15  18
ENDBRANCH   1  15
TORSDOF 5
