REMARK  Name = ZINC37766983
REMARK  6 active torsions:
REMARK  status: ('A' for Active; 'I' for Inactive)
REMARK    1  A    between atoms: C_1  and  C_2
REMARK    2  A    between atoms: C_6  and  O_18
REMARK    3  A    between atoms: C_7  and  N_8
REMARK    4  A    between atoms: C_9  and  C_11
REMARK    5  A    between atoms: C_11  and  N_17
REMARK    6  A    between atoms: O_18  and  C_19
REMARK                            x       y       z     vdW  Elec       q    Type
REMARK                         _______ _______ _______ _____ _____    ______ ____
ROOT
ATOM      1  N   UNL     1       0.067  -0.022   2.427  0.00  0.00    -0.284 N 
ATOM      2  C   UNL     1      -0.355  -0.637   3.549  0.00  0.00    +0.206 C 
ATOM      3  O   UNL     1      -0.650  -1.814   3.521  0.00  0.00    -0.277 OA
ATOM      4  H   UNL     1       0.370   0.899   2.464  0.00  0.00    +0.155 HD
ENDROOT
BRANCH   1  11
ATOM      5  C   UNL     1       2.574  -0.600   1.214  0.00  0.00    +0.046 C 
ATOM      6  C   UNL     1       1.270  -1.014   0.582  0.00  0.00    -0.025 A 
ATOM      7  C   UNL     1       1.270  -1.699  -0.619  0.00  0.00    +0.020 A 
ATOM      8  C   UNL     1       0.075  -2.081  -1.201  0.00  0.00    +0.022 A 
ATOM      9  C   UNL     1      -1.126  -1.778  -0.585  0.00  0.00    +0.062 A 
ATOM     10  C   UNL     1      -1.134  -1.091   0.618  0.00  0.00    +0.142 A 
ATOM     11  C   UNL     1       0.070  -0.712   1.207  0.00  0.00    +0.079 A 
ATOM     12 BR   UNL     1       0.083  -3.017  -2.844  0.00  0.00    -0.050 Br
BRANCH  10  13
ATOM     13  O   UNL     1      -2.314  -0.792   1.224  0.00  0.00    -0.493 OA
ATOM     14  C   UNL     1      -3.508  -1.217   0.564  0.00  0.00    +0.277 C 
ENDBRANCH  10  13
ENDBRANCH   1  11
BRANCH   2  15
ATOM     15  C   UNL     1      -0.461   0.135   4.838  0.00  0.00    +0.007 C 
ATOM     16  C   UNL     1       0.932   0.306   5.447  0.00  0.00    -0.004 C 
ATOM     17  C   UNL     1       1.540  -1.070   5.725  0.00  0.00    -0.001 C 
ATOM     18  C   UNL     1       0.646  -1.833   6.705  0.00  0.00    -0.000 C 
ATOM     19  C   UNL     1      -0.747  -2.004   6.097  0.00  0.00    -0.001 C 
ATOM     20  C   UNL     1      -1.355  -0.628   5.818  0.00  0.00    -0.004 C 
BRANCH  15  21
ATOM     21  N   UNL     1      -1.044   1.457   4.571  0.00  0.00    +0.388 N 
ATOM     22  H   UNL     1      -1.963   1.344   4.170  0.00  0.00    -0.089 HD
ATOM     23  H   UNL     1      -1.115   1.974   5.434  0.00  0.00    -0.089 HD
ATOM     24  H   UNL     1      -0.455   1.960   3.925  0.00  0.00    -0.089 HD
ENDBRANCH  15  21
ENDBRANCH   2  15
TORSDOF 4
