REMARK  Name = ZINC04593536
REMARK  9 active torsions:
REMARK  status: ('A' for Active; 'I' for Inactive)
REMARK    1  A    between atoms: C_1  and  C_2
REMARK    2  A    between atoms: C_3  and  C_23
REMARK    3  A    between atoms: C_4  and  C_12
REMARK    4  A    between atoms: C_6  and  C_10
REMARK    5  A    between atoms: C_7  and  N_9
REMARK    6  A    between atoms: C_14  and  C_17
REMARK    7  A    between atoms: C_17  and  N_47
REMARK    8  A    between atoms: C_23  and  O_25
REMARK    9  A    between atoms: O_25  and  C_26
REMARK                            x       y       z     vdW  Elec       q    Type
REMARK                         _______ _______ _______ _____ _____    ______ ____
ROOT
ATOM      1  C   UNL     1       3.637  -0.292  -1.077  0.00  0.00    +0.087 C 
ATOM      2  C   UNL     1       2.364   0.288  -0.516  0.00  0.00    +0.115 C 
ATOM      3  C   UNL     1       1.241  -0.439  -0.576  0.00  0.00    +0.087 C 
ATOM      4  C   UNL     1      -0.058   0.092  -0.033  0.00  0.00    +0.111 C 
ATOM      5  C   UNL     1       0.042   1.581   0.160  0.00  0.00    +0.099 C 
ATOM      6  C   UNL     1       1.248   2.198   0.177  0.00  0.00    +0.198 C 
ATOM      7  O   UNL     1       2.396   1.515   0.025  0.00  0.00    -0.445 OA
ENDROOT
BRANCH   4   8
ATOM      8  C   UNL     1      -0.354  -0.566   1.290  0.00  0.00    +0.003 A 
ATOM      9  C   UNL     1      -1.419  -1.325   1.647  0.00  0.00    +0.014 A 
ATOM     10  C   UNL     1      -1.479  -1.835   2.931  0.00  0.00    -0.057 A 
ATOM     11  C   UNL     1      -0.477  -1.551   3.798  0.00  0.00    +0.047 A 
ATOM     12  S   UNL     1       0.603  -0.542   2.797  0.00  0.00    -0.100 S 
BRANCH  10  13
ATOM     13  C   UNL     1      -2.645  -2.687   3.361  0.00  0.00    -0.042 C 
BRANCH  13  19
ATOM     14  C   UNL     1      -3.263  -1.191   5.163  0.00  0.00    -0.050 C 
ATOM     15  C   UNL     1      -4.369  -0.262   5.671  0.00  0.00    +0.141 C 
ATOM     16  O   UNL     1      -5.574  -1.012   5.840  0.00  0.00    -0.383 OA
ATOM     17  C   UNL     1      -6.031  -1.646   4.642  0.00  0.00    +0.141 C 
ATOM     18  C   UNL     1      -4.942  -2.589   4.124  0.00  0.00    -0.050 C 
ATOM     19  N   UNL     1      -3.708  -1.808   3.896  0.00  0.00    +0.385 N 
ATOM     20  H   UNL     1      -3.903  -1.067   3.213  0.00  0.00    -0.081 HD
ENDBRANCH  13  19
ENDBRANCH  10  13
ENDBRANCH   4   8
BRANCH   6  21
ATOM     21  N   UNL     1       1.300   3.558   0.352  0.00  0.00    -0.328 N 
ATOM     22  H   UNL     1       0.479   4.065   0.463  0.00  0.00    +0.145 HD
ATOM     23  H   UNL     1       2.156   4.014   0.366  0.00  0.00    +0.145 HD
ENDBRANCH   6  21
BRANCH   5  24
ATOM     24  C   UNL     1      -1.152   2.355   0.323  0.00  0.00    +0.101 C 
ATOM     25  N   UNL     1      -2.099   2.970   0.451  0.00  0.00    -0.191 NA
ENDBRANCH   5  24
BRANCH   3  26
ATOM     26  C   UNL     1       1.277  -1.729  -1.160  0.00  0.00    +0.339 C 
ATOM     27  O   UNL     1       0.907  -1.887  -2.308  0.00  0.00    -0.245 OA
BRANCH  26  28
ATOM     28  O   UNL     1       1.720  -2.782  -0.443  0.00  0.00    -0.465 OA
ATOM     29  C   UNL     1       1.729  -4.053  -1.095  0.00  0.00    +0.280 C 
ENDBRANCH  26  28
ENDBRANCH   3  26
TORSDOF 7
