REMARK  Name = ZINC33636124
REMARK  22 active torsions:
REMARK  status: ('A' for Active; 'I' for Inactive)
REMARK    1  A    between atoms: C_1  and  C_2
REMARK    2  A    between atoms: C_2  and  C_3
REMARK    3  A    between atoms: C_3  and  C_4
REMARK    4  A    between atoms: C_3  and  C_5
REMARK    5  A    between atoms: C_3  and  C_6
REMARK    6  A    between atoms: C_9  and  O_17
REMARK    7  A    between atoms: C_10  and  C_12
REMARK    8  A    between atoms: C_12  and  C_13
REMARK    9  A    between atoms: C_12  and  C_14
REMARK   10  A    between atoms: C_12  and  C_15
REMARK   11  A    between atoms: C_15  and  C_16
REMARK   12  A    between atoms: O_17  and  C_18
REMARK   13  A    between atoms: C_18  and  C_19
REMARK   14  A    between atoms: C_19  and  C_20
REMARK   15  A    between atoms: C_20  and  C_21
REMARK   16  A    between atoms: C_21  and  N_22
REMARK   17  A    between atoms: C_23  and  C_25
REMARK   18  A    between atoms: C_28  and  C_30
REMARK   19  A    between atoms: C_30  and  C_32
REMARK   20  A    between atoms: C_30  and  N_36
REMARK   21  A    between atoms: C_32  and  C_34
REMARK   22  A    between atoms: C_32  and  O_35
REMARK                            x       y       z     vdW  Elec       q    Type
REMARK                         _______ _______ _______ _____ _____    ______ ____
ROOT
ATOM      1  C   UNL     1       3.678  -2.396  -0.046  0.00  0.00    +0.022 C 
ENDROOT
BRANCH   1   2
ATOM      2  C   UNL     1       3.735  -0.867  -0.038  0.00  0.00    +0.042 C 
BRANCH   2   3
ATOM      3  C   UNL     1       2.313  -0.303  -0.022  0.00  0.00    +0.229 C 
BRANCH   3   4
ATOM      4  O   UNL     1       2.366   1.125  -0.015  0.00  0.00    -0.492 OA
BRANCH   4   8
ATOM      5  C   UNL     1      -1.237   3.133   0.030  0.00  0.00    -0.041 A 
ATOM      6  C   UNL     1      -1.218   1.751   0.017  0.00  0.00    +0.008 A 
ATOM      7  C   UNL     1      -0.013   1.076   0.008  0.00  0.00    +0.046 A 
ATOM      8  C   UNL     1       1.179   1.786   0.000  0.00  0.00    +0.124 A 
ATOM      9  C   UNL     1       1.157   3.173   0.008  0.00  0.00    +0.000 A 
ATOM     10  C   UNL     1      -0.051   3.844   0.022  0.00  0.00    +0.012 A 
BRANCH   5  11
ATOM     11  C   UNL     1      -2.553   3.867   0.046  0.00  0.00    -0.010 C 
ATOM     12  C   UNL     1      -2.636   4.739   1.300  0.00  0.00    +0.016 C 
ATOM     13  C   UNL     1      -2.659   4.752  -1.198  0.00  0.00    +0.016 C 
BRANCH  11  15
ATOM     14  C   UNL     1      -5.037   3.600   0.068  0.00  0.00    +0.005 C 
ATOM     15  C   UNL     1      -3.701   2.856   0.051  0.00  0.00    +0.007 C 
ENDBRANCH  11  15
ENDBRANCH   5  11
BRANCH   9  16
ATOM     16  C   UNL     1       2.449   3.948  -0.000  0.00  0.00    -0.007 C 
ATOM     17  C   UNL     1       3.247   3.598  -1.258  0.00  0.00    +0.016 C 
ATOM     18  C   UNL     1       2.145   5.448   0.010  0.00  0.00    +0.016 C 
BRANCH  16  19
ATOM     19  C   UNL     1       3.269   3.586   1.240  0.00  0.00    +0.008 C 
ATOM     20  C   UNL     1       4.581   4.372   1.232  0.00  0.00    +0.005 C 
ENDBRANCH  16  19
ENDBRANCH   9  16
ENDBRANCH   4   8
ENDBRANCH   3   4
ENDBRANCH   2   3
ENDBRANCH   1   2
BRANCH   1  21
ATOM     21  C   UNL     1       5.100  -2.959  -0.062  0.00  0.00    +0.104 C 
BRANCH  21  22
ATOM     22  N   UNL     1       5.046  -4.423  -0.070  0.00  0.00    -0.310 N 
ATOM     23  C   UNL     1       6.187  -5.140  -0.085  0.00  0.00    +0.266 C 
ATOM     24  O   UNL     1       7.262  -4.572  -0.092  0.00  0.00    -0.268 OA
ATOM     25  H   UNL     1       4.073  -4.937  -0.063  0.00  0.00    +0.149 HD
BRANCH  23  26
ATOM     26  C   UNL     1       6.132  -6.613  -0.092  0.00  0.00    +0.163 A 
ATOM     27  C   UNL     1       7.196  -7.462  -0.113  0.00  0.00    +0.230 A 
ATOM     28  O   UNL     1       6.700  -8.710  -0.108  0.00  0.00    -0.449 OA
ATOM     29  C   UNL     1       5.362  -8.630  -0.095  0.00  0.00    +0.184 A 
ATOM     30  N   UNL     1       5.008  -7.380  -0.085  0.00  0.00    -0.210 NA
BRANCH  29  31
ATOM     31  C   UNL     1       4.418  -9.805  -0.093  0.00  0.00    +0.042 C 
BRANCH  31  32
ATOM     32  N   UNL     1       4.866 -10.794  -1.082  0.00  0.00    +0.387 N 
ATOM     33  H   UNL     1       4.177 -11.652  -1.081  0.00  0.00    -0.089 HD
ATOM     34  H   UNL     1       5.879 -11.138  -0.825  0.00  0.00    -0.089 HD
ATOM     35  H   UNL     1       4.878 -10.335  -2.082  0.00  0.00    -0.089 HD
ENDBRANCH  31  32
BRANCH  31  36
ATOM     36  C   UNL     1       4.402 -10.444   1.297  0.00  0.00    +0.106 C 
ATOM     37  C   UNL     1       3.444 -11.636   1.299  0.00  0.00    +0.036 C 
BRANCH  36  38
ATOM     38  O   UNL     1       3.967  -9.481   2.259  0.00  0.00    -0.393 OA
ATOM     39  H   UNL     1       3.891  -9.759   3.320  0.00  0.00    +0.210 HD
ENDBRANCH  36  38
ENDBRANCH  31  36
ENDBRANCH  29  31
ENDBRANCH  23  26
ENDBRANCH  21  22
ENDBRANCH   1  21
TORSDOF 15
