REMARK  Name = ZINC67273343
REMARK  4 active torsions:
REMARK  status: ('A' for Active; 'I' for Inactive)
REMARK    1  A    between atoms: C_1  and  N_2
REMARK    2  A    between atoms: C_5  and  C_8
REMARK    3  A    between atoms: C_8  and  N_9
REMARK    4  A    between atoms: C_10  and  C_12
REMARK                            x       y       z     vdW  Elec       q    Type
REMARK                         _______ _______ _______ _____ _____    ______ ____
ROOT
ATOM      1  C   UNL     1       2.836  -6.554   2.422  0.00  0.00    +0.075 C 
ATOM      2  C   UNL     1       4.304  -6.150   2.275  0.00  0.00    +0.015 C 
ATOM      3  C   UNL     1       5.108  -6.716   3.448  0.00  0.00    +0.036 C 
ATOM      4  C   UNL     1       4.981  -8.236   3.468  0.00  0.00    +0.112 C 
ATOM      5  C   UNL     1       3.520  -8.654   3.589  0.00  0.00    +0.036 C 
ATOM      6  C   UNL     1       2.723  -8.079   2.415  0.00  0.00    +0.015 C 
ATOM      7  C   UNL     1       5.601  -8.834   2.226  0.00  0.00    +0.244 C 
ATOM      8  O   UNL     1       5.268  -8.645   1.076  0.00  0.00    -0.273 OA
ATOM      9  N   UNL     1       6.602  -9.623   2.667  0.00  0.00    -0.238 N 
ATOM     10  C   UNL     1       6.695  -9.601   4.003  0.00  0.00    +0.307 C 
ATOM     11  O   UNL     1       7.521 -10.232   4.633  0.00  0.00    -0.252 OA
ATOM     12  N   UNL     1       5.771  -8.803   4.569  0.00  0.00    -0.285 N 
ATOM     13  H   UNL     1       7.183 -10.141   2.089  0.00  0.00    +0.159 HD
ATOM     14  H   UNL     1       5.650  -8.635   5.517  0.00  0.00    +0.151 HD
ENDROOT
BRANCH   1  16
ATOM     15  N   UNL     1       1.995  -4.653   1.081  0.00  0.00    -0.315 N 
ATOM     16  C   UNL     1       2.041  -5.986   1.274  0.00  0.00    +0.216 C 
ATOM     17  O   UNL     1       1.444  -6.729   0.524  0.00  0.00    -0.276 OA
ATOM     18  H   UNL     1       2.473  -4.059   1.680  0.00  0.00    +0.149 HD
BRANCH  15  19
ATOM     19  C   UNL     1       1.223  -4.101  -0.035  0.00  0.00    +0.107 C 
BRANCH  19  24
ATOM     20  C   UNL     1      -0.018   1.465   0.010  0.00  0.00    -0.096 C 
ATOM     21  N   UNL     1       0.002  -0.004   0.002  0.00  0.00    +0.378 N 
ATOM     22  C   UNL     1       0.681  -0.476  -1.210  0.00  0.00    -0.079 C 
ATOM     23  C   UNL     1       0.634  -2.005  -1.264  0.00  0.00    -0.014 C 
ATOM     24  C   UNL     1       1.336  -2.575  -0.029  0.00  0.00    +0.003 C 
ATOM     25  C   UNL     1       0.666  -2.018   1.230  0.00  0.00    -0.014 C 
ATOM     26  C   UNL     1       0.712  -0.489   1.192  0.00  0.00    -0.079 C 
ATOM     27  H   UNL     1      -0.945  -0.352   0.012  0.00  0.00    -0.082 HD
ENDBRANCH  19  24
ENDBRANCH  15  19
ENDBRANCH   1  16
TORSDOF 3
