REMARK  Name = ZINC58992051
REMARK  13 active torsions:
REMARK  status: ('A' for Active; 'I' for Inactive)
REMARK    1  A    between atoms: C_1  and  C_2
REMARK    2  A    between atoms: C_2  and  O_3
REMARK    3  A    between atoms: O_3  and  C_4
REMARK    4  A    between atoms: C_6  and  C_11
REMARK    5  A    between atoms: C_9  and  O_10
REMARK    6  A    between atoms: N_12  and  N_13
REMARK    7  A    between atoms: C_14  and  C_16
REMARK    8  A    between atoms: C_16  and  C_17
REMARK    9  A    between atoms: C_17  and  C_18
REMARK   10  A    between atoms: C_18  and  S_19
REMARK   11  A    between atoms: S_19  and  C_20
REMARK   12  A    between atoms: C_23  and  C_26
REMARK   13  A    between atoms: N_24  and  N_25
REMARK                            x       y       z     vdW  Elec       q    Type
REMARK                         _______ _______ _______ _____ _____    ______ ____
ROOT
ATOM      1  C   UNL     1      -1.117  -9.388   2.108  0.00  0.00    +0.098 C 
ENDROOT
BRANCH   1   3
ATOM      2  N   UNL     1      -0.645  -7.119   1.244  0.00  0.00    -0.207 N 
ATOM      3  C   UNL     1      -0.538  -8.452   1.078  0.00  0.00    +0.232 C 
ATOM      4  O   UNL     1       0.024  -8.898   0.100  0.00  0.00    -0.274 OA
ATOM      5  H   UNL     1      -1.095  -6.762   2.026  0.00  0.00    +0.177 HD
BRANCH   2   7
ATOM      6  C   UNL     1      -0.211  -4.964   0.447  0.00  0.00    +0.138 C 
ATOM      7  N   UNL     1      -0.108  -6.248   0.287  0.00  0.00    -0.188 NA
BRANCH   6  10
ATOM      8  C   UNL     1       0.777  -1.811  -1.336  0.00  0.00    +0.162 A 
ATOM      9  C   UNL     1       0.244  -2.665  -0.389  0.00  0.00    +0.059 A 
ATOM     10  C   UNL     1       0.354  -4.048  -0.560  0.00  0.00    -0.002 A 
ATOM     11  C   UNL     1       1.002  -4.560  -1.687  0.00  0.00    +0.013 A 
ATOM     12  C   UNL     1       1.531  -3.701  -2.627  0.00  0.00    +0.050 A 
ATOM     13  C   UNL     1       1.417  -2.329  -2.460  0.00  0.00    +0.158 A 
BRANCH  13  14
ATOM     14  O   UNL     1       1.935  -1.487  -3.393  0.00  0.00    -0.503 OA
ATOM     15  H   UNL     1       2.854  -1.235  -3.229  0.00  0.00    +0.292 HD
ENDBRANCH  13  14
BRANCH   8  16
ATOM     16  O   UNL     1       0.671  -0.465  -1.174  0.00  0.00    -0.489 OA
BRANCH  16  18
ATOM     17  C   UNL     1      -0.019   1.526   0.010  0.00  0.00    +0.048 C 
ATOM     18  C   UNL     1       0.002  -0.004   0.002  0.00  0.00    +0.226 C 
ENDBRANCH  16  18
ENDBRANCH   8  16
ENDBRANCH   6  10
ENDBRANCH   2   7
ENDBRANCH   1   3
BRANCH   1  19
ATOM     19  C   UNL     1      -0.860 -10.835   1.682  0.00  0.00    +0.020 C 
BRANCH  19  20
ATOM     20  C   UNL     1      -1.447 -11.786   2.727  0.00  0.00    +0.078 C 
BRANCH  20  21
ATOM     21  S   UNL     1      -1.143 -13.502   2.222  0.00  0.00    -0.084 S 
BRANCH  21  22
ATOM     22  C   UNL     1      -1.869 -14.460   3.510  0.00  0.00    +0.209 A 
ATOM     23  N   UNL     1      -2.486 -13.996   4.574  0.00  0.00    -0.121 NA
ATOM     24  N   UNL     1      -2.893 -14.970   5.307  0.00  0.00    -0.127 NA
ATOM     25  C   UNL     1      -2.561 -16.115   4.758  0.00  0.00    +0.182 A 
ATOM     26  N   UNL     1      -1.899 -15.823   3.587  0.00  0.00    -0.224 N 
BRANCH  25  27
ATOM     27  C   UNL     1      -2.848 -17.462   5.293  0.00  0.00    +0.021 A 
ATOM     28  C   UNL     1      -2.174 -18.575   4.787  0.00  0.00    +0.013 A 
ATOM     29  C   UNL     1      -2.447 -19.830   5.290  0.00  0.00    +0.016 A 
ATOM     30  C   UNL     1      -3.387 -19.988   6.294  0.00  0.00    +0.018 A 
ATOM     31  C   UNL     1      -4.059 -18.888   6.800  0.00  0.00    +0.016 A 
ATOM     32  C   UNL     1      -3.790 -17.627   6.309  0.00  0.00    +0.013 A 
ATOM     33 BR   UNL     1      -3.755 -21.712   6.978  0.00  0.00    -0.050 Br
ENDBRANCH  25  27
BRANCH  26  34
ATOM     34  N   UNL     1      -1.380 -16.712   2.689  0.00  0.00    -0.295 N 
ATOM     35  H   UNL     1      -0.424 -16.940   2.918  0.00  0.00    +0.163 HD
ATOM     36  H   UNL     1      -1.947 -17.545   2.635  0.00  0.00    +0.163 HD
ENDBRANCH  26  34
ENDBRANCH  21  22
ENDBRANCH  20  21
ENDBRANCH  19  20
ENDBRANCH   1  19
TORSDOF 12
