REMARK  Name = ZINC06631821
REMARK  14 active torsions:
REMARK  status: ('A' for Active; 'I' for Inactive)
REMARK    1  A    between atoms: C_1  and  C_2
REMARK    2  A    between atoms: C_2  and  C_3
REMARK    3  A    between atoms: C_3  and  C_5
REMARK    4  A    between atoms: C_3  and  N_13
REMARK    5  A    between atoms: N_7  and  C_8
REMARK    6  A    between atoms: C_8  and  C_9
REMARK    7  A    between atoms: C_9  and  C_10
REMARK    8  A    between atoms: C_10  and  C_11
REMARK    9  A    between atoms: C_10  and  C_12
REMARK   10  A    between atoms: N_13  and  C_14
REMARK   11  A    between atoms: C_14  and  C_15
REMARK   12  A    between atoms: C_22  and  C_24
REMARK   13  A    between atoms: C_25  and  N_32
REMARK   14  A    between atoms: C_26  and  C_29
REMARK                            x       y       z     vdW  Elec       q    Type
REMARK                         _______ _______ _______ _____ _____    ______ ____
ROOT
ATOM      1  N   UNL     1       1.243  -2.403  -1.115  0.00  0.00    -0.281 N 
ATOM      2  C   UNL     1      -0.008  -2.605  -1.575  0.00  0.00    +0.257 C 
ATOM      3  O   UNL     1      -0.186  -2.914  -2.738  0.00  0.00    -0.269 OA
ENDROOT
BRANCH   2   4
ATOM      4  C   UNL     1      -1.152  -2.453  -0.674  0.00  0.00    +0.115 A 
ATOM      5  C   UNL     1      -2.517  -2.454  -0.969  0.00  0.00    +0.076 A 
ATOM      6  C   UNL     1      -3.309  -2.281   0.166  0.00  0.00    +0.155 A 
ATOM      7  N   UNL     1      -2.731  -2.141   1.339  0.00  0.00    -0.203 NA
ATOM      8  S   UNL     1      -1.176  -2.224   1.092  0.00  0.00    +0.019 S 
BRANCH   6   9
ATOM      9  C   UNL     1      -4.778  -2.255   0.052  0.00  0.00    +0.262 C 
ATOM     10  O   UNL     1      -5.306  -2.384  -1.036  0.00  0.00    -0.269 OA
ATOM     11  N   UNL     1      -5.537  -2.087   1.154  0.00  0.00    -0.324 N 
ATOM     12  H   UNL     1      -5.116  -1.984   2.021  0.00  0.00    +0.145 HD
ATOM     13  H   UNL     1      -6.504  -2.070   1.079  0.00  0.00    +0.145 HD
ENDBRANCH   6   9
BRANCH   5  14
ATOM     14  N   UNL     1      -3.029  -2.611  -2.250  0.00  0.00    -0.355 N 
ATOM     15  H   UNL     1      -2.427  -2.728  -3.002  0.00  0.00    +0.142 HD
ATOM     16  H   UNL     1      -3.988  -2.603  -2.393  0.00  0.00    +0.142 HD
ENDBRANCH   5  14
ENDBRANCH   2   4
BRANCH   1  17
ATOM     17  C   UNL     1       2.394  -2.687  -1.975  0.00  0.00    +0.162 C 
BRANCH  17  18
ATOM     18  C   UNL     1       3.289  -3.695  -1.300  0.00  0.00    +0.234 C 
ATOM     19  O   UNL     1       2.994  -4.132  -0.208  0.00  0.00    -0.274 OA
ATOM     20  N   UNL     1       4.417  -4.110  -1.910  0.00  0.00    -0.314 N 
ATOM     21  H   UNL     1       4.653  -3.760  -2.784  0.00  0.00    +0.149 HD
BRANCH  20  22
ATOM     22  C   UNL     1       5.286  -5.090  -1.254  0.00  0.00    +0.104 C 
BRANCH  22  23
ATOM     23  C   UNL     1       6.489  -5.387  -2.152  0.00  0.00    +0.022 C 
BRANCH  23  24
ATOM     24  C   UNL     1       7.397  -6.410  -1.467  0.00  0.00    -0.016 C 
ATOM     25  C   UNL     1       8.532  -6.801  -2.415  0.00  0.00    +0.007 C 
ATOM     26  C   UNL     1       7.984  -5.798  -0.193  0.00  0.00    +0.007 C 
ENDBRANCH  23  24
ENDBRANCH  22  23
ENDBRANCH  20  22
ENDBRANCH  17  18
BRANCH  17  28
ATOM     27  C   UNL     1       2.314  -0.424  -3.031  0.00  0.00    +0.006 C 
ATOM     28  C   UNL     1       3.177  -1.396  -2.224  0.00  0.00    +0.028 C 
ENDBRANCH  17  28
ENDBRANCH   1  17
BRANCH   1  29
ATOM     29  C   UNL     1       1.451  -1.898   0.244  0.00  0.00    +0.144 C 
BRANCH  29  30
ATOM     30  C   UNL     1       1.332  -0.396   0.246  0.00  0.00    -0.030 A 
ATOM     31  C   UNL     1       0.083   0.198   0.239  0.00  0.00    +0.008 A 
ATOM     32  C   UNL     1      -0.028   1.575   0.242  0.00  0.00    +0.038 A 
ATOM     33  C   UNL     1       1.112   2.361   0.251  0.00  0.00    +0.123 A 
ATOM     34  C   UNL     1       2.362   1.765   0.258  0.00  0.00    +0.038 A 
ATOM     35  C   UNL     1       2.471   0.388   0.256  0.00  0.00    +0.008 A 
ATOM     36  F   UNL     1       1.005   3.708   0.254  0.00  0.00    -0.205 F 
ENDBRANCH  29  30
ENDBRANCH   1  29
TORSDOF 11
