REMARK  Name = ZINC11665102
REMARK  9 active torsions:
REMARK  status: ('A' for Active; 'I' for Inactive)
REMARK    1  A    between atoms: C_1  and  C_2
REMARK    2  A    between atoms: C_6  and  C_8
REMARK    3  A    between atoms: C_22  and  C_23
REMARK    4  A    between atoms: C_22  and  N_62
REMARK    5  A    between atoms: C_26  and  C_29
REMARK    6  A    between atoms: C_30  and  C_31
REMARK    7  A    between atoms: C_31  and  C_32
REMARK    8  A    between atoms: C_31  and  C_33
REMARK    9  A    between atoms: C_31  and  O_34
REMARK                            x       y       z     vdW  Elec       q    Type
REMARK                         _______ _______ _______ _____ _____    ______ ____
ROOT
ATOM      1  C   UNL     1       3.601   4.902  -0.005  0.00  0.00    +0.030 C 
ATOM      2  C   UNL     1       2.837   3.597  -0.006  0.00  0.00    +0.012 A 
ATOM      3  C   UNL     1       3.444   2.393  -0.020  0.00  0.00    -0.022 A 
ATOM      4  C   UNL     1       2.400   1.377  -0.014  0.00  0.00    +0.003 A 
ATOM      5  C   UNL     1       2.393  -0.020  -0.021  0.00  0.00    +0.010 A 
ATOM      6  C   UNL     1       1.206  -0.695  -0.013  0.00  0.00    +0.001 A 
ATOM      7  C   UNL     1       0.002  -0.004   0.002  0.00  0.00    +0.002 A 
ATOM      8  C   UNL     1      -0.017   1.373   0.010  0.00  0.00    +0.026 A 
ATOM      9  C   UNL     1       1.180   2.082   0.002  0.00  0.00    +0.047 A 
ATOM     10  N   UNL     1       1.484   3.427   0.006  0.00  0.00    -0.359 N 
ATOM     11  H   UNL     1       0.832   4.145   0.017  0.00  0.00    +0.166 HD
ATOM     12  C   UNL     1       4.940   2.208  -0.040  0.00  0.00    +0.019 C 
ATOM     13  C   UNL     1       5.575   3.550  -0.434  0.00  0.00    -0.072 C 
ATOM     14  N   UNL     1       4.995   4.616   0.413  0.00  0.00    +0.392 N 
ATOM     15  H   UNL     1       4.991   4.299   1.389  0.00  0.00    -0.080 HD
ENDROOT
BRANCH   1  21
ATOM     16  C   UNL     1       3.548   6.796   4.493  0.00  0.00    +0.065 C 
ATOM     17  C   UNL     1       2.954   6.746   3.109  0.00  0.00    +0.038 A 
ATOM     18  C   UNL     1       1.879   7.558   2.797  0.00  0.00    +0.023 A 
ATOM     19  C   UNL     1       1.341   7.505   1.520  0.00  0.00    +0.003 A 
ATOM     20  C   UNL     1       1.909   6.637   0.600  0.00  0.00    +0.022 A 
ATOM     21  C   UNL     1       2.979   5.852   0.986  0.00  0.00    +0.034 A 
ATOM     22  N   UNL     1       3.465   5.929   2.209  0.00  0.00    -0.258 NA
ENDBRANCH   1  21
BRANCH  14  23
ATOM     23  C   UNL     1       5.812   5.842   0.309  0.00  0.00    -0.042 C 
BRANCH  23  24
ATOM     24  C   UNL     1       7.156   5.582   0.940  0.00  0.00    -0.064 A 
ATOM     25  C   UNL     1       7.342   5.821   2.289  0.00  0.00    +0.003 A 
ATOM     26  C   UNL     1       8.568   5.580   2.874  0.00  0.00    +0.017 A 
ATOM     27  C   UNL     1       9.626   5.105   2.097  0.00  0.00    +0.025 A 
ATOM     28  C   UNL     1       9.434   4.871   0.735  0.00  0.00    +0.017 A 
ATOM     29  C   UNL     1       8.201   5.111   0.164  0.00  0.00    +0.003 A 
BRANCH  27  30
ATOM     30  C   UNL     1      10.903   4.859   2.696  0.00  0.00    -0.063 C 
ATOM     31  C   UNL     1      11.950   4.657   3.187  0.00  0.00    -0.063 C 
BRANCH  31  32
ATOM     32  C   UNL     1      13.264   4.404   3.802  0.00  0.00    +0.121 C 
ATOM     33  C   UNL     1      13.633   2.930   3.627  0.00  0.00    +0.055 C 
ATOM     34  C   UNL     1      14.321   5.279   3.126  0.00  0.00    +0.055 C 
BRANCH  32  35
ATOM     35  O   UNL     1      13.205   4.717   5.195  0.00  0.00    -0.377 OA
ATOM     36  H   UNL     1      12.975   5.638   5.382  0.00  0.00    +0.211 HD
ENDBRANCH  32  35
ENDBRANCH  31  32
ENDBRANCH  27  30
ENDBRANCH  23  24
ENDBRANCH  14  23
TORSDOF 6
