REMARK  Name = ZINC65669065
REMARK  7 active torsions:
REMARK  status: ('A' for Active; 'I' for Inactive)
REMARK    1  A    between atoms: C_1  and  C_2
REMARK    2  A    between atoms: C_2  and  C_3
REMARK    3  A    between atoms: C_2  and  C_4
REMARK    4  A    between atoms: C_4  and  C_5
REMARK    5  A    between atoms: C_4  and  N_10
REMARK    6  A    between atoms: C_11  and  C_13
REMARK    7  A    between atoms: C_18  and  N_19
REMARK                            x       y       z     vdW  Elec       q    Type
REMARK                         _______ _______ _______ _____ _____    ______ ____
ROOT
ATOM      1  N   UNL     1      -0.064  -1.878   1.005  0.00  0.00    -0.304 N 
ATOM      2  C   UNL     1      -0.791  -2.720   1.766  0.00  0.00    +0.247 C 
ATOM      3  O   UNL     1      -1.679  -2.285   2.474  0.00  0.00    -0.270 OA
ATOM      4  H   UNL     1       0.645  -2.224   0.441  0.00  0.00    +0.150 HD
ENDROOT
BRANCH   2   5
ATOM      5  C   UNL     1      -0.509  -4.169   1.741  0.00  0.00    +0.070 A 
ATOM      6  C   UNL     1      -0.510  -4.862   0.528  0.00  0.00    +0.056 A 
ATOM      7  C   UNL     1      -0.245  -6.217   0.511  0.00  0.00    +0.159 A 
ATOM      8  C   UNL     1       0.021  -6.889   1.696  0.00  0.00    +0.161 A 
ATOM      9  C   UNL     1       0.022  -6.205   2.901  0.00  0.00    +0.074 A 
ATOM     10  C   UNL     1      -0.235  -4.850   2.929  0.00  0.00    +0.141 A 
ATOM     11  F   UNL     1       0.279  -8.215   1.675  0.00  0.00    -0.202 F 
ATOM     12  F   UNL     1      -0.246  -6.889  -0.661  0.00  0.00    -0.202 F 
BRANCH  10  13
ATOM     13  N   UNL     1      -0.227  -4.120   4.216  0.00  0.00    +0.057 N 
ATOM     14  O   UNL     1      -0.112  -4.728   5.255  0.00  0.00    -0.126 OA
ATOM     15  O   UNL     1      -0.334  -2.916   4.229  0.00  0.00    -0.126 OA
ENDBRANCH  10  13
ENDBRANCH   2   5
BRANCH   1  16
ATOM     16  C   UNL     1      -0.344  -0.440   1.030  0.00  0.00    +0.113 C 
BRANCH  16  17
ATOM     17  C   UNL     1       0.897   0.320   0.636  0.00  0.00    +0.010 A 
ATOM     18  C   UNL     1       1.395   1.469   1.155  0.00  0.00    +0.013 A 
ATOM     19  C   UNL     1       2.562   1.991   0.630  0.00  0.00    +0.008 A 
ATOM     20  C   UNL     1       3.174   1.338  -0.388  0.00  0.00    +0.045 A 
ATOM     21  S   UNL     1       2.096  -0.064  -0.629  0.00  0.00    -0.100 S 
ENDBRANCH  16  17
BRANCH  16  23
ATOM     22  C   UNL     1      -1.763   1.379   0.072  0.00  0.00    +0.009 C 
ATOM     23  C   UNL     1      -1.471  -0.123   0.045  0.00  0.00    +0.008 C 
ATOM     24  C   UNL     1      -1.046  -0.535  -1.365  0.00  0.00    +0.009 C 
ENDBRANCH  16  23
ENDBRANCH   1  16
TORSDOF 5
