REMARK  Name = ZINC20258951
REMARK  7 active torsions:
REMARK  status: ('A' for Active; 'I' for Inactive)
REMARK    1  A    between atoms: C_1  and  O_2
REMARK    2  A    between atoms: O_2  and  C_3
REMARK    3  A    between atoms: C_6  and  C_11
REMARK    4  A    between atoms: C_8  and  O_9
REMARK    5  A    between atoms: O_9  and  C_10
REMARK    6  A    between atoms: C_16  and  C_22
REMARK    7  A    between atoms: C_24  and  N_29
REMARK                            x       y       z     vdW  Elec       q    Type
REMARK                         _______ _______ _______ _____ _____    ______ ____
ROOT
ATOM      1  C   UNL     1      -0.728   1.579   1.268  0.00  0.00    +0.032 C 
ATOM      2  C   UNL     1      -0.013   1.086   0.008  0.00  0.00    +0.059 C 
ATOM      3  C   UNL     1      -0.741   1.585  -1.215  0.00  0.00    +0.018 C 
ATOM      4  C   UNL     1      -1.407   2.759  -1.192  0.00  0.00    +0.020 C 
ATOM      5  C   UNL     1      -2.125   3.241  -2.431  0.00  0.00    +0.064 C 
ATOM      6  C   UNL     1      -1.335   2.821  -3.672  0.00  0.00    +0.109 C 
ATOM      7  C   UNL     1      -0.977   1.362  -3.558  0.00  0.00    +0.218 C 
ATOM      8  O   UNL     1      -0.925   0.673  -4.554  0.00  0.00    -0.275 OA
ATOM      9  N   UNL     1      -0.714   0.823  -2.355  0.00  0.00    -0.289 N 
ATOM     10  C   UNL     1      -1.454   3.551  -0.033  0.00  0.00    +0.162 C 
ATOM     11  O   UNL     1      -2.052   4.608  -0.055  0.00  0.00    -0.292 OA
ATOM     12  C   UNL     1      -0.774   3.110   1.236  0.00  0.00    +0.088 C 
ATOM     13  H   UNL     1      -0.475  -0.249  -2.295  0.00  0.00    +0.155 HD
ENDROOT
BRANCH   5  14
ATOM     14  C   UNL     1      -3.503   2.633  -2.483  0.00  0.00    -0.019 A 
ATOM     15  C   UNL     1      -3.651   1.259  -2.529  0.00  0.00    +0.038 A 
ATOM     16  C   UNL     1      -4.915   0.701  -2.572  0.00  0.00    +0.127 A 
ATOM     17  C   UNL     1      -6.031   1.516  -2.578  0.00  0.00    +0.034 A 
ATOM     18  C   UNL     1      -5.884   2.890  -2.537  0.00  0.00    +0.022 A 
ATOM     19  C   UNL     1      -4.620   3.449  -2.489  0.00  0.00    +0.045 A 
ATOM     20 CL   UNL     1      -4.434   5.175  -2.438  0.00  0.00    -0.083 Cl
BRANCH  16  21
ATOM     21  N   UNL     1      -5.072  -0.770  -2.616  0.00  0.00    +0.056 N 
ATOM     22  O   UNL     1      -6.186  -1.262  -2.659  0.00  0.00    -0.126 OA
ATOM     23  O   UNL     1      -4.089  -1.488  -2.611  0.00  0.00    -0.126 OA
ENDBRANCH  16  21
ENDBRANCH   5  14
BRANCH   1  27
ATOM     24  C   UNL     1       1.420   0.286   4.733  0.00  0.00    +0.161 A 
ATOM     25  C   UNL     1       2.036   1.099   3.795  0.00  0.00    +0.049 A 
ATOM     26  C   UNL     1       1.341   1.511   2.674  0.00  0.00    +0.008 A 
ATOM     27  C   UNL     1       0.027   1.122   2.490  0.00  0.00    -0.040 A 
ATOM     28  C   UNL     1      -0.594   0.311   3.421  0.00  0.00    +0.053 A 
ATOM     29  C   UNL     1       0.099  -0.110   4.545  0.00  0.00    +0.162 A 
BRANCH  24  31
ATOM     30  C   UNL     1       3.456   0.320   5.961  0.00  0.00    +0.277 C 
ATOM     31  O   UNL     1       2.104  -0.125   5.834  0.00  0.00    -0.491 OA
ENDBRANCH  24  31
BRANCH  29  32
ATOM     32  O   UNL     1      -0.510  -0.907   5.462  0.00  0.00    -0.491 OA
ATOM     33  C   UNL     1      -1.867  -1.273   5.204  0.00  0.00    +0.277 C 
ENDBRANCH  29  32
ENDBRANCH   1  27
TORSDOF 5
