REMARK  Name = ZINC06631457
REMARK  16 active torsions:
REMARK  status: ('A' for Active; 'I' for Inactive)
REMARK    1  A    between atoms: C_1  and  C_2
REMARK    2  A    between atoms: C_2  and  O_3
REMARK    3  A    between atoms: O_3  and  C_4
REMARK    4  A    between atoms: C_9  and  N_10
REMARK    5  A    between atoms: N_10  and  C_11
REMARK    6  A    between atoms: C_11  and  C_13
REMARK    7  A    between atoms: C_11  and  C_20
REMARK    8  A    between atoms: C_16  and  C_19
REMARK    9  A    between atoms: N_22  and  C_23
REMARK   10  A    between atoms: C_23  and  C_24
REMARK   11  A    between atoms: C_24  and  C_25
REMARK   12  A    between atoms: C_25  and  C_26
REMARK   13  A    between atoms: C_25  and  C_27
REMARK   14  A    between atoms: C_28  and  C_30
REMARK   15  A    between atoms: C_31  and  N_38
REMARK   16  A    between atoms: C_32  and  C_35
REMARK                            x       y       z     vdW  Elec       q    Type
REMARK                         _______ _______ _______ _____ _____    ______ ____
ROOT
ATOM      1  N   UNL     1       3.384   1.667  -0.998  0.00  0.00    -0.247 N 
ATOM      2  C   UNL     1       3.712   0.999  -2.122  0.00  0.00    +0.262 C 
ATOM      3  O   UNL     1       3.321  -0.141  -2.289  0.00  0.00    -0.269 OA
ENDROOT
BRANCH   1   9
ATOM      4  C   UNL     1       3.055   4.053  -1.230  0.00  0.00    +0.142 A 
ATOM      5  C   UNL     1       3.504   5.349  -1.034  0.00  0.00    +0.047 A 
ATOM      6  C   UNL     1       4.726   5.574  -0.426  0.00  0.00    +0.004 A 
ATOM      7  C   UNL     1       5.501   4.508  -0.009  0.00  0.00    +0.002 A 
ATOM      8  C   UNL     1       5.059   3.212  -0.198  0.00  0.00    +0.027 A 
ATOM      9  C   UNL     1       3.834   2.979  -0.805  0.00  0.00    +0.079 A 
BRANCH   4  10
ATOM     10  O   UNL     1       1.856   3.831  -1.831  0.00  0.00    -0.490 OA
BRANCH  10  12
ATOM     11  C   UNL     1      -0.198   4.534  -2.891  0.00  0.00    +0.048 C 
ATOM     12  C   UNL     1       1.112   4.980  -2.240  0.00  0.00    +0.226 C 
ENDBRANCH  10  12
ENDBRANCH   4  10
ENDBRANCH   1   9
BRANCH   2  13
ATOM     13  C   UNL     1       4.539   1.646  -3.142  0.00  0.00    +0.116 A 
ATOM     14  C   UNL     1       4.990   1.145  -4.364  0.00  0.00    +0.076 A 
ATOM     15  C   UNL     1       5.762   2.069  -5.069  0.00  0.00    +0.155 A 
ATOM     16  N   UNL     1       5.980   3.255  -4.547  0.00  0.00    -0.203 NA
ATOM     17  S   UNL     1       5.232   3.287  -3.160  0.00  0.00    +0.019 S 
BRANCH  15  18
ATOM     18  C   UNL     1       6.328   1.718  -6.384  0.00  0.00    +0.262 C 
ATOM     19  O   UNL     1       6.123   0.618  -6.861  0.00  0.00    -0.269 OA
ATOM     20  N   UNL     1       7.073   2.616  -7.058  0.00  0.00    -0.324 N 
ATOM     21  H   UNL     1       7.237   3.493  -6.678  0.00  0.00    +0.145 HD
ATOM     22  H   UNL     1       7.446   2.385  -7.924  0.00  0.00    +0.145 HD
ENDBRANCH  15  18
BRANCH  14  23
ATOM     23  N   UNL     1       4.702  -0.132  -4.828  0.00  0.00    -0.355 N 
ATOM     24  H   UNL     1       4.159  -0.732  -4.292  0.00  0.00    +0.142 HD
ATOM     25  H   UNL     1       5.045  -0.425  -5.687  0.00  0.00    +0.142 HD
ENDBRANCH  14  23
ENDBRANCH   2  13
BRANCH   1  26
ATOM     26  C   UNL     1       2.557   1.019   0.023  0.00  0.00    +0.198 C 
BRANCH  26  27
ATOM     27  C   UNL     1       1.375   1.898   0.344  0.00  0.00    -0.018 A 
ATOM     28  C   UNL     1       1.570   3.122   0.955  0.00  0.00    +0.006 A 
ATOM     29  C   UNL     1       0.486   3.926   1.254  0.00  0.00    +0.004 A 
ATOM     30  C   UNL     1      -0.793   3.510   0.932  0.00  0.00    -0.050 A 
ATOM     31  C   UNL     1      -0.988   2.285   0.321  0.00  0.00    +0.004 A 
ATOM     32  C   UNL     1       0.096   1.480   0.027  0.00  0.00    +0.006 A 
ATOM     33  C   UNL     1      -1.974   4.389   1.253  0.00  0.00    +0.044 C 
ENDBRANCH  26  27
BRANCH  26  34
ATOM     34  C   UNL     1       3.375   0.803   1.270  0.00  0.00    +0.238 C 
ATOM     35  O   UNL     1       4.535   1.155   1.303  0.00  0.00    -0.273 OA
ATOM     36  N   UNL     1       2.818   0.218   2.349  0.00  0.00    -0.313 N 
ATOM     37  H   UNL     1       1.890  -0.063   2.323  0.00  0.00    +0.149 HD
BRANCH  36  38
ATOM     38  C   UNL     1       3.613   0.008   3.561  0.00  0.00    +0.104 C 
BRANCH  38  39
ATOM     39  C   UNL     1       2.749  -0.668   4.628  0.00  0.00    +0.022 C 
BRANCH  39  40
ATOM     40  C   UNL     1       3.580  -0.887   5.894  0.00  0.00    -0.016 C 
ATOM     41  C   UNL     1       3.971   0.467   6.488  0.00  0.00    +0.007 C 
ATOM     42  C   UNL     1       2.756  -1.674   6.915  0.00  0.00    +0.007 C 
ENDBRANCH  39  40
ENDBRANCH  38  39
ENDBRANCH  36  38
ENDBRANCH  26  34
ENDBRANCH   1  26
TORSDOF 12
