REMARK  Name = ZINC08994532
REMARK  6 active torsions:
REMARK  status: ('A' for Active; 'I' for Inactive)
REMARK    1  A    between atoms: C_3  and  O_22
REMARK    2  A    between atoms: C_6  and  C_7
REMARK    3  A    between atoms: C_13  and  S_17
REMARK    4  A    between atoms: C_14  and  C_15
REMARK    5  A    between atoms: S_17  and  C_18
REMARK    6  A    between atoms: C_18  and  C_19
REMARK                            x       y       z     vdW  Elec       q    Type
REMARK                         _______ _______ _______ _____ _____    ______ ____
ROOT
ATOM      1  C   UNL     1       5.103   3.323  -0.029  0.00  0.00    +0.070 C 
ATOM      2  C   UNL     1       5.049   4.667   0.700  0.00  0.00    +0.109 C 
ATOM      3  C   UNL     1       4.903   4.433   2.180  0.00  0.00    +0.218 C 
ATOM      4  O   UNL     1       4.252   5.205   2.851  0.00  0.00    -0.275 OA
ATOM      5  N   UNL     1       5.490   3.371   2.764  0.00  0.00    -0.279 N 
ATOM      6  C   UNL     1       6.229   2.477   2.020  0.00  0.00    +0.082 C 
ATOM      7  C   UNL     1       6.081   2.414   0.668  0.00  0.00    +0.065 C 
ATOM      8  H   UNL     1       5.382   3.210   3.847  0.00  0.00    +0.155 HD
ENDROOT
BRANCH   1  14
ATOM      9  C   UNL     1       3.096   2.409  -1.213  0.00  0.00    +0.008 A 
ATOM     10  C   UNL     1       1.842   1.830  -1.207  0.00  0.00    +0.045 A 
ATOM     11  C   UNL     1       1.223   1.532  -0.001  0.00  0.00    +0.117 A 
ATOM     12  C   UNL     1       1.863   1.822   1.195  0.00  0.00    +0.045 A 
ATOM     13  C   UNL     1       3.119   2.397   1.183  0.00  0.00    +0.008 A 
ATOM     14  C   UNL     1       3.735   2.692  -0.019  0.00  0.00    -0.039 A 
BRANCH  11  15
ATOM     15  O   UNL     1      -0.011   0.963   0.007  0.00  0.00    -0.507 OA
ATOM     16  H   UNL     1      -0.501   0.727   0.963  0.00  0.00    +0.292 HD
ENDBRANCH  11  15
ENDBRANCH   1  14
BRANCH   7  17
ATOM     17  C   UNL     1       6.856   1.480  -0.093  0.00  0.00    +0.098 C 
ATOM     18  N   UNL     1       7.470   0.740  -0.697  0.00  0.00    -0.191 NA
ENDBRANCH   7  17
BRANCH   6  19
ATOM     19  S   UNL     1       7.376   1.407   2.824  0.00  0.00    -0.100 S 
BRANCH  19  20
ATOM     20  C   UNL     1       7.142   1.930   4.541  0.00  0.00    +0.171 C 
BRANCH  20  21
ATOM     21  C   UNL     1       8.048   1.128   5.439  0.00  0.00    +0.221 C 
ATOM     22  O   UNL     1       8.780   0.285   4.964  0.00  0.00    -0.275 OA
ATOM     23  N   UNL     1       8.045   1.346   6.769  0.00  0.00    -0.329 N 
ATOM     24  H   UNL     1       8.706   0.760   7.424  0.00  0.00    +0.145 HD
ATOM     25  H   UNL     1       7.381   2.110   7.199  0.00  0.00    +0.145 HD
ENDBRANCH  20  21
ENDBRANCH  19  20
ENDBRANCH   6  19
TORSDOF 6
