REMARK  Name = ZINC40816128
REMARK  5 active torsions:
REMARK  status: ('A' for Active; 'I' for Inactive)
REMARK    1  A    between atoms: C_1  and  C_2
REMARK    2  A    between atoms: C_6  and  O_25
REMARK    3  A    between atoms: C_7  and  O_24
REMARK    4  A    between atoms: C_13  and  C_15
REMARK    5  A    between atoms: C_16  and  C_17
REMARK                            x       y       z     vdW  Elec       q    Type
REMARK                         _______ _______ _______ _____ _____    ______ ____
ROOT
ATOM      1  C   UNL     1      -0.023   1.520   0.004  0.00  0.00    +0.033 C 
ATOM      2  C   UNL     1       0.002  -0.010  -0.000  0.00  0.00    +0.104 C 
ATOM      3  C   UNL     1       0.710  -0.496  -1.241  0.00  0.00    -0.020 A 
ATOM      4  C   UNL     1       0.056  -0.348  -2.457  0.00  0.00    +0.055 A 
ATOM      5  C   UNL     1       0.655  -0.764  -3.632  0.00  0.00    +0.159 A 
ATOM      6  C   UNL     1       1.924  -1.334  -3.591  0.00  0.00    +0.158 A 
ATOM      7  C   UNL     1       2.569  -1.483  -2.378  0.00  0.00    +0.053 A 
ATOM      8  C   UNL     1       1.961  -1.069  -1.198  0.00  0.00    -0.037 A 
ATOM      9  C   UNL     1       2.715  -1.289   0.087  0.00  0.00    +0.054 C 
ATOM     10  C   UNL     1       2.177  -0.385   1.196  0.00  0.00    +0.113 C 
ATOM     11  N   UNL     1       0.710  -0.490   1.191  0.00  0.00    -0.291 N 
ATOM     12  C   UNL     1       0.042  -1.006   2.242  0.00  0.00    +0.240 C 
ATOM     13  O   UNL     1       0.656  -1.483   3.178  0.00  0.00    -0.271 OA
ENDROOT
BRANCH  12  14
ATOM     14  C   UNL     1      -1.422  -0.991   2.258  0.00  0.00    +0.068 C 
ATOM     15  C   UNL     1      -2.088  -1.415   3.351  0.00  0.00    +0.013 C 
BRANCH  15  16
ATOM     16  C   UNL     1      -3.560  -1.400   3.367  0.00  0.00    -0.025 A 
ATOM     17  C   UNL     1      -4.270  -0.953   2.248  0.00  0.00    +0.009 A 
ATOM     18  C   UNL     1      -5.648  -0.943   2.270  0.00  0.00    +0.020 A 
ATOM     19  C   UNL     1      -6.330  -1.374   3.397  0.00  0.00    +0.041 A 
ATOM     20  C   UNL     1      -5.633  -1.818   4.509  0.00  0.00    +0.020 A 
ATOM     21  C   UNL     1      -4.254  -1.839   4.499  0.00  0.00    +0.009 A 
ATOM     22 CL   UNL     1      -8.066  -1.356   3.416  0.00  0.00    -0.084 Cl
ENDBRANCH  15  16
ENDBRANCH  12  14
BRANCH   6  23
ATOM     23  O   UNL     1       2.526  -1.744  -4.740  0.00  0.00    -0.503 OA
ATOM     24  H   UNL     1       3.063  -1.062  -5.167  0.00  0.00    +0.292 HD
ENDBRANCH   6  23
BRANCH   5  25
ATOM     25  O   UNL     1       0.008  -0.618  -4.819  0.00  0.00    -0.503 OA
ATOM     26  H   UNL     1       0.182   0.224  -5.261  0.00  0.00    +0.292 HD
ENDBRANCH   5  25
TORSDOF 4
