REMARK  Name = ZINC00491449
REMARK  9 active torsions:
REMARK  status: ('A' for Active; 'I' for Inactive)
REMARK    1  A    between atoms: C_1  and  C_2
REMARK    2  A    between atoms: C_2  and  C_3
REMARK    3  A    between atoms: C_3  and  C_5
REMARK    4  A    between atoms: C_3  and  N_6
REMARK    5  A    between atoms: N_9  and  C_17
REMARK    6  A    between atoms: C_10  and  C_15
REMARK    7  A    between atoms: C_10  and  O_16
REMARK    8  A    between atoms: C_12  and  C_13
REMARK    9  A    between atoms: C_12  and  C_14
REMARK                            x       y       z     vdW  Elec       q    Type
REMARK                         _______ _______ _______ _____ _____    ______ ____
ROOT
ATOM      1  N   UNL     1       0.790  -0.278   1.233  0.00  0.00    -0.277 N 
ATOM      2  C   UNL     1       1.755   0.601   1.529  0.00  0.00    +0.312 C 
ATOM      3  O   UNL     1       2.344   0.486   2.588  0.00  0.00    -0.252 OA
ATOM      4  N   UNL     1       2.089   1.609   0.715  0.00  0.00    -0.227 N 
ATOM      5  C   UNL     1       1.377   1.902  -0.524  0.00  0.00    +0.140 C 
ATOM      6  C   UNL     1       0.064   1.145  -0.644  0.00  0.00    +0.080 C 
ATOM      7  C   UNL     1       0.102  -0.258  -0.056  0.00  0.00    +0.038 C 
ATOM      8  C   UNL     1      -1.345  -0.736   0.168  0.00  0.00    +0.032 C 
ATOM      9  C   UNL     1       0.781  -1.237  -1.017  0.00  0.00    +0.032 C 
ATOM     10  C   UNL     1       2.285   1.606  -1.722  0.00  0.00    +0.064 C 
ENDROOT
BRANCH   4  11
ATOM     11  C   UNL     1       3.173   2.418   1.072  0.00  0.00    +0.040 A 
ATOM     12  C   UNL     1       4.469   2.009   0.792  0.00  0.00    +0.023 A 
ATOM     13  C   UNL     1       5.537   2.812   1.141  0.00  0.00    +0.002 A 
ATOM     14  C   UNL     1       5.316   4.019   1.779  0.00  0.00    +0.000 A 
ATOM     15  C   UNL     1       4.026   4.428   2.065  0.00  0.00    +0.002 A 
ATOM     16  C   UNL     1       2.954   3.631   1.713  0.00  0.00    +0.023 A 
ENDBRANCH   4  11
BRANCH   1  17
ATOM     17  C   UNL     1       0.415  -1.288   2.228  0.00  0.00    +0.075 C 
ATOM     18  C   UNL     1      -0.155  -0.596   3.468  0.00  0.00    +0.028 C 
BRANCH  17  20
ATOM     19  C   UNL     1       2.146  -2.892   1.408  0.00  0.00    +0.006 C 
ATOM     20  C   UNL     1       1.650  -2.101   2.620  0.00  0.00    +0.019 C 
ENDBRANCH  17  20
ENDBRANCH   1  17
BRANCH   5  21
ATOM     21  O   UNL     1       1.086   3.315  -0.540  0.00  0.00    -0.371 OA
ATOM     22  H   UNL     1       1.871   3.879  -0.504  0.00  0.00    +0.212 HD
ENDBRANCH   5  21
TORSDOF 4
