REMARK  Name = ZINC38692966
REMARK  6 active torsions:
REMARK  status: ('A' for Active; 'I' for Inactive)
REMARK    1  A    between atoms: C_1  and  C_2
REMARK    2  A    between atoms: C_5  and  N_9
REMARK    3  A    between atoms: C_7  and  C_8
REMARK    4  A    between atoms: N_12  and  C_13
REMARK    5  A    between atoms: N_19  and  S_23
REMARK    6  A    between atoms: S_23  and  C_26
REMARK                            x       y       z     vdW  Elec       q    Type
REMARK                         _______ _______ _______ _____ _____    ______ ____
ROOT
ATOM      1  N   UNL     1      -2.188  -4.809   0.214  0.00  0.00    -0.269 N 
ATOM      2  C   UNL     1      -2.012  -5.474  -0.945  0.00  0.00    +0.308 C 
ATOM      3  O   UNL     1      -2.641  -5.149  -1.933  0.00  0.00    -0.252 OA
ATOM      4  N   UNL     1      -1.139  -6.499  -1.008  0.00  0.00    -0.269 N 
ATOM      5  H   UNL     1      -1.631  -5.015   0.981  0.00  0.00    +0.156 HD
ATOM      6  H   UNL     1      -0.697  -6.810  -0.203  0.00  0.00    +0.156 HD
ENDROOT
BRANCH   4   7
ATOM      7  C   UNL     1      -0.871  -7.115  -2.236  0.00  0.00    +0.037 A 
ATOM      8  C   UNL     1      -0.884  -6.368  -3.408  0.00  0.00    +0.024 A 
ATOM      9  C   UNL     1      -0.621  -6.976  -4.618  0.00  0.00    +0.007 A 
ATOM     10  C   UNL     1      -0.341  -8.332  -4.676  0.00  0.00    -0.025 A 
ATOM     11  C   UNL     1      -0.325  -9.080  -3.508  0.00  0.00    +0.056 A 
ATOM     12  C   UNL     1      -0.586  -8.470  -2.287  0.00  0.00    +0.048 A 
ATOM     13  N   UNL     1      -0.036 -10.449  -3.536  0.00  0.00    -0.207 N 
ATOM     14  C   UNL     1      -0.048 -11.151  -4.827  0.00  0.00    +0.131 C 
ATOM     15  C   UNL     1       0.697 -10.275  -5.843  0.00  0.00    +0.025 C 
ATOM     16  C   UNL     1      -0.065  -8.961  -6.016  0.00  0.00    +0.038 C 
BRANCH  13  17
ATOM     17  S   UNL     1       0.313 -11.265  -2.138  0.00  0.00    +0.043 S 
ATOM     18  O   UNL     1       0.955 -12.458  -2.566  0.00  0.00    -0.155 OA
ATOM     19  O   UNL     1       1.002 -10.321  -1.330  0.00  0.00    -0.155 OA
ATOM     20  C   UNL     1      -1.302 -11.651  -1.408  0.00  0.00    +0.218 C 
ENDBRANCH  13  17
ENDBRANCH   4   7
BRANCH   1  25
ATOM     21  C   UNL     1      -6.191  -0.809   0.611  0.00  0.00    +0.044 C 
ATOM     22  C   UNL     1      -5.128  -1.872   0.506  0.00  0.00    -0.047 A 
ATOM     23  C   UNL     1      -5.333  -2.975  -0.302  0.00  0.00    +0.005 A 
ATOM     24  C   UNL     1      -4.361  -3.951  -0.401  0.00  0.00    +0.023 A 
ATOM     25  C   UNL     1      -3.176  -3.822   0.312  0.00  0.00    +0.035 A 
ATOM     26  C   UNL     1      -2.973  -2.713   1.122  0.00  0.00    +0.027 A 
ATOM     27  C   UNL     1      -3.947  -1.738   1.212  0.00  0.00    -0.046 A 
ATOM     28  C   UNL     1      -3.725  -0.531   2.087  0.00  0.00    +0.044 C 
ENDBRANCH   1  25
TORSDOF 3
