REMARK  Name = ZINC24099237
REMARK  6 active torsions:
REMARK  status: ('A' for Active; 'I' for Inactive)
REMARK    1  A    between atoms: C_1  and  C_2
REMARK    2  A    between atoms: C_2  and  C_3
REMARK    3  A    between atoms: C_3  and  N_4
REMARK    4  A    between atoms: C_5  and  C_16
REMARK    5  A    between atoms: C_19  and  O_25
REMARK    6  A    between atoms: C_20  and  N_22
REMARK                            x       y       z     vdW  Elec       q    Type
REMARK                         _______ _______ _______ _____ _____    ______ ____
ROOT
ATOM      1  N   UNL     1      -2.341   1.309  -0.670  0.00  0.00    -0.275 N 
ATOM      2  C   UNL     1      -1.333   2.113   0.020  0.00  0.00    +0.193 C 
ATOM      3  N   UNL     1      -1.171   3.410  -0.649  0.00  0.00    -0.321 N 
ATOM      4  C   UNL     1      -1.097   3.436  -2.037  0.00  0.00    +0.041 A 
ATOM      5  C   UNL     1      -0.378   4.405  -2.715  0.00  0.00    +0.024 A 
ATOM      6  C   UNL     1      -0.329   4.380  -4.096  0.00  0.00    +0.002 A 
ATOM      7  C   UNL     1      -0.994   3.393  -4.806  0.00  0.00    +0.001 A 
ATOM      8  C   UNL     1      -1.717   2.421  -4.146  0.00  0.00    +0.015 A 
ATOM      9  C   UNL     1      -1.776   2.435  -2.755  0.00  0.00    +0.058 A 
ATOM     10  C   UNL     1      -2.537   1.424  -2.000  0.00  0.00    +0.250 C 
ATOM     11  O   UNL     1      -3.332   0.701  -2.569  0.00  0.00    -0.270 OA
ATOM     12  H   UNL     1      -1.111   4.332  -0.053  0.00  0.00    +0.148 HD
ENDROOT
BRANCH   2  13
ATOM     13  C   UNL     1      -0.017   1.379   0.010  0.00  0.00    -0.007 A 
ATOM     14  C   UNL     1       0.002  -0.004   0.002  0.00  0.00    +0.011 A 
ATOM     15  C   UNL     1       1.207  -0.679  -0.013  0.00  0.00    +0.048 A 
ATOM     16  C   UNL     1       2.399   0.031  -0.021  0.00  0.00    +0.147 A 
ATOM     17  C   UNL     1       2.377   1.417  -0.013  0.00  0.00    +0.168 A 
ATOM     18  C   UNL     1       1.170   2.088   0.002  0.00  0.00    +0.043 A 
BRANCH  17  19
ATOM     19  N   UNL     1       3.647   2.178  -0.022  0.00  0.00    +0.060 N 
ATOM     20  O   UNL     1       3.627   3.396  -0.015  0.00  0.00    -0.126 OA
ATOM     21  O   UNL     1       4.711   1.586  -0.035  0.00  0.00    -0.126 OA
ENDBRANCH  17  19
BRANCH  16  22
ATOM     22  O   UNL     1       3.586  -0.632  -0.036  0.00  0.00    -0.504 OA
ATOM     23  H   UNL     1       4.530  -0.068  -0.042  0.00  0.00    +0.292 HD
ENDBRANCH  16  22
ENDBRANCH   2  13
BRANCH   1  24
ATOM     24  C   UNL     1      -3.154   0.362   0.097  0.00  0.00    +0.110 C 
BRANCH  24  26
ATOM     25  C   UNL     1      -5.267   0.074   1.399  0.00  0.00    +0.005 C 
ATOM     26  C   UNL     1      -4.418   1.063   0.598  0.00  0.00    +0.016 C 
ENDBRANCH  24  26
ENDBRANCH   1  24
TORSDOF 5
