REMARK  Name = ZINC06533174
REMARK  11 active torsions:
REMARK  status: ('A' for Active; 'I' for Inactive)
REMARK    1  A    between atoms: C_1  and  C_2
REMARK    2  A    between atoms: C_2  and  O_3
REMARK    3  A    between atoms: O_3  and  C_4
REMARK    4  A    between atoms: C_7  and  N_10
REMARK    5  A    between atoms: C_11  and  C_28
REMARK    6  A    between atoms: C_13  and  C_16
REMARK    7  A    between atoms: C_14  and  C_15
REMARK    8  A    between atoms: C_16  and  C_18
REMARK    9  A    between atoms: C_18  and  S_19
REMARK   10  A    between atoms: S_19  and  C_20
REMARK   11  A    between atoms: C_24  and  N_26
REMARK                            x       y       z     vdW  Elec       q    Type
REMARK                         _______ _______ _______ _____ _____    ______ ____
ROOT
ATOM      1  N   UNL     1      -1.989  -5.991  -0.013  0.00  0.00    -0.317 N 
ATOM      2  C   UNL     1      -1.609  -6.817  -1.034  0.00  0.00    +0.022 A 
ATOM      3  C   UNL     1      -1.913  -8.085  -0.711  0.00  0.00    +0.034 A 
ATOM      4  C   UNL     1      -2.531  -8.038   0.621  0.00  0.00    +0.039 A 
ATOM      5  C   UNL     1      -2.538  -6.705   0.989  0.00  0.00    +0.031 A 
ATOM      6  C   UNL     1      -3.071  -6.148   2.283  0.00  0.00    +0.064 C 
ATOM      7  C   UNL     1      -0.955  -6.374  -2.317  0.00  0.00    +0.064 C 
ENDROOT
BRANCH   1  11
ATOM      8  C   UNL     1      -1.498  -1.849   0.006  0.00  0.00    +0.121 A 
ATOM      9  C   UNL     1      -0.387  -2.679  -0.003  0.00  0.00    +0.047 A 
ATOM     10  C   UNL     1      -0.548  -4.050  -0.009  0.00  0.00    +0.030 A 
ATOM     11  C   UNL     1      -1.824  -4.598  -0.006  0.00  0.00    +0.047 A 
ATOM     12  C   UNL     1      -2.936  -3.767   0.004  0.00  0.00    +0.030 A 
ATOM     13  C   UNL     1      -2.773  -2.396   0.016  0.00  0.00    +0.047 A 
BRANCH   8  14
ATOM     14  O   UNL     1      -1.339  -0.499   0.012  0.00  0.00    -0.492 OA
BRANCH  14  16
ATOM     15  C   UNL     1      -0.019   1.526   0.010  0.00  0.00    +0.048 C 
ATOM     16  C   UNL     1       0.002  -0.004   0.002  0.00  0.00    +0.225 C 
ENDBRANCH  14  16
ENDBRANCH   8  14
ENDBRANCH   1  11
BRANCH   4  17
ATOM     17  C   UNL     1      -3.034  -9.171   1.401  0.00  0.00    +0.175 C 
ATOM     18  O   UNL     1      -3.524  -8.984   2.495  0.00  0.00    -0.291 OA
BRANCH  17  19
ATOM     19  C   UNL     1      -2.941 -10.568   0.845  0.00  0.00    +0.157 C 
BRANCH  19  20
ATOM     20  S   UNL     1      -3.642 -11.741   2.038  0.00  0.00    -0.078 S 
BRANCH  20  21
ATOM     21  C   UNL     1      -3.462 -13.308   1.252  0.00  0.00    +0.192 A 
ATOM     22  N   UNL     1      -2.901 -13.367   0.053  0.00  0.00    -0.207 NA
ATOM     23  C   UNL     1      -2.748 -14.533  -0.571  0.00  0.00    +0.122 A 
ATOM     24  C   UNL     1      -3.187 -15.698   0.052  0.00  0.00    +0.086 A 
ATOM     25  C   UNL     1      -3.772 -15.596   1.312  0.00  0.00    +0.122 A 
ATOM     26  N   UNL     1      -3.887 -14.396   1.877  0.00  0.00    -0.207 NA
ATOM     27  N   UNL     1      -2.160 -14.587  -1.825  0.00  0.00    -0.343 N 
ATOM     28  H   UNL     1      -1.857 -13.771  -2.254  0.00  0.00    +0.144 HD
ATOM     29  H   UNL     1      -2.052 -15.440  -2.274  0.00  0.00    +0.144 HD
BRANCH  25  30
ATOM     30  N   UNL     1      -4.223 -16.729   1.970  0.00  0.00    -0.343 N 
ATOM     31  H   UNL     1      -4.133 -17.600   1.554  0.00  0.00    +0.144 HD
ATOM     32  H   UNL     1      -4.630 -16.650   2.847  0.00  0.00    +0.144 HD
ENDBRANCH  25  30
ENDBRANCH  20  21
ENDBRANCH  19  20
ENDBRANCH  17  19
ENDBRANCH   4  17
TORSDOF 8
