REMARK  Name = ZINC09548115
REMARK  6 active torsions:
REMARK  status: ('A' for Active; 'I' for Inactive)
REMARK    1  A    between atoms: C_1  and  C_2
REMARK    2  A    between atoms: C_4  and  N_27
REMARK    3  A    between atoms: C_7  and  N_8
REMARK    4  A    between atoms: C_9  and  C_11
REMARK    5  A    between atoms: N_15  and  C_18
REMARK    6  A    between atoms: C_18  and  C_19
REMARK                            x       y       z     vdW  Elec       q    Type
REMARK                         _______ _______ _______ _____ _____    ______ ____
ROOT
ATOM      1  C   UNL     1      -2.722   5.361  -3.392  0.00  0.00    +0.101 A 
ATOM      2  C   UNL     1      -2.947   4.202  -4.132  0.00  0.00    +0.020 A 
ATOM      3  C   UNL     1      -3.337   3.040  -3.465  0.00  0.00    +0.019 A 
ATOM      4  C   UNL     1      -3.493   3.048  -2.117  0.00  0.00    +0.089 A 
ATOM      5  N   UNL     1      -3.275   4.171  -1.391  0.00  0.00    -0.310 N 
ATOM      6  C   UNL     1      -2.902   5.320  -1.985  0.00  0.00    +0.264 A 
ATOM      7  O   UNL     1      -2.716   6.321  -1.315  0.00  0.00    -0.267 OA
ENDROOT
BRANCH   1   9
ATOM      8  N   UNL     1      -1.962   7.680  -3.322  0.00  0.00    -0.281 N 
ATOM      9  C   UNL     1      -2.309   6.605  -4.058  0.00  0.00    +0.254 C 
ATOM     10  O   UNL     1      -2.280   6.664  -5.273  0.00  0.00    -0.270 OA
ATOM     11  H   UNL     1      -1.911   7.610  -2.356  0.00  0.00    +0.155 HD
BRANCH   8  18
ATOM     12  C   UNL     1      -0.339   9.562  -1.936  0.00  0.00    +0.046 C 
ATOM     13  C   UNL     1      -0.887   9.842  -3.312  0.00  0.00    -0.027 A 
ATOM     14  C   UNL     1      -0.602  11.039  -3.939  0.00  0.00    +0.038 A 
ATOM     15  C   UNL     1      -1.109  11.300  -5.198  0.00  0.00    +0.127 A 
ATOM     16  C   UNL     1      -1.900  10.361  -5.836  0.00  0.00    +0.034 A 
ATOM     17  C   UNL     1      -2.184   9.160  -5.217  0.00  0.00    +0.026 A 
ATOM     18  C   UNL     1      -1.676   8.895  -3.952  0.00  0.00    +0.037 A 
BRANCH  15  19
ATOM     19  N   UNL     1      -0.806  12.586  -5.865  0.00  0.00    +0.056 N 
ATOM     20  O   UNL     1      -1.253  12.818  -6.974  0.00  0.00    -0.126 OA
ATOM     21  O   UNL     1      -0.111  13.414  -5.304  0.00  0.00    -0.126 OA
ENDBRANCH  15  19
ENDBRANCH   8  18
ENDBRANCH   1   9
BRANCH   5  22
ATOM     22  C   UNL     1      -3.455   4.135   0.062  0.00  0.00    +0.160 C 
BRANCH  22  23
ATOM     23  C   UNL     1      -2.153   3.756   0.720  0.00  0.00    -0.026 A 
ATOM     24  C   UNL     1      -1.858   2.425   0.951  0.00  0.00    +0.007 A 
ATOM     25  C   UNL     1      -0.667   2.076   1.559  0.00  0.00    +0.022 A 
ATOM     26  C   UNL     1       0.236   3.058   1.927  0.00  0.00    +0.059 A 
ATOM     27  C   UNL     1      -0.058   4.391   1.691  0.00  0.00    +0.060 A 
ATOM     28  C   UNL     1      -1.253   4.738   1.087  0.00  0.00    +0.026 A 
ATOM     29 CL   UNL     1       1.074   5.624   2.151  0.00  0.00    -0.082 Cl
ATOM     30 CL   UNL     1       1.735   2.620   2.684  0.00  0.00    -0.082 Cl
ENDBRANCH  22  23
ENDBRANCH   5  22
TORSDOF 5
