REMARK  Name = ZINC35829503
REMARK  7 active torsions:
REMARK  status: ('A' for Active; 'I' for Inactive)
REMARK    1  A    between atoms: C_1  and  C_2
REMARK    2  A    between atoms: C_7  and  N_8
REMARK    3  A    between atoms: C_10  and  C_21
REMARK    4  A    between atoms: C_11  and  C_13
REMARK    5  A    between atoms: C_13  and  C_14
REMARK    6  A    between atoms: N_25  and  C_29
REMARK    7  A    between atoms: C_29  and  C_30
REMARK                            x       y       z     vdW  Elec       q    Type
REMARK                         _______ _______ _______ _____ _____    ______ ____
ROOT
ATOM      1  N   UNL     1       0.168   0.117   2.335  0.00  0.00    -0.196 N 
ATOM      2  C   UNL     1       0.377  -0.372   3.577  0.00  0.00    +0.281 A 
ATOM      3  C   UNL     1       0.379   0.713   4.450  0.00  0.00    +0.066 A 
ATOM      4  C   UNL     1       0.161   1.873   3.667  0.00  0.00    +0.079 A 
ATOM      5  N   UNL     1       0.043   1.508   2.421  0.00  0.00    -0.167 NA
ATOM      6  O   UNL     1       0.552  -1.673   3.910  0.00  0.00    -0.265 OA
ENDROOT
BRANCH   3   7
ATOM      7  C   UNL     1       0.570   0.664   5.901  0.00  0.00    +0.043 C 
ATOM      8  C   UNL     1      -0.160  -0.202   6.654  0.00  0.00    +0.099 C 
ATOM      9  C   UNL     1      -0.101  -0.370   8.063  0.00  0.00    +0.269 C 
ATOM     10  O   UNL     1       0.617   0.239   8.835  0.00  0.00    -0.268 OA
ATOM     11  N   UNL     1      -0.991  -1.329   8.384  0.00  0.00    -0.216 N 
ATOM     12  C   UNL     1      -1.600  -1.771   7.272  0.00  0.00    +0.313 C 
ATOM     13  O   UNL     1      -2.454  -2.637   7.240  0.00  0.00    -0.252 OA
ATOM     14  N   UNL     1      -1.130  -1.109   6.198  0.00  0.00    -0.265 N 
ATOM     15  H   UNL     1      -1.409  -1.237   5.278  0.00  0.00    +0.157 HD
BRANCH  11  16
ATOM     16  C   UNL     1      -1.253  -1.817   9.741  0.00  0.00    +0.159 C 
BRANCH  16  17
ATOM     17  C   UNL     1      -2.351  -0.995  10.367  0.00  0.00    +0.041 A 
ATOM     18  C   UNL     1      -2.039   0.148  11.081  0.00  0.00    +0.131 A 
ATOM     19  C   UNL     1      -3.048   0.902  11.656  0.00  0.00    +0.039 A 
ATOM     20  C   UNL     1      -4.367   0.513  11.516  0.00  0.00    +0.006 A 
ATOM     21  C   UNL     1      -4.680  -0.629  10.803  0.00  0.00    +0.039 A 
ATOM     22  C   UNL     1      -3.672  -1.381  10.222  0.00  0.00    +0.131 A 
ATOM     23  F   UNL     1      -3.979  -2.494   9.520  0.00  0.00    -0.205 F 
ATOM     24  F   UNL     1      -0.750   0.528  11.219  0.00  0.00    -0.205 F 
ENDBRANCH  16  17
ENDBRANCH  11  16
ENDBRANCH   3   7
BRANCH   1  31
ATOM     25  C   UNL     1      -1.985   0.621   0.543  0.00  0.00    +0.046 C 
ATOM     26  C   UNL     1      -0.940  -0.427   0.257  0.00  0.00    -0.025 A 
ATOM     27  C   UNL     1      -1.007  -1.171  -0.904  0.00  0.00    +0.005 A 
ATOM     28  C   UNL     1      -0.048  -2.132  -1.167  0.00  0.00    +0.000 A 
ATOM     29  C   UNL     1       0.980  -2.351  -0.269  0.00  0.00    +0.002 A 
ATOM     30  C   UNL     1       1.053  -1.610   0.894  0.00  0.00    +0.028 A 
ATOM     31  C   UNL     1       0.094  -0.640   1.159  0.00  0.00    +0.072 A 
ENDBRANCH   1  31
BRANCH   4  32
ATOM     32  C   UNL     1       0.083   3.287   4.184  0.00  0.00    +0.093 C 
BRANCH  32  33
ATOM     33  C   UNL     1       1.459   3.901   4.177  0.00  0.00    -0.041 A 
ATOM     34  C   UNL     1       2.275   3.779   5.287  0.00  0.00    +0.007 A 
ATOM     35  C   UNL     1       3.538   4.341   5.281  0.00  0.00    +0.038 A 
ATOM     36  C   UNL     1       3.985   5.027   4.164  0.00  0.00    +0.123 A 
ATOM     37  C   UNL     1       3.167   5.147   3.054  0.00  0.00    +0.038 A 
ATOM     38  C   UNL     1       1.907   4.580   3.059  0.00  0.00    +0.007 A 
ATOM     39  F   UNL     1       5.219   5.577   4.157  0.00  0.00    -0.205 F 
ENDBRANCH  32  33
ENDBRANCH   4  32
TORSDOF 6
