REMARK  Name = ZINC07136145
REMARK  8 active torsions:
REMARK  status: ('A' for Active; 'I' for Inactive)
REMARK    1  A    between atoms: C_1  and  C_2
REMARK    2  A    between atoms: C_5  and  N_9
REMARK    3  A    between atoms: C_10  and  C_12
REMARK    4  A    between atoms: C_12  and  C_14
REMARK    5  A    between atoms: C_12  and  N_17
REMARK    6  A    between atoms: C_14  and  C_15
REMARK    7  A    between atoms: C_14  and  C_16
REMARK    8  A    between atoms: C_18  and  C_20
REMARK                            x       y       z     vdW  Elec       q    Type
REMARK                         _______ _______ _______ _____ _____    ______ ____
ROOT
ATOM      1  C   UNL     1      -0.880   2.130   1.200  0.00  0.00    +0.162 C 
ENDROOT
BRANCH   1   3
ATOM      2  N   UNL     1      -3.069   1.570   0.196  0.00  0.00    -0.284 N 
ATOM      3  C   UNL     1      -2.288   1.603   1.294  0.00  0.00    +0.238 C 
ATOM      4  O   UNL     1      -2.720   1.210   2.357  0.00  0.00    -0.273 OA
ATOM      5  H   UNL     1      -2.752   1.951  -0.637  0.00  0.00    +0.155 HD
BRANCH   2  10
ATOM      6  C   UNL     1      -8.217  -0.806   0.443  0.00  0.00    +0.047 C 
ATOM      7  C   UNL     1      -6.850  -0.175   0.378  0.00  0.00    -0.015 A 
ATOM      8  C   UNL     1      -6.089  -0.293  -0.771  0.00  0.00    +0.008 A 
ATOM      9  C   UNL     1      -4.839   0.289  -0.836  0.00  0.00    +0.024 A 
ATOM     10  C   UNL     1      -4.339   0.984   0.258  0.00  0.00    +0.036 A 
ATOM     11  C   UNL     1      -5.103   1.102   1.411  0.00  0.00    +0.062 A 
ATOM     12  C   UNL     1      -6.358   0.522   1.468  0.00  0.00    +0.128 A 
ATOM     13  F   UNL     1      -7.103   0.636   2.589  0.00  0.00    -0.205 F 
ENDBRANCH   2  10
ENDBRANCH   1   3
BRANCH   1  14
ATOM     14  N   UNL     1      -0.421   2.536   2.531  0.00  0.00    -0.299 N 
ATOM     15  C   UNL     1       0.547   3.466   2.656  0.00  0.00    +0.251 C 
ATOM     16  O   UNL     1       1.039   3.969   1.663  0.00  0.00    -0.270 OA
ATOM     17  H   UNL     1      -0.814   2.136   3.323  0.00  0.00    +0.150 HD
BRANCH  15  18
ATOM     18  C   UNL     1       1.006   3.872   3.988  0.00  0.00    +0.074 A 
ATOM     19  C   UNL     1       1.977   4.799   4.332  0.00  0.00    +0.021 A 
ATOM     20  C   UNL     1       2.212   4.990   5.671  0.00  0.00    +0.008 A 
ATOM     21  C   UNL     1       1.496   4.276   6.579  0.00  0.00    +0.046 A 
ATOM     22  S   UNL     1       0.455   3.307   5.588  0.00  0.00    -0.092 S 
ENDBRANCH  15  18
ENDBRANCH   1  14
BRANCH   1  23
ATOM     23  C   UNL     1       0.039   1.035   0.656  0.00  0.00    +0.012 C 
ATOM     24  C   UNL     1       0.115  -0.114   1.663  0.00  0.00    +0.009 C 
ATOM     25  C   UNL     1       1.440   1.609   0.432  0.00  0.00    +0.009 C 
ENDBRANCH   1  23
TORSDOF 5
