REMARK  Name = ZINC40758594
REMARK  5 active torsions:
REMARK  status: ('A' for Active; 'I' for Inactive)
REMARK    1  A    between atoms: C_1  and  C_2
REMARK    2  A    between atoms: C_9  and  N_12
REMARK    3  A    between atoms: C_14  and  N_27
REMARK    4  A    between atoms: C_15  and  N_19
REMARK    5  A    between atoms: N_19  and  C_20
REMARK                            x       y       z     vdW  Elec       q    Type
REMARK                         _______ _______ _______ _____ _____    ______ ____
ROOT
ATOM      1  N   UNL     1       0.094  -1.959   3.626  0.00  0.00    -0.296 N 
ATOM      2  C   UNL     1      -0.015  -2.640   4.833  0.00  0.00    +0.149 A 
ATOM      3  C   UNL     1      -0.137  -1.939   6.035  0.00  0.00    +0.106 A 
ATOM      4  C   UNL     1      -0.243  -2.672   7.218  0.00  0.00    +0.149 A 
ATOM      5  N   UNL     1      -0.224  -4.002   7.156  0.00  0.00    -0.219 NA
ATOM      6  C   UNL     1      -0.107  -4.625   6.001  0.00  0.00    +0.225 A 
ATOM      7  N   UNL     1      -0.009  -3.971   4.861  0.00  0.00    -0.219 NA
ATOM      8  H   UNL     1       0.174  -0.993   3.620  0.00  0.00    +0.154 HD
ENDROOT
BRANCH   1  17
ATOM      9  C   UNL     1       2.501   0.951   0.342  0.00  0.00    +0.065 C 
ATOM     10  C   UNL     1       1.849  -0.404   0.244  0.00  0.00    +0.039 A 
ATOM     11  C   UNL     1       1.863  -1.078  -0.975  0.00  0.00    +0.023 A 
ATOM     12  C   UNL     1       1.278  -2.307  -1.082  0.00  0.00    +0.012 A 
ATOM     13  C   UNL     1       0.672  -2.856   0.065  0.00  0.00    +0.002 A 
ATOM     14  C   UNL     1       0.052  -4.115   0.030  0.00  0.00    +0.010 A 
ATOM     15  C   UNL     1      -0.525  -4.620   1.155  0.00  0.00    +0.003 A 
ATOM     16  C   UNL     1      -0.511  -3.905   2.349  0.00  0.00    +0.025 A 
ATOM     17  C   UNL     1       0.087  -2.666   2.424  0.00  0.00    +0.059 A 
ATOM     18  C   UNL     1       0.695  -2.117   1.272  0.00  0.00    +0.092 A 
ATOM     19  N   UNL     1       1.289  -0.921   1.310  0.00  0.00    -0.250 NA
ENDBRANCH   1  17
BRANCH   3  20
ATOM     20  N   UNL     1      -0.152  -0.536   6.052  0.00  0.00    -0.353 N 
ATOM     21  H   UNL     1      -0.077  -0.040   5.222  0.00  0.00    +0.143 HD
ATOM     22  H   UNL     1      -0.238  -0.062   6.894  0.00  0.00    +0.143 HD
ENDBRANCH   3  20
BRANCH   4  23
ATOM     23  N   UNL     1      -0.367  -2.024   8.442  0.00  0.00    -0.297 N 
ATOM     24  H   UNL     1      -0.465  -1.060   8.472  0.00  0.00    +0.154 HD
BRANCH  23  25
ATOM     25  C   UNL     1      -0.349  -2.762   9.629  0.00  0.00    +0.047 A 
ATOM     26  C   UNL     1       0.279  -4.001   9.669  0.00  0.00    +0.024 A 
ATOM     27  C   UNL     1       0.296  -4.727  10.843  0.00  0.00    +0.002 A 
ATOM     28  C   UNL     1      -0.312  -4.223  11.979  0.00  0.00    +0.001 A 
ATOM     29  C   UNL     1      -0.939  -2.991  11.943  0.00  0.00    +0.017 A 
ATOM     30  C   UNL     1      -0.954  -2.256  10.773  0.00  0.00    +0.039 A 
ATOM     31 BR   UNL     1      -1.804  -0.568  10.726  0.00  0.00    -0.048 Br
ENDBRANCH  23  25
ENDBRANCH   4  23
TORSDOF 4
