REMARK  Name = ZINC45873272
REMARK  7 active torsions:
REMARK  status: ('A' for Active; 'I' for Inactive)
REMARK    1  A    between atoms: N_12  and  C_13
REMARK    2  A    between atoms: C_13  and  C_14
REMARK    3  A    between atoms: C_14  and  C_15
REMARK    4  A    between atoms: N_17  and  C_18
REMARK    5  A    between atoms: C_21  and  N_24
REMARK    6  A    between atoms: N_27  and  C_28
REMARK    7  A    between atoms: C_28  and  C_29
REMARK                            x       y       z     vdW  Elec       q    Type
REMARK                         _______ _______ _______ _____ _____    ______ ____
ROOT
ATOM      1  C   UNL     1      -2.411  -7.186   0.607  0.00  0.00    +0.219 C 
ATOM      2  O   UNL     1      -3.169  -7.965   1.146  0.00  0.00    -0.275 OA
ATOM      3  N   UNL     1      -1.296  -7.640   0.000  0.00  0.00    -0.285 N 
ATOM      4  H   UNL     1      -0.725  -7.026  -0.488  0.00  0.00    +0.155 HD
ENDROOT
BRANCH   3   5
ATOM      5  C   UNL     1      -0.963  -8.998   0.074  0.00  0.00    +0.033 A 
ATOM      6  C   UNL     1       0.369  -9.383   0.150  0.00  0.00    +0.025 A 
ATOM      7  C   UNL     1       0.697 -10.722   0.223  0.00  0.00    +0.025 A 
ATOM      8  C   UNL     1      -0.304 -11.684   0.218  0.00  0.00    +0.035 A 
ATOM      9  C   UNL     1      -1.636 -11.299   0.141  0.00  0.00    +0.025 A 
ATOM     10  C   UNL     1      -1.965  -9.960   0.076  0.00  0.00    +0.025 A 
BRANCH   8  11
ATOM     11  N   UNL     1       0.029 -13.043   0.291  0.00  0.00    -0.269 N 
ATOM     12  C   UNL     1      -0.707 -13.954  -0.375  0.00  0.00    +0.304 C 
ATOM     13  O   UNL     1      -1.708 -13.608  -0.972  0.00  0.00    -0.252 OA
ATOM     14  N   UNL     1      -0.332 -15.249  -0.381  0.00  0.00    -0.292 N 
ATOM     15  H   UNL     1       0.790 -13.328   0.822  0.00  0.00    +0.156 HD
ATOM     16  H   UNL     1       0.467 -15.525   0.094  0.00  0.00    +0.151 HD
BRANCH  14  17
ATOM     17  C   UNL     1      -1.132 -16.239  -1.106  0.00  0.00    +0.180 C 
BRANCH  17  18
ATOM     18  C   UNL     1      -0.503 -17.601  -0.956  0.00  0.00    +0.122 A 
ATOM     19  C   UNL     1      -0.773 -18.489   0.017  0.00  0.00    +0.046 A 
ATOM     20  C   UNL     1       0.037 -19.622  -0.227  0.00  0.00    +0.041 A 
ATOM     21  C   UNL     1       0.755 -19.358  -1.334  0.00  0.00    +0.195 A 
ATOM     22  O   UNL     1       0.419 -18.134  -1.774  0.00  0.00    -0.466 OA
ENDBRANCH  17  18
ENDBRANCH  14  17
ENDBRANCH   8  11
ENDBRANCH   3   5
BRANCH   1  23
ATOM     23  C   UNL     1      -2.715  -5.710   0.617  0.00  0.00    +0.115 C 
BRANCH  23  24
ATOM     24  C   UNL     1      -4.027  -5.464   1.365  0.00  0.00    +0.112 C 
BRANCH  24  36
ATOM     25  C   UNL     1      -5.547   0.241   1.607  0.00  0.00    +0.001 A 
ATOM     26  C   UNL     1      -6.731   0.486   2.280  0.00  0.00    +0.002 A 
ATOM     27  C   UNL     1      -7.441  -0.576   2.822  0.00  0.00    +0.030 A 
ATOM     28  C   UNL     1      -6.963  -1.847   2.686  0.00  0.00    +0.123 A 
ATOM     29  C   UNL     1      -5.767  -2.126   2.010  0.00  0.00    +0.043 A 
ATOM     30  C   UNL     1      -5.062  -1.040   1.469  0.00  0.00    +0.013 A 
ATOM     31  C   UNL     1      -5.462  -3.565   1.996  0.00  0.00    +0.150 C 
ATOM     32  N   UNL     1      -6.276  -4.391   2.573  0.00  0.00    -0.113 NA
ATOM     33  S   UNL     1      -7.513  -3.452   3.196  0.00  0.00    +0.101 S 
ATOM     34  O   UNL     1      -8.696  -3.755   2.469  0.00  0.00    -0.146 OA
ATOM     35  O   UNL     1      -7.428  -3.508   4.613  0.00  0.00    -0.146 OA
ATOM     36  N   UNL     1      -4.323  -4.030   1.375  0.00  0.00    -0.327 N 
ATOM     37  H   UNL     1      -3.717  -3.407   0.945  0.00  0.00    +0.148 HD
ENDBRANCH  24  36
ENDBRANCH  23  24
ENDBRANCH   1  23
TORSDOF 7
