REMARK  Name = ZINC12414916
REMARK  7 active torsions:
REMARK  status: ('A' for Active; 'I' for Inactive)
REMARK    1  A    between atoms: C_1  and  O_2
REMARK    2  A    between atoms: O_2  and  C_3
REMARK    3  A    between atoms: C_5  and  O_25
REMARK    4  A    between atoms: C_8  and  N_9
REMARK    5  A    between atoms: C_10  and  C_12
REMARK    6  A    between atoms: C_12  and  N_13
REMARK    7  A    between atoms: O_25  and  C_26
REMARK                            x       y       z     vdW  Elec       q    Type
REMARK                         _______ _______ _______ _____ _____    ______ ____
ROOT
ATOM      1  N   UNL     1       1.483   0.067   6.059  0.00  0.00    -0.281 N 
ATOM      2  C   UNL     1       0.960   0.551   7.203  0.00  0.00    +0.239 C 
ATOM      3  O   UNL     1      -0.039   1.238   7.170  0.00  0.00    -0.273 OA
ATOM      4  H   UNL     1       2.243  -0.535   6.090  0.00  0.00    +0.155 HD
ENDROOT
BRANCH   1  10
ATOM      5  C   UNL     1       1.748   0.589   3.709  0.00  0.00    +0.145 A 
ATOM      6  C   UNL     1       1.198   0.950   2.490  0.00  0.00    +0.094 A 
ATOM      7  C   UNL     1      -0.169   1.155   2.382  0.00  0.00    +0.142 A 
ATOM      8  C   UNL     1      -0.986   1.004   3.494  0.00  0.00    +0.084 A 
ATOM      9  C   UNL     1      -0.440   0.639   4.710  0.00  0.00    +0.050 A 
ATOM     10  C   UNL     1       0.927   0.433   4.823  0.00  0.00    +0.077 A 
ATOM     11 CL   UNL     1      -2.696   1.268   3.356  0.00  0.00    -0.080 Cl
BRANCH   5  13
ATOM     12  C   UNL     1       3.869   0.565   2.634  0.00  0.00    +0.277 C 
ATOM     13  O   UNL     1       3.089   0.387   3.817  0.00  0.00    -0.493 OA
ENDBRANCH   5  13
BRANCH   7  14
ATOM     14  O   UNL     1      -0.710   1.510   1.185  0.00  0.00    -0.494 OA
ATOM     15  C   UNL     1       0.189   1.653   0.084  0.00  0.00    +0.277 C 
ENDBRANCH   7  14
ENDBRANCH   1  10
BRANCH   2  16
ATOM     16  C   UNL     1       1.617   0.240   8.523  0.00  0.00    +0.243 C 
BRANCH  16  17
ATOM     17  N   UNL     1       0.863   0.877   9.605  0.00  0.00    -0.220 N 
ATOM     18  C   UNL     1      -0.141   0.199  10.195  0.00  0.00    +0.268 A 
ATOM     19  O   UNL     1      -0.415  -0.936   9.838  0.00  0.00    -0.266 OA
ATOM     20  C   UNL     1      -0.870   0.820  11.230  0.00  0.00    +0.077 A 
ATOM     21  C   UNL     1      -0.516   2.092  11.593  0.00  0.00    -0.019 A 
ATOM     22  C   UNL     1       0.549   2.705  10.927  0.00  0.00    +0.065 A 
ATOM     23  N   UNL     1       1.179   2.063   9.972  0.00  0.00    -0.172 NA
ATOM     24  C   UNL     1       1.017   4.094  11.277  0.00  0.00    +0.057 C 
ATOM     25  C   UNL     1      -0.063   4.839  12.060  0.00  0.00    +0.007 C 
ATOM     26  C   UNL     1      -0.507   3.962  13.236  0.00  0.00    +0.005 C 
ATOM     27  C   UNL     1      -1.292   2.772  12.685  0.00  0.00    +0.037 C 
ENDBRANCH  16  17
ENDBRANCH   2  16
TORSDOF 5
