REMARK  Name = ZINC57760510
REMARK  10 active torsions:
REMARK  status: ('A' for Active; 'I' for Inactive)
REMARK    1  A    between atoms: C_1  and  C_2
REMARK    2  A    between atoms: C_2  and  O_3
REMARK    3  A    between atoms: O_3  and  C_4
REMARK    4  A    between atoms: C_6  and  C_14
REMARK    5  A    between atoms: C_9  and  O_10
REMARK    6  A    between atoms: O_10  and  C_11
REMARK    7  A    between atoms: C_11  and  C_12
REMARK    8  A    between atoms: C_14  and  N_15
REMARK    9  A    between atoms: C_18  and  C_21
REMARK   10  A    between atoms: C_25  and  C_27
REMARK                            x       y       z     vdW  Elec       q    Type
REMARK                         _______ _______ _______ _____ _____    ______ ____
ROOT
ATOM      1  N   UNL     1       1.053  -5.253   1.363  0.00  0.00    +0.382 N 
ATOM      2  C   UNL     1       1.487  -4.016   2.025  0.00  0.00    -0.078 C 
ATOM      3  C   UNL     1       1.827  -4.308   3.488  0.00  0.00    -0.009 C 
ATOM      4  C   UNL     1       2.954  -5.343   3.548  0.00  0.00    +0.034 C 
ATOM      5  C   UNL     1       2.519  -6.602   2.791  0.00  0.00    -0.009 C 
ATOM      6  C   UNL     1       2.153  -6.225   1.354  0.00  0.00    -0.078 C 
ATOM      7  H   UNL     1       0.267  -5.641   1.863  0.00  0.00    -0.081 HD
ENDROOT
BRANCH   4   8
ATOM      8  C   UNL     1       3.241  -5.693   4.985  0.00  0.00    +0.052 A 
ATOM      9  C   UNL     1       4.482  -5.472   5.505  0.00  0.00    +0.093 A 
ATOM     10  C   UNL     1       4.726  -5.808   6.851  0.00  0.00    +0.252 A 
ATOM     11  N   UNL     1       3.719  -6.337   7.580  0.00  0.00    -0.307 N 
ATOM     12  C   UNL     1       2.500  -6.534   7.005  0.00  0.00    +0.143 A 
ATOM     13  N   UNL     1       2.280  -6.213   5.747  0.00  0.00    -0.234 NA
ATOM     14  O   UNL     1       5.824  -5.624   7.349  0.00  0.00    -0.268 OA
ATOM     15  H   UNL     1       3.864  -6.576   8.509  0.00  0.00    +0.170 HD
BRANCH  12  16
ATOM     16  C   UNL     1       1.404  -7.114   7.808  0.00  0.00    +0.035 A 
ATOM     17  C   UNL     1       1.608  -7.454   9.151  0.00  0.00    +0.014 A 
ATOM     18  C   UNL     1       0.549  -7.993   9.859  0.00  0.00    +0.020 A 
ATOM     19  C   UNL     1      -0.666  -8.178   9.224  0.00  0.00    +0.111 A 
ATOM     20  N   UNL     1      -0.830  -7.848   7.957  0.00  0.00    -0.263 NA
ATOM     21  C   UNL     1       0.145  -7.326   7.243  0.00  0.00    +0.122 A 
ENDBRANCH  12  16
ENDBRANCH   4   8
BRANCH   1  22
ATOM     22  C   UNL     1       0.654  -4.954  -0.018  0.00  0.00    -0.043 C 
BRANCH  22  25
ATOM     23  C   UNL     1      -1.498  -1.849   0.006  0.00  0.00    +0.162 A 
ATOM     24  C   UNL     1      -0.389  -2.680  -0.003  0.00  0.00    +0.051 A 
ATOM     25  C   UNL     1      -0.553  -4.052  -0.008  0.00  0.00    -0.060 A 
ATOM     26  C   UNL     1      -1.823  -4.600  -0.005  0.00  0.00    +0.005 A 
ATOM     27  C   UNL     1      -2.934  -3.777   0.004  0.00  0.00    +0.049 A 
ATOM     28  C   UNL     1      -2.776  -2.400   0.016  0.00  0.00    +0.163 A 
BRANCH  23  29
ATOM     29  O   UNL     1      -1.339  -0.499   0.012  0.00  0.00    -0.489 OA
BRANCH  29  31
ATOM     30  C   UNL     1      -0.019   1.526   0.010  0.00  0.00    +0.048 C 
ATOM     31  C   UNL     1       0.002  -0.004   0.002  0.00  0.00    +0.226 C 
ENDBRANCH  29  31
ENDBRANCH  23  29
BRANCH  28  32
ATOM     32  O   UNL     1      -3.868  -1.589   0.030  0.00  0.00    -0.476 OA
BRANCH  32  33
ATOM     33  C   UNL     1      -5.148  -2.225   0.039  0.00  0.00    +0.317 C 
BRANCH  33  34
ATOM     34  C   UNL     1      -6.204  -1.200   0.055  0.00  0.00    -0.065 C 
ATOM     35  C   UNL     1      -7.047  -0.382   0.067  0.00  0.00    +0.007 C 
ENDBRANCH  33  34
ENDBRANCH  32  33
ENDBRANCH  28  32
ENDBRANCH  22  25
ENDBRANCH   1  22
TORSDOF 9
