REMARK  Name = ZINC18401850
REMARK  12 active torsions:
REMARK  status: ('A' for Active; 'I' for Inactive)
REMARK    1  A    between atoms: C_1  and  C_2
REMARK    2  A    between atoms: N_10  and  C_13
REMARK    3  A    between atoms: C_13  and  C_14
REMARK    4  A    between atoms: C_14  and  O_16
REMARK    5  A    between atoms: O_16  and  C_17
REMARK    6  A    between atoms: C_17  and  C_18
REMARK    7  A    between atoms: N_20  and  C_21
REMARK    8  A    between atoms: C_21  and  C_23
REMARK    9  A    between atoms: C_21  and  C_30
REMARK   10  A    between atoms: C_23  and  C_24
REMARK   11  A    between atoms: C_30  and  O_32
REMARK   12  A    between atoms: O_32  and  C_33
REMARK                            x       y       z     vdW  Elec       q    Type
REMARK                         _______ _______ _______ _____ _____    ______ ____
ROOT
ATOM      1  C   UNL     1      -3.472   3.386   4.149  0.00  0.00    +0.327 C 
ENDROOT
BRANCH   1   2
ATOM      2  C   UNL     1      -3.159   2.080   3.467  0.00  0.00    +0.251 C 
ATOM      3  O   UNL     1      -2.825   1.117   4.125  0.00  0.00    -0.272 OA
ATOM      4  N   UNL     1      -3.249   1.981   2.126  0.00  0.00    -0.299 N 
ATOM      5  H   UNL     1      -3.517   2.751   1.600  0.00  0.00    +0.150 HD
BRANCH   4   6
ATOM      6  C   UNL     1      -2.945   0.711   1.462  0.00  0.00    +0.186 C 
BRANCH   6   7
ATOM      7  C   UNL     1      -4.172  -0.164   1.465  0.00  0.00    +0.328 C 
ATOM      8  O   UNL     1      -5.196   0.233   1.970  0.00  0.00    -0.249 OA
BRANCH   7   9
ATOM      9  O   UNL     1      -4.128  -1.384   0.908  0.00  0.00    -0.467 OA
ATOM     10  C   UNL     1      -5.347  -2.172   0.947  0.00  0.00    +0.280 C 
ENDBRANCH   7   9
ENDBRANCH   6   7
BRANCH   6  11
ATOM     11  C   UNL     1      -2.514   0.980   0.019  0.00  0.00    +0.069 C 
BRANCH  11  12
ATOM     12  C   UNL     1      -1.219   1.751   0.017  0.00  0.00    -0.045 A 
ATOM     13  C   UNL     1      -0.013   1.076   0.008  0.00  0.00    +0.004 A 
ATOM     14  C   UNL     1       1.175   1.783   0.000  0.00  0.00    +0.000 A 
ATOM     15  C   UNL     1       1.156   3.165   0.008  0.00  0.00    +0.000 A 
ATOM     16  C   UNL     1      -0.050   3.840   0.022  0.00  0.00    +0.000 A 
ATOM     17  C   UNL     1      -1.238   3.133   0.030  0.00  0.00    +0.004 A 
ENDBRANCH  11  12
ENDBRANCH   6  11
ENDBRANCH   4   6
ENDBRANCH   1   2
BRANCH   1  18
ATOM     18  O   UNL     1      -3.301   3.236   5.583  0.00  0.00    -0.454 OA
BRANCH  18  19
ATOM     19  C   UNL     1      -3.543   4.317   6.342  0.00  0.00    +0.328 C 
ATOM     20  O   UNL     1      -3.886   5.354   5.825  0.00  0.00    -0.249 OA
BRANCH  19  21
ATOM     21  C   UNL     1      -3.387   4.237   7.839  0.00  0.00    +0.246 C 
BRANCH  21  31
ATOM     22  C   UNL     1      -6.282   9.377  10.526  0.00  0.00    +0.046 C 
ATOM     23  C   UNL     1      -4.844   9.149  10.139  0.00  0.00    -0.024 A 
ATOM     24  C   UNL     1      -3.906  10.136  10.349  0.00  0.00    +0.005 A 
ATOM     25  C   UNL     1      -2.578   9.941   9.996  0.00  0.00    +0.001 A 
ATOM     26  C   UNL     1      -2.170   8.753   9.428  0.00  0.00    +0.015 A 
ATOM     27  C   UNL     1      -3.103   7.743   9.207  0.00  0.00    +0.065 A 
ATOM     28  C   UNL     1      -4.456   7.937   9.564  0.00  0.00    +0.081 A 
ATOM     29  N   UNL     1      -5.346   6.939   9.340  0.00  0.00    -0.237 NA
ATOM     30  C   UNL     1      -4.984   5.811   8.807  0.00  0.00    +0.203 A 
ATOM     31  N   UNL     1      -3.707   5.537   8.433  0.00  0.00    -0.288 N 
ATOM     32  C   UNL     1      -2.725   6.453   8.610  0.00  0.00    +0.262 A 
ATOM     33  O   UNL     1      -1.576   6.219   8.284  0.00  0.00    -0.267 OA
ENDBRANCH  21  31
ENDBRANCH  19  21
ENDBRANCH  18  19
ENDBRANCH   1  18
TORSDOF 10
