REMARK  Name = ZINC14896042
REMARK  4 active torsions:
REMARK  status: ('A' for Active; 'I' for Inactive)
REMARK    1  A    between atoms: C_4  and  N_25
REMARK    2  A    between atoms: C_5  and  N_7
REMARK    3  A    between atoms: C_13  and  C_15
REMARK    4  A    between atoms: C_19  and  N_21
REMARK                            x       y       z     vdW  Elec       q    Type
REMARK                         _______ _______ _______ _____ _____    ______ ____
ROOT
ATOM      1  N   UNL     1      -3.097  -2.134   0.584  0.00  0.00    -0.325 N 
ATOM      2  C   UNL     1      -3.789  -1.568   1.750  0.00  0.00    +0.124 C 
ATOM      3  C   UNL     1      -4.381  -0.205   1.375  0.00  0.00    +0.127 C 
ATOM      4  N   UNL     1      -5.217  -0.372   0.177  0.00  0.00    -0.295 N 
ATOM      5  C   UNL     1      -4.635  -1.056  -0.988  0.00  0.00    +0.127 C 
ATOM      6  C   UNL     1      -4.032  -2.385  -0.521  0.00  0.00    +0.124 C 
ATOM      7  C   UNL     1      -6.483   0.089   0.146  0.00  0.00    +0.247 C 
ATOM      8  O   UNL     1      -6.984   0.557   1.150  0.00  0.00    -0.270 OA
ENDROOT
BRANCH   1  13
ATOM      9  C   UNL     1      -2.415  -5.568   1.698  0.00  0.00    +0.002 A 
ATOM     10  C   UNL     1      -1.035  -5.602   1.611  0.00  0.00    +0.002 A 
ATOM     11  C   UNL     1      -0.339  -4.489   1.178  0.00  0.00    +0.034 A 
ATOM     12  C   UNL     1      -1.019  -3.334   0.842  0.00  0.00    +0.147 A 
ATOM     13  C   UNL     1      -2.405  -3.297   0.928  0.00  0.00    +0.060 A 
ATOM     14  C   UNL     1      -3.102  -4.420   1.359  0.00  0.00    +0.025 A 
BRANCH  12  15
ATOM     15  N   UNL     1      -0.273  -2.141   0.384  0.00  0.00    +0.058 N 
ATOM     16  O   UNL     1       0.942  -2.175   0.308  0.00  0.00    -0.126 OA
ATOM     17  O   UNL     1      -0.875  -1.127   0.078  0.00  0.00    -0.126 OA
ENDBRANCH  12  15
ENDBRANCH   1  13
BRANCH   7  18
ATOM     18  C   UNL     1      -7.263   0.027  -1.109  0.00  0.00    +0.039 A 
ATOM     19  C   UNL     1      -6.617   0.148  -2.341  0.00  0.00    +0.013 A 
ATOM     20  C   UNL     1      -7.346   0.085  -3.510  0.00  0.00    +0.003 A 
ATOM     21  C   UNL     1      -8.717  -0.088  -3.467  0.00  0.00    +0.023 A 
ATOM     22  C   UNL     1      -9.370  -0.204  -2.246  0.00  0.00    +0.035 A 
ATOM     23  C   UNL     1      -8.646  -0.147  -1.065  0.00  0.00    +0.036 A 
BRANCH  22  24
ATOM     24  N   UNL     1     -10.758  -0.379  -2.208  0.00  0.00    -0.270 N 
ATOM     25  C   UNL     1     -11.481   0.183  -1.218  0.00  0.00    +0.301 C 
ATOM     26  O   UNL     1     -10.919   0.769  -0.313  0.00  0.00    -0.253 OA
ATOM     27  N   UNL     1     -12.825   0.094  -1.232  0.00  0.00    -0.313 N 
ATOM     28  H   UNL     1     -11.200  -0.903  -2.893  0.00  0.00    +0.156 HD
ATOM     29  H   UNL     1     -13.273  -0.373  -1.955  0.00  0.00    +0.146 HD
ATOM     30  H   UNL     1     -13.346   0.498  -0.520  0.00  0.00    +0.146 HD
ENDBRANCH  22  24
ENDBRANCH   7  18
TORSDOF 4
