REMARK  Name = ZINC45069351
REMARK  10 active torsions:
REMARK  status: ('A' for Active; 'I' for Inactive)
REMARK    1  A    between atoms: C_1  and  C_2
REMARK    2  A    between atoms: C_2  and  O_3
REMARK    3  A    between atoms: O_3  and  C_4
REMARK    4  A    between atoms: C_7  and  C_11
REMARK    5  A    between atoms: C_11  and  N_12
REMARK    6  A    between atoms: N_12  and  C_13
REMARK    7  A    between atoms: C_13  and  C_14
REMARK    8  A    between atoms: C_14  and  C_15
REMARK    9  A    between atoms: C_15  and  S_16
REMARK   10  A    between atoms: S_16  and  N_19
REMARK                            x       y       z     vdW  Elec       q    Type
REMARK                         _______ _______ _______ _____ _____    ______ ____
ROOT
ATOM      1  C   UNL     1       1.144  -6.061   1.764  0.00  0.00    -0.047 C 
ENDROOT
BRANCH   1   5
ATOM      2  C   UNL     1       0.802  -1.825   1.306  0.00  0.00    +0.148 A 
ATOM      3  C   UNL     1      -0.180  -2.532   1.986  0.00  0.00    +0.061 A 
ATOM      4  C   UNL     1      -0.067  -3.902   2.132  0.00  0.00    +0.020 A 
ATOM      5  C   UNL     1       1.023  -4.567   1.603  0.00  0.00    -0.062 A 
ATOM      6  C   UNL     1       2.003  -3.865   0.925  0.00  0.00    +0.020 A 
ATOM      7  C   UNL     1       1.892  -2.496   0.770  0.00  0.00    +0.061 A 
ATOM      8 BR   UNL     1       3.228  -1.538  -0.164  0.00  0.00    -0.046 Br
ATOM      9 BR   UNL     1      -1.670  -1.622   2.712  0.00  0.00    -0.046 Br
BRANCH   2  10
ATOM     10  O   UNL     1       0.693  -0.477   1.160  0.00  0.00    -0.490 OA
BRANCH  10  12
ATOM     11  C   UNL     1      -0.019   1.526   0.010  0.00  0.00    +0.048 C 
ATOM     12  C   UNL     1       0.002  -0.004   0.002  0.00  0.00    +0.226 C 
ENDBRANCH  10  12
ENDBRANCH   2  10
ENDBRANCH   1   5
BRANCH   1  13
ATOM     13  N   UNL     1       0.493  -6.730   0.630  0.00  0.00    +0.382 N 
ATOM     14  H   UNL     1      -0.482  -6.473   0.602  0.00  0.00    -0.085 HD
ATOM     15  H   UNL     1       0.941  -6.448  -0.229  0.00  0.00    -0.085 HD
BRANCH  13  16
ATOM     16  C   UNL     1       0.611  -8.186   0.788  0.00  0.00    -0.081 C 
BRANCH  16  17
ATOM     17  C   UNL     1      -0.066  -8.883  -0.394  0.00  0.00    +0.005 C 
BRANCH  17  18
ATOM     18  C   UNL     1       0.056 -10.399  -0.229  0.00  0.00    +0.183 C 
BRANCH  18  19
ATOM     19  S   UNL     1      -0.747 -11.226  -1.630  0.00  0.00    +0.027 S 
ATOM     20  O   UNL     1      -2.152 -11.018  -1.581  0.00  0.00    -0.158 OA
ATOM     21  O   UNL     1      -0.020 -10.981  -2.826  0.00  0.00    -0.158 OA
BRANCH  19  22
ATOM     22  N   UNL     1      -0.549 -12.845  -1.339  0.00  0.00    -0.208 NA
ATOM     23  H   UNL     1      -1.210 -13.479  -1.658  0.00  0.00    +0.144 HD
ATOM     24  H   UNL     1       0.228 -13.158  -0.851  0.00  0.00    +0.144 HD
ENDBRANCH  19  22
ENDBRANCH  18  19
ENDBRANCH  17  18
ENDBRANCH  16  17
ENDBRANCH  13  16
ENDBRANCH   1  13
TORSDOF 9
