REMARK  Name = ZINC13639536
REMARK  6 active torsions:
REMARK  status: ('A' for Active; 'I' for Inactive)
REMARK    1  A    between atoms: C_3  and  C_9
REMARK    2  A    between atoms: C_4  and  O_8
REMARK    3  A    between atoms: C_6  and  O_7
REMARK    4  A    between atoms: C_20  and  S_25
REMARK    5  A    between atoms: S_25  and  N_28
REMARK    6  A    between atoms: N_28  and  C_29
REMARK                            x       y       z     vdW  Elec       q    Type
REMARK                         _______ _______ _______ _____ _____    ______ ____
ROOT
ATOM      1  C   UNL     1       2.490   1.483   0.000  0.00  0.00    +0.108 C 
ATOM      2  C   UNL     1       2.310   0.210  -0.807  0.00  0.00    +0.029 C 
ATOM      3  C   UNL     1       3.485  -0.776  -0.831  0.00  0.00    +0.033 C 
ATOM      4  C   UNL     1       2.763  -2.112  -1.018  0.00  0.00    -0.030 C 
ATOM      5  C   UNL     1       1.530  -2.019  -0.566  0.00  0.00    -0.023 C 
ATOM      6  C   UNL     1       1.323  -0.669   0.018  0.00  0.00    +0.049 C 
ATOM      7  C   UNL     1       0.002  -0.004   0.002  0.00  0.00    -0.018 A 
ATOM      8  C   UNL     1      -1.181  -0.710  -0.014  0.00  0.00    +0.034 A 
ATOM      9  C   UNL     1      -2.392  -0.042  -0.011  0.00  0.00    +0.106 A 
ATOM     10  C   UNL     1      -2.418   1.340   0.006  0.00  0.00    +0.030 A 
ATOM     11  C   UNL     1      -1.239   2.057   0.017  0.00  0.00    +0.025 A 
ATOM     12  C   UNL     1      -0.017   1.395   0.010  0.00  0.00    +0.031 A 
ATOM     13  N   UNL     1       1.167   2.143   0.002  0.00  0.00    -0.336 N 
ATOM     14  H   UNL     1       1.117   3.112  -0.001  0.00  0.00    +0.147 HD
ENDROOT
BRANCH   1  17
ATOM     15  C   UNL     1       4.045   4.259  -2.030  0.00  0.00    +0.046 A 
ATOM     16  C   UNL     1       3.108   3.441  -1.430  0.00  0.00    +0.012 A 
ATOM     17  C   UNL     1       3.515   2.373  -0.653  0.00  0.00    +0.015 A 
ATOM     18  C   UNL     1       4.868   2.124  -0.470  0.00  0.00    +0.125 A 
ATOM     19  C   UNL     1       5.811   2.940  -1.075  0.00  0.00    +0.091 A 
ATOM     20  C   UNL     1       5.399   4.011  -1.854  0.00  0.00    +0.120 A 
BRANCH  20  21
ATOM     21  O   UNL     1       6.321   4.816  -2.445  0.00  0.00    -0.507 OA
ATOM     22  H   UNL     1       6.590   5.570  -1.902  0.00  0.00    +0.292 HD
ENDBRANCH  20  21
BRANCH  18  23
ATOM     23  O   UNL     1       5.269   1.077   0.298  0.00  0.00    -0.506 OA
ATOM     24  H   UNL     1       5.385   0.251  -0.191  0.00  0.00    +0.292 HD
ENDBRANCH  18  23
ENDBRANCH   1  17
BRANCH   9  25
ATOM     25  S   UNL     1      -3.901  -0.953  -0.032  0.00  0.00    +0.059 S 
ATOM     26  O   UNL     1      -4.889  -0.089  -0.577  0.00  0.00    -0.153 OA
ATOM     27  O   UNL     1      -3.602  -2.221  -0.598  0.00  0.00    -0.153 OA
BRANCH  25  28
ATOM     28  N   UNL     1      -4.329  -1.226   1.544  0.00  0.00    -0.187 NA
ATOM     29  H   UNL     1      -4.351  -2.132   1.891  0.00  0.00    +0.148 HD
BRANCH  28  30
ATOM     30  C   UNL     1      -4.674  -0.100   2.416  0.00  0.00    +0.077 C 
ATOM     31  C   UNL     1      -3.438   0.330   3.208  0.00  0.00    +0.020 C 
ATOM     32  C   UNL     1      -3.799   1.505   4.118  0.00  0.00    +0.002 C 
ATOM     33  C   UNL     1      -4.904   1.080   5.087  0.00  0.00    +0.000 C 
ATOM     34  C   UNL     1      -6.140   0.650   4.295  0.00  0.00    +0.002 C 
ATOM     35  C   UNL     1      -5.779  -0.526   3.385  0.00  0.00    +0.020 C 
ENDBRANCH  28  30
ENDBRANCH  25  28
ENDBRANCH   9  25
TORSDOF 6
