REMARK  Name = ZINC30822990
REMARK  7 active torsions:
REMARK  status: ('A' for Active; 'I' for Inactive)
REMARK    1  A    between atoms: C_1  and  C_2
REMARK    2  A    between atoms: C_2  and  C_3
REMARK    3  A    between atoms: C_2  and  C_4
REMARK    4  A    between atoms: C_2  and  O_5
REMARK    5  A    between atoms: O_5  and  C_6
REMARK    6  A    between atoms: N_8  and  C_9
REMARK    7  A    between atoms: C_15  and  C_17
REMARK                            x       y       z     vdW  Elec       q    Type
REMARK                         _______ _______ _______ _____ _____    ______ ____
ROOT
ATOM      1  C   UNL     1      -1.290   1.660   0.017  0.00  0.00    +0.079 C 
ATOM      2  C   UNL     1      -1.664   2.006   1.460  0.00  0.00    +0.041 C 
ATOM      3  C   UNL     1      -2.978   2.793   1.469  0.00  0.00    +0.109 C 
ATOM      4  N   UNL     1      -3.998   2.018   0.750  0.00  0.00    -0.301 N 
ATOM      5  C   UNL     1      -3.705   1.556  -0.613  0.00  0.00    +0.109 C 
ATOM      6  C   UNL     1      -2.383   0.783  -0.598  0.00  0.00    +0.041 C 
ATOM      7  C   UNL     1      -5.181   1.735   1.331  0.00  0.00    +0.219 C 
ATOM      8  O   UNL     1      -6.047   1.168   0.699  0.00  0.00    -0.275 OA
ENDROOT
BRANCH   7   9
ATOM      9  C   UNL     1      -5.428   2.124   2.766  0.00  0.00    +0.075 C 
ATOM     10  C   UNL     1      -4.937   1.005   3.708  0.00  0.00    +0.013 C 
ATOM     11  C   UNL     1      -5.981   0.986   4.852  0.00  0.00    +0.001 C 
ATOM     12  C   UNL     1      -7.312   1.250   4.105  0.00  0.00    +0.001 C 
ATOM     13  C   UNL     1      -6.938   2.280   3.018  0.00  0.00    +0.013 C 
ENDBRANCH   7   9
BRANCH   1  16
ATOM     14  C   UNL     1       1.146   1.617   0.000  0.00  0.00    +0.401 C 
ATOM     15  O   UNL     1       1.139   2.832   0.014  0.00  0.00    -0.226 OA
ATOM     16  N   UNL     1      -0.017   0.935   0.003  0.00  0.00    -0.278 N 
ATOM     17  H   UNL     1      -0.010  -0.165  -0.004  0.00  0.00    +0.152 HD
BRANCH  14  18
ATOM     18  O   UNL     1       2.316   0.951  -0.018  0.00  0.00    -0.445 OA
BRANCH  18  20
ATOM     19  C   UNL     1       3.570   2.618   1.238  0.00  0.00    +0.055 C 
ATOM     20  C   UNL     1       3.529   1.749  -0.021  0.00  0.00    +0.107 C 
ATOM     21  C   UNL     1       4.748   0.825  -0.043  0.00  0.00    +0.055 C 
ATOM     22  C   UNL     1       3.547   2.646  -1.260  0.00  0.00    +0.055 C 
ENDBRANCH  18  20
ENDBRANCH  14  18
ENDBRANCH   1  16
TORSDOF 4
