REMARK  Name = ZINC33435933
REMARK  3 active torsions:
REMARK  status: ('A' for Active; 'I' for Inactive)
REMARK    1  A    between atoms: C_4  and  N_7
REMARK    2  A    between atoms: C_9  and  C_17
REMARK    3  A    between atoms: C_20  and  C_23
REMARK                            x       y       z     vdW  Elec       q    Type
REMARK                         _______ _______ _______ _____ _____    ______ ____
ROOT
ATOM      1  N   UNL     1      -2.442   3.914   0.034  0.00  0.00    -0.148 N 
ATOM      2  N   UNL     1      -1.227   3.493   0.026  0.00  0.00    -0.142 NA
ATOM      3  C   UNL     1      -1.216   2.173   0.020  0.00  0.00    +0.173 A 
ATOM      4  C   UNL     1      -2.557   1.730   0.019  0.00  0.00    +0.175 A 
ATOM      5  N   UNL     1      -3.308   2.813   0.033  0.00  0.00    -0.131 NA
ATOM      6  N   UNL     1      -3.000   0.406   0.009  0.00  0.00    -0.312 N 
ATOM      7  C   UNL     1      -2.562  -0.312   1.233  0.00  0.00    +0.106 C 
ATOM      8  C   UNL     1      -3.538  -1.513   1.309  0.00  0.00    +0.020 C 
ATOM      9  C   UNL     1      -4.874  -0.903   0.828  0.00  0.00    +0.020 C 
ATOM     10  C   UNL     1      -4.478   0.341   0.011  0.00  0.00    +0.106 C 
ENDROOT
BRANCH   1  14
ATOM     11  C   UNL     1      -3.616   7.913   0.060  0.00  0.00    +0.000 A 
ATOM     12  C   UNL     1      -2.272   7.589   0.051  0.00  0.00    +0.002 A 
ATOM     13  C   UNL     1      -1.879   6.264   0.043  0.00  0.00    +0.029 A 
ATOM     14  C   UNL     1      -2.837   5.258   0.043  0.00  0.00    +0.086 A 
ATOM     15  C   UNL     1      -4.186   5.587   0.045  0.00  0.00    +0.029 A 
ATOM     16  C   UNL     1      -4.572   6.913   0.060  0.00  0.00    +0.002 A 
ENDBRANCH   1  14
BRANCH   3  17
ATOM     17  C   UNL     1      -0.016   1.312   0.009  0.00  0.00    +0.205 A 
ATOM     18  N   UNL     1       1.287   1.734   0.006  0.00  0.00    -0.205 NA
ATOM     19  H   UNL     1       1.607  -1.455  -0.029  0.00  0.00    +0.191 HD
ATOM     20  C   UNL     1       2.047   0.593  -0.003  0.00  0.00    +0.158 A 
ATOM     21  N   UNL     1       1.216  -0.427  -0.012  0.00  0.00    -0.258 N 
ATOM     22  N   UNL     1       0.002  -0.004   0.001  0.00  0.00    -0.150 NA
BRANCH  20  23
ATOM     23  C   UNL     1       3.523   0.521  -0.009  0.00  0.00    +0.037 A 
ATOM     24  C   UNL     1       4.176  -0.717  -0.018  0.00  0.00    +0.014 A 
ATOM     25  C   UNL     1       5.560  -0.729  -0.024  0.00  0.00    +0.020 A 
ATOM     26  C   UNL     1       6.247   0.471  -0.019  0.00  0.00    +0.111 A 
ATOM     27  N   UNL     1       5.605   1.624  -0.011  0.00  0.00    -0.263 NA
ATOM     28  C   UNL     1       4.290   1.687  -0.011  0.00  0.00    +0.122 A 
ENDBRANCH  20  23
ENDBRANCH   3  17
TORSDOF 3
