REMARK  Name = ZINC08129435
REMARK  8 active torsions:
REMARK  status: ('A' for Active; 'I' for Inactive)
REMARK    1  A    between atoms: C_1  and  C_2
REMARK    2  A    between atoms: C_2  and  C_3
REMARK    3  A    between atoms: C_3  and  C_5
REMARK    4  A    between atoms: C_3  and  N_43
REMARK    5  A    between atoms: C_12  and  C_13
REMARK    6  A    between atoms: C_12  and  N_43
REMARK    7  A    between atoms: N_18  and  C_19
REMARK    8  A    between atoms: C_19  and  C_20
REMARK                            x       y       z     vdW  Elec       q    Type
REMARK                         _______ _______ _______ _____ _____    ______ ____
ROOT
ATOM      1  C   UNL     1      -0.672  -1.854   1.384  0.00  0.00    +0.016 C 
ENDROOT
BRANCH   1   2
ATOM      2  C   UNL     1      -1.759  -2.352   2.302  0.00  0.00    +0.203 C 
ATOM      3  O   UNL     1      -2.686  -1.626   2.593  0.00  0.00    -0.277 OA
ATOM      4  N   UNL     1      -1.701  -3.603   2.799  0.00  0.00    -0.242 N 
ATOM      5  C   UNL     1      -2.673  -4.048   3.619  0.00  0.00    +0.306 C 
ATOM      6  O   UNL     1      -3.602  -3.321   3.911  0.00  0.00    -0.252 OA
ATOM      7  N   UNL     1      -2.615  -5.300   4.116  0.00  0.00    -0.292 N 
ATOM      8  H   UNL     1      -0.959  -4.184   2.566  0.00  0.00    +0.159 HD
ATOM      9  H   UNL     1      -1.873  -5.880   3.883  0.00  0.00    +0.151 HD
BRANCH   7  10
ATOM     10  C   UNL     1      -3.671  -5.784   5.008  0.00  0.00    +0.180 C 
BRANCH  10  11
ATOM     11  C   UNL     1      -3.371  -7.202   5.419  0.00  0.00    +0.122 A 
ATOM     12  C   UNL     1      -2.655  -7.575   6.495  0.00  0.00    +0.046 A 
ATOM     13  C   UNL     1      -2.624  -8.989   6.497  0.00  0.00    +0.041 A 
ATOM     14  C   UNL     1      -3.323  -9.395   5.422  0.00  0.00    +0.195 A 
ATOM     15  O   UNL     1      -3.778  -8.309   4.776  0.00  0.00    -0.466 OA
ENDBRANCH  10  11
ENDBRANCH   7  10
ENDBRANCH   1   2
BRANCH   1  16
ATOM     16  N   UNL     1      -0.973  -0.465   0.988  0.00  0.00    +0.389 N 
ATOM     17  H   UNL     1      -1.915  -0.425   0.582  0.00  0.00    -0.084 HD
ATOM     18  H   UNL     1      -0.931   0.140   1.816  0.00  0.00    -0.084 HD
BRANCH  16  19
ATOM     19  C   UNL     1       0.007   0.006  -0.010  0.00  0.00    -0.041 C 
BRANCH  19  20
ATOM     20  C   UNL     1       1.251   0.483   0.693  0.00  0.00    -0.061 A 
ATOM     21  C   UNL     1       1.148   1.201   1.870  0.00  0.00    +0.003 A 
ATOM     22  C   UNL     1       2.289   1.635   2.518  0.00  0.00    +0.015 A 
ATOM     23  C   UNL     1       3.535   1.359   1.983  0.00  0.00    +0.018 A 
ATOM     24  C   UNL     1       3.638   0.645   0.803  0.00  0.00    +0.015 A 
ATOM     25  C   UNL     1       2.496   0.207   0.159  0.00  0.00    +0.003 A 
ATOM     26 BR   UNL     1       5.096   1.959   2.864  0.00  0.00    -0.050 Br
ENDBRANCH  19  20
BRANCH  19  28
ATOM     27  C   UNL     1      -1.791   0.646  -1.622  0.00  0.00    +0.002 C 
ATOM     28  C   UNL     1      -0.604   1.161  -0.806  0.00  0.00    -0.015 C 
ENDBRANCH  19  28
ENDBRANCH  16  19
ENDBRANCH   1  16
TORSDOF 7
