REMARK  Name = ZINC22758931
REMARK  7 active torsions:
REMARK  status: ('A' for Active; 'I' for Inactive)
REMARK    1  A    between atoms: C_1  and  C_2
REMARK    2  A    between atoms: C_4  and  C_30
REMARK    3  A    between atoms: C_5  and  S_9
REMARK    4  A    between atoms: C_6  and  C_8
REMARK    5  A    between atoms: S_9  and  N_12
REMARK    6  A    between atoms: N_12  and  C_13
REMARK    7  A    between atoms: C_17  and  C_19
REMARK                            x       y       z     vdW  Elec       q    Type
REMARK                         _______ _______ _______ _____ _____    ______ ____
ROOT
ATOM      1  C   UNL     1      -0.661   3.184  -0.176  0.00  0.00    +0.049 A 
ATOM      2  C   UNL     1      -2.016   2.878  -0.217  0.00  0.00    +0.027 A 
ATOM      3  C   UNL     1      -2.431   1.581  -0.451  0.00  0.00    +0.041 A 
ATOM      4  C   UNL     1      -1.499   0.576  -0.633  0.00  0.00    +0.134 A 
ATOM      5  C   UNL     1      -0.135   0.874  -0.593  0.00  0.00    +0.056 A 
ATOM      6  C   UNL     1       0.281   2.185  -0.363  0.00  0.00    +0.039 A 
ATOM      7  F   UNL     1      -1.908  -0.692  -0.856  0.00  0.00    -0.205 F 
ENDROOT
BRANCH   5   8
ATOM      8  C   UNL     1       0.865  -0.198  -0.794  0.00  0.00    +0.167 A 
ATOM      9  N   UNL     1       0.851  -1.397  -0.251  0.00  0.00    -0.129 NA
ATOM     10  N   UNL     1       1.871  -2.069  -0.654  0.00  0.00    -0.134 NA
ATOM     11  C   UNL     1       2.585  -1.347  -1.472  0.00  0.00    +0.134 A 
ATOM     12  N   UNL     1       1.976  -0.136  -1.583  0.00  0.00    -0.311 N 
ATOM     13  C   UNL     1       2.446   1.006  -2.369  0.00  0.00    +0.125 C 
ATOM     14  C   UNL     1       3.259   0.497  -3.562  0.00  0.00    +0.022 C 
ATOM     15  C   UNL     1       4.729   0.365  -3.166  0.00  0.00    +0.002 C 
ATOM     16  C   UNL     1       4.891  -0.644  -2.034  0.00  0.00    +0.008 C 
ATOM     17  C   UNL     1       3.848  -1.757  -2.184  0.00  0.00    +0.076 C 
ENDBRANCH   5   8
BRANCH   1  18
ATOM     18  N   UNL     1      -0.247   4.500   0.055  0.00  0.00    -0.216 N 
ATOM     19  H   UNL     1       0.550   4.706   0.783  0.00  0.00    +0.174 HD
BRANCH  18  20
ATOM     20  S   UNL     1      -0.959   5.747  -0.769  0.00  0.00    +0.073 S 
ATOM     21  O   UNL     1      -0.319   6.939  -0.334  0.00  0.00    -0.150 OA
ATOM     22  O   UNL     1      -1.001   5.360  -2.136  0.00  0.00    -0.150 OA
BRANCH  20  27
ATOM     23  C   UNL     1      -6.685   6.085   1.102  0.00  0.00    +0.044 C 
ATOM     24  C   UNL     1      -5.255   6.000   0.635  0.00  0.00    -0.050 A 
ATOM     25  C   UNL     1      -4.972   5.585  -0.653  0.00  0.00    +0.008 A 
ATOM     26  C   UNL     1      -3.660   5.508  -1.082  0.00  0.00    -0.023 A 
ATOM     27  C   UNL     1      -2.631   5.846  -0.223  0.00  0.00    +0.114 A 
ATOM     28  C   UNL     1      -2.914   6.256   1.067  0.00  0.00    -0.023 A 
ATOM     29  C   UNL     1      -4.226   6.337   1.494  0.00  0.00    +0.008 A 
ATOM     30  C   UNL     1      -1.792   6.619   2.005  0.00  0.00    +0.046 C 
ATOM     31  C   UNL     1      -3.352   5.055  -2.486  0.00  0.00    +0.046 C 
ENDBRANCH  20  27
ENDBRANCH  18  20
ENDBRANCH   1  18
TORSDOF 4
