REMARK  Name = ZINC10627597
REMARK  11 active torsions:
REMARK  status: ('A' for Active; 'I' for Inactive)
REMARK    1  A    between atoms: C_1  and  C_2
REMARK    2  A    between atoms: C_2  and  C_4
REMARK    3  A    between atoms: C_2  and  O_14
REMARK    4  A    between atoms: N_6  and  C_7
REMARK    5  A    between atoms: C_7  and  C_8
REMARK    6  A    between atoms: C_7  and  C_9
REMARK    7  A    between atoms: C_7  and  C_11
REMARK    8  A    between atoms: C_11  and  C_12
REMARK    9  A    between atoms: C_11  and  C_13
REMARK   10  A    between atoms: O_14  and  C_15
REMARK   11  A    between atoms: C_15  and  C_17
REMARK                            x       y       z     vdW  Elec       q    Type
REMARK                         _______ _______ _______ _____ _____    ______ ____
ROOT
ATOM      1  C   UNL     1      -0.019   1.526   0.010  0.00  0.00    +0.062 C 
ATOM      2  C   UNL     1       0.002  -0.004   0.002  0.00  0.00    +0.258 C 
ENDROOT
BRANCH   2   3
ATOM      3  C   UNL     1       0.731  -0.503   1.223  0.00  0.00    +0.255 C 
ATOM      4  O   UNL     1       1.774  -1.109   1.101  0.00  0.00    -0.272 OA
ATOM      5  N   UNL     1       0.223  -0.277   2.451  0.00  0.00    -0.294 N 
ATOM      6  H   UNL     1      -0.611   0.208   2.548  0.00  0.00    +0.150 HD
BRANCH   5   7
ATOM      7  C   UNL     1       0.932  -0.762   3.638  0.00  0.00    +0.121 C 
ATOM      8  C   UNL     1       1.062  -2.285   3.567  0.00  0.00    +0.048 C 
BRANCH   7   9
ATOM      9  C   UNL     1       0.148  -0.374   4.893  0.00  0.00    +0.020 C 
ATOM     10  C   UNL     1       0.821  -0.987   6.123  0.00  0.00    +0.010 C 
ATOM     11  C   UNL     1       0.125   1.149   5.030  0.00  0.00    +0.010 C 
ENDBRANCH   7   9
BRANCH   7  12
ATOM     12  C   UNL     1       2.273  -0.157   3.690  0.00  0.00    +0.088 C 
ATOM     13  N   UNL     1       3.308   0.310   3.730  0.00  0.00    -0.194 NA
ENDBRANCH   7  12
ENDBRANCH   5   7
ENDBRANCH   2   3
BRANCH   2  14
ATOM     14  O   UNL     1       0.671  -0.465  -1.174  0.00  0.00    -0.452 OA
BRANCH  14  15
ATOM     15  C   UNL     1      -0.085  -0.672  -2.263  0.00  0.00    +0.311 C 
ATOM     16  O   UNL     1      -1.276  -0.469  -2.220  0.00  0.00    -0.251 OA
BRANCH  15  17
ATOM     17  C   UNL     1       0.551  -1.158  -3.540  0.00  0.00    +0.098 C 
ATOM     18  C   UNL     1       1.599  -0.146  -4.005  0.00  0.00    +0.015 C 
ATOM     19  C   UNL     1       2.245  -0.639  -5.302  0.00  0.00    +0.001 C 
ATOM     20  C   UNL     1       1.170  -0.793  -6.380  0.00  0.00    +0.000 C 
ATOM     21  C   UNL     1       0.122  -1.805  -5.915  0.00  0.00    +0.001 C 
ATOM     22  C   UNL     1      -0.524  -1.312  -4.619  0.00  0.00    +0.015 C 
ENDBRANCH  15  17
ENDBRANCH  14  15
ENDBRANCH   2  14
TORSDOF 7
