REMARK  Name = ZINC00522454
REMARK  5 active torsions:
REMARK  status: ('A' for Active; 'I' for Inactive)
REMARK    1  A    between atoms: C_1  and  C_2
REMARK    2  A    between atoms: C_3  and  N_9
REMARK    3  A    between atoms: C_13  and  N_17
REMARK    4  A    between atoms: N_17  and  C_18
REMARK    5  A    between atoms: N_17  and  O_24
REMARK                            x       y       z     vdW  Elec       q    Type
REMARK                         _______ _______ _______ _____ _____    ______ ____
ROOT
ATOM      1  N   UNL     1      -0.245   0.030  -2.356  0.00  0.00    -0.208 N 
ATOM      2  C   UNL     1       0.793   0.271  -3.166  0.00  0.00    +0.229 C 
ATOM      3  O   UNL     1       1.942  -0.051  -2.949  0.00  0.00    -0.275 OA
ATOM      4  C   UNL     1       0.306   1.006  -4.395  0.00  0.00    +0.133 C 
ATOM      5  C   UNL     1      -1.210   1.151  -4.152  0.00  0.00    +0.207 C 
ATOM      6  C   UNL     1      -1.421   0.477  -2.814  0.00  0.00    +0.252 C 
ATOM      7  O   UNL     1      -2.486   0.362  -2.245  0.00  0.00    -0.272 OA
ENDROOT
BRANCH   1  10
ATOM      8  C   UNL     1       0.084   1.591   0.002  0.00  0.00    +0.047 C 
ATOM      9  C   UNL     1       0.050   0.085   0.043  0.00  0.00    -0.010 A 
ATOM     10  C   UNL     1      -0.113  -0.639  -1.131  0.00  0.00    +0.048 A 
ATOM     11  C   UNL     1      -0.144  -2.026  -1.089  0.00  0.00    +0.024 A 
ATOM     12  C   UNL     1      -0.013  -2.683   0.119  0.00  0.00    +0.003 A 
ATOM     13  C   UNL     1       0.147  -1.961   1.287  0.00  0.00    +0.020 A 
ATOM     14  C   UNL     1       0.185  -0.578   1.248  0.00  0.00    +0.046 A 
ATOM     15 CL   UNL     1       0.394   0.325   2.716  0.00  0.00    -0.083 Cl
ENDBRANCH   1  10
BRANCH   5  16
ATOM     16  N   UNL     1      -1.590   2.564  -4.092  0.00  0.00    -0.243 N 
BRANCH  16  17
ATOM     17  C   UNL     1      -2.582   3.058  -4.943  0.00  0.00    +0.065 A 
ATOM     18  C   UNL     1      -3.106   2.249  -5.944  0.00  0.00    +0.028 A 
ATOM     19  C   UNL     1      -4.087   2.740  -6.783  0.00  0.00    +0.002 A 
ATOM     20  C   UNL     1      -4.548   4.035  -6.627  0.00  0.00    +0.000 A 
ATOM     21  C   UNL     1      -4.029   4.842  -5.631  0.00  0.00    +0.002 A 
ATOM     22  C   UNL     1      -3.052   4.355  -4.785  0.00  0.00    +0.028 A 
ENDBRANCH  16  17
BRANCH  16  23
ATOM     23  O   UNL     1      -0.952   3.430  -3.172  0.00  0.00    -0.286 OA
ATOM     24  H   UNL     1      -1.269   4.343  -3.206  0.00  0.00    +0.244 HD
ENDBRANCH  16  23
ENDBRANCH   5  16
TORSDOF 4
