REMARK  Name = ZINC56133491
REMARK  9 active torsions:
REMARK  status: ('A' for Active; 'I' for Inactive)
REMARK    1  A    between atoms: C_1  and  C_2
REMARK    2  A    between atoms: C_7  and  C_10
REMARK    3  A    between atoms: C_11  and  C_13
REMARK    4  A    between atoms: C_16  and  N_19
REMARK    5  A    between atoms: C_20  and  C_22
REMARK    6  A    between atoms: C_22  and  C_23
REMARK    7  A    between atoms: C_22  and  C_24
REMARK    8  A    between atoms: C_22  and  N_25
REMARK    9  A    between atoms: N_28  and  C_29
REMARK                            x       y       z     vdW  Elec       q    Type
REMARK                         _______ _______ _______ _____ _____    ______ ____
ROOT
ATOM      1  C   UNL     1      -1.958  -4.288  -0.544  0.00  0.00    +0.037 A 
ATOM      2  C   UNL     1      -1.295  -4.871   0.539  0.00  0.00    +0.015 A 
ATOM      3  C   UNL     1      -1.204  -6.242   0.632  0.00  0.00    +0.024 A 
ATOM      4  C   UNL     1      -1.772  -7.046  -0.351  0.00  0.00    +0.033 A 
ATOM      5  C   UNL     1      -2.433  -6.469  -1.431  0.00  0.00    +0.024 A 
ATOM      6  C   UNL     1      -2.532  -5.099  -1.526  0.00  0.00    +0.015 A 
ENDROOT
BRANCH   1  15
ATOM      7  C   UNL     1       0.254   1.339  -1.565  0.00  0.00    +0.039 C 
ATOM      8  C   UNL     1       0.165  -0.187  -1.503  0.00  0.00    +0.133 C 
ATOM      9  C   UNL     1      -1.019  -0.595  -0.620  0.00  0.00    +0.139 C 
ATOM     10  N   UNL     1      -0.971  -2.053  -0.424  0.00  0.00    -0.293 N 
ATOM     11  C   UNL     1       0.298  -2.649   0.021  0.00  0.00    +0.139 C 
ATOM     12  C   UNL     1       1.419  -2.141  -0.893  0.00  0.00    +0.133 C 
ATOM     13  O   UNL     1       1.372  -0.713  -0.946  0.00  0.00    -0.371 OA
ATOM     14  C   UNL     1       1.229  -2.711  -2.300  0.00  0.00    +0.039 C 
ATOM     15  C   UNL     1      -2.058  -2.819  -0.646  0.00  0.00    +0.247 C 
ATOM     16  O   UNL     1      -3.120  -2.300  -0.930  0.00  0.00    -0.270 OA
ENDBRANCH   1  15
BRANCH   4  17
ATOM     17  N   UNL     1      -1.678  -8.434  -0.255  0.00  0.00    -0.284 N 
ATOM     18  C   UNL     1      -2.638  -9.213  -0.790  0.00  0.00    +0.240 C 
ATOM     19  O   UNL     1      -3.630  -8.709  -1.271  0.00  0.00    -0.273 OA
ATOM     20  H   UNL     1      -0.921  -8.838   0.198  0.00  0.00    +0.155 HD
BRANCH  18  21
ATOM     21  C   UNL     1      -2.478 -10.712  -0.791  0.00  0.00    +0.107 C 
ATOM     22  C   UNL     1      -2.968 -11.278   0.543  0.00  0.00    +0.041 C 
ATOM     23  C   UNL     1      -3.302 -11.312  -1.933  0.00  0.00    +0.041 C 
BRANCH  21  24
ATOM     24  N   UNL     1      -1.066 -11.053  -0.976  0.00  0.00    -0.286 N 
ATOM     25  C   UNL     1      -0.683 -12.344  -1.010  0.00  0.00    +0.300 C 
ATOM     26  O   UNL     1      -1.510 -13.227  -0.887  0.00  0.00    -0.253 OA
ATOM     27  N   UNL     1       0.617 -12.658  -1.181  0.00  0.00    -0.302 N 
ATOM     28  C   UNL     1       1.033 -14.062  -1.218  0.00  0.00    +0.129 C 
ATOM     29  H   UNL     1      -0.406 -10.348  -1.075  0.00  0.00    +0.151 HD
ATOM     30  H   UNL     1       1.277 -11.954  -1.279  0.00  0.00    +0.150 HD
ENDBRANCH  21  24
ENDBRANCH  18  21
ENDBRANCH   4  17
TORSDOF 4
