REMARK  Name = ZINC01956086
REMARK  9 active torsions:
REMARK  status: ('A' for Active; 'I' for Inactive)
REMARK    1  A    between atoms: C_3  and  C_6
REMARK    2  A    between atoms: C_6  and  N_7
REMARK    3  A    between atoms: N_7  and  S_8
REMARK    4  A    between atoms: S_8  and  C_11
REMARK    5  A    between atoms: N_18  and  O_19
REMARK    6  A    between atoms: C_24  and  S_26
REMARK    7  A    between atoms: S_26  and  N_29
REMARK    8  A    between atoms: N_29  and  C_30
REMARK    9  A    between atoms: C_30  and  C_31
REMARK                            x       y       z     vdW  Elec       q    Type
REMARK                         _______ _______ _______ _____ _____    ______ ____
ROOT
ATOM      1  C   UNL     1      -1.218   1.751   0.017  0.00  0.00    +0.106 A 
ATOM      2  C   UNL     1      -1.243   3.135   0.031  0.00  0.00    +0.029 A 
ATOM      3  C   UNL     1      -0.065   3.857   0.024  0.00  0.00    +0.011 A 
ATOM      4  C   UNL     1       1.159   3.192   0.008  0.00  0.00    -0.008 A 
ATOM      5  C   UNL     1       1.182   1.789   0.000  0.00  0.00    +0.014 A 
ATOM      6  C   UNL     1      -0.013   1.076   0.008  0.00  0.00    +0.039 A 
ATOM      7  C   UNL     1       2.600   1.359  -0.015  0.00  0.00    +0.118 C 
ATOM      8  N   UNL     1       3.038   0.133  -0.026  0.00  0.00    -0.086 NA
ATOM      9  C   UNL     1       3.425   2.590  -0.016  0.00  0.00    +0.014 A 
ATOM     10  C   UNL     1       2.554   3.691  -0.002  0.00  0.00    -0.008 A 
ATOM     11  C   UNL     1       3.079   4.981   0.001  0.00  0.00    +0.011 A 
ATOM     12  C   UNL     1       4.448   5.168  -0.011  0.00  0.00    +0.029 A 
ATOM     13  C   UNL     1       5.305   4.082  -0.024  0.00  0.00    +0.106 A 
ATOM     14  C   UNL     1       4.801   2.796  -0.027  0.00  0.00    +0.039 A 
ENDROOT
BRANCH   1  15
ATOM     15  S   UNL     1      -2.730   0.847   0.019  0.00  0.00    +0.059 S 
ATOM     16  O   UNL     1      -3.720   1.711  -0.522  0.00  0.00    -0.153 OA
ATOM     17  O   UNL     1      -2.442  -0.427  -0.541  0.00  0.00    -0.153 OA
BRANCH  15  18
ATOM     18  N   UNL     1      -3.143   0.587   1.601  0.00  0.00    -0.183 NA
ATOM     19  H   UNL     1      -3.165  -0.317   1.954  0.00  0.00    +0.148 HD
BRANCH  18  20
ATOM     20  C   UNL     1      -3.476   1.720   2.468  0.00  0.00    +0.180 C 
BRANCH  20  23
ATOM     21  C   UNL     1      -4.560   0.454   5.755  0.00  0.00    +0.041 A 
ATOM     22  C   UNL     1      -3.546   0.861   4.857  0.00  0.00    +0.046 A 
ATOM     23  C   UNL     1      -4.159   1.217   3.713  0.00  0.00    +0.120 A 
ATOM     24  O   UNL     1      -5.482   1.053   3.872  0.00  0.00    -0.466 OA
ATOM     25  C   UNL     1      -5.731   0.585   5.106  0.00  0.00    +0.195 A 
ENDBRANCH  20  23
ENDBRANCH  18  20
ENDBRANCH  15  18
ENDBRANCH   1  15
BRANCH  13  26
ATOM     26  S   UNL     1       7.048   4.341  -0.038  0.00  0.00    +0.059 S 
ATOM     27  O   UNL     1       7.272   5.629   0.518  0.00  0.00    -0.153 OA
ATOM     28  O   UNL     1       7.637   3.166   0.501  0.00  0.00    -0.153 OA
BRANCH  26  29
ATOM     29  N   UNL     1       7.519   4.421  -1.624  0.00  0.00    -0.183 NA
ATOM     30  H   UNL     1       8.105   3.741  -1.991  0.00  0.00    +0.148 HD
BRANCH  29  31
ATOM     31  C   UNL     1       7.050   5.520  -2.472  0.00  0.00    +0.180 C 
BRANCH  31  32
ATOM     32  C   UNL     1       7.886   5.580  -3.724  0.00  0.00    +0.120 A 
ATOM     33  C   UNL     1       7.628   4.931  -4.874  0.00  0.00    +0.046 A 
ATOM     34  C   UNL     1       8.662   5.270  -5.777  0.00  0.00    +0.041 A 
ATOM     35  C   UNL     1       9.491   6.105  -5.124  0.00  0.00    +0.195 A 
ATOM     36  O   UNL     1       9.013   6.294  -3.883  0.00  0.00    -0.466 OA
ENDBRANCH  31  32
ENDBRANCH  29  31
ENDBRANCH  26  29
ENDBRANCH  13  26
BRANCH   8  37
ATOM     37  O   UNL     1       4.431  -0.121  -0.040  0.00  0.00    -0.409 OA
ATOM     38  H   UNL     1       4.659  -1.060  -0.047  0.00  0.00    +0.328 HD
ENDBRANCH   8  37
TORSDOF 9
