REMARK  Name = ZINC19497876
REMARK  7 active torsions:
REMARK  status: ('A' for Active; 'I' for Inactive)
REMARK    1  A    between atoms: C_1  and  C_2
REMARK    2  A    between atoms: C_7  and  C_16
REMARK    3  A    between atoms: N_11  and  S_12
REMARK    4  A    between atoms: S_12  and  C_15
REMARK    5  A    between atoms: C_16  and  C_18
REMARK    6  A    between atoms: C_16  and  O_31
REMARK    7  A    between atoms: C_18  and  N_19
REMARK                            x       y       z     vdW  Elec       q    Type
REMARK                         _______ _______ _______ _____ _____    ______ ____
ROOT
ATOM      1  C   UNL     1       0.173   0.008   0.029  0.00  0.00    +0.158 C 
ENDROOT
BRANCH   1   7
ATOM      2  C   UNL     1      -6.239  -2.253  -2.175  0.00  0.00    +0.030 C 
ATOM      3  C   UNL     1      -5.014  -2.939  -1.567  0.00  0.00    +0.099 C 
ATOM      4  C   UNL     1      -3.729  -2.436  -2.246  0.00  0.00    +0.061 C 
ATOM      5  C   UNL     1      -2.933  -1.800  -1.129  0.00  0.00    -0.023 A 
ATOM      6  C   UNL     1      -1.699  -1.180  -1.134  0.00  0.00    +0.011 A 
ATOM      7  C   UNL     1      -1.173  -0.668   0.037  0.00  0.00    -0.018 A 
ATOM      8  C   UNL     1      -1.884  -0.784   1.218  0.00  0.00    +0.008 A 
ATOM      9  C   UNL     1      -3.118  -1.397   1.228  0.00  0.00    +0.025 A 
ATOM     10  C   UNL     1      -3.656  -1.917   0.048  0.00  0.00    +0.054 A 
ATOM     11  N   UNL     1      -4.872  -2.571  -0.156  0.00  0.00    -0.204 N 
BRANCH  11  12
ATOM     12  S   UNL     1      -5.991  -2.886   1.023  0.00  0.00    +0.043 S 
ATOM     13  O   UNL     1      -6.699  -4.026   0.557  0.00  0.00    -0.155 OA
ATOM     14  O   UNL     1      -5.240  -2.942   2.229  0.00  0.00    -0.155 OA
ATOM     15  C   UNL     1      -7.080  -1.435   1.032  0.00  0.00    +0.218 C 
ENDBRANCH  11  12
ENDBRANCH   1   7
BRANCH   1  16
ATOM     16  O   UNL     1       0.901  -0.365   1.201  0.00  0.00    -0.386 OA
ATOM     17  H   UNL     1       1.912   0.032   1.371  0.00  0.00    +0.210 HD
ENDBRANCH   1  16
BRANCH   1  18
ATOM     18  C   UNL     1      -0.019   1.526   0.010  0.00  0.00    +0.120 C 
BRANCH  18  19
ATOM     19  N   UNL     1       1.294   2.185  -0.011  0.00  0.00    -0.297 NA
ATOM     20  C   UNL     1       1.189   3.582   0.432  0.00  0.00    +0.103 C 
ATOM     21  C   UNL     1       2.585   4.208   0.472  0.00  0.00    +0.122 C 
ATOM     22  N   UNL     1       3.194   4.127  -0.863  0.00  0.00    -0.314 N 
ATOM     23  C   UNL     1       3.299   2.730  -1.306  0.00  0.00    +0.122 C 
ATOM     24  C   UNL     1       1.903   2.103  -1.346  0.00  0.00    +0.103 C 
ATOM     25  C   UNL     1       4.436   4.751  -0.883  0.00  0.00    +0.099 A 
ATOM     26  C   UNL     1       4.544   6.083  -0.496  0.00  0.00    +0.042 A 
ATOM     27  C   UNL     1       5.786   6.691  -0.520  0.00  0.00    +0.005 A 
ATOM     28  C   UNL     1       6.882   5.944  -0.933  0.00  0.00    +0.018 A 
ATOM     29  C   UNL     1       6.702   4.627  -1.303  0.00  0.00    +0.084 A 
ATOM     30  N   UNL     1       5.505   4.071  -1.265  0.00  0.00    -0.350 N 
ATOM     31  H   UNL     1       5.410   3.015  -1.560  0.00  0.00    +0.166 HD
ENDBRANCH  18  19
ENDBRANCH   1  18
TORSDOF 5
