REMARK  Name = ZINC09058498
REMARK  8 active torsions:
REMARK  status: ('A' for Active; 'I' for Inactive)
REMARK    1  A    between atoms: C_1  and  N_2
REMARK    2  A    between atoms: C_3  and  C_23
REMARK    3  A    between atoms: C_6  and  S_7
REMARK    4  A    between atoms: S_7  and  C_8
REMARK    5  A    between atoms: C_8  and  C_9
REMARK    6  A    between atoms: N_11  and  C_12
REMARK    7  A    between atoms: C_13  and  C_21
REMARK    8  A    between atoms: C_26  and  O_29
REMARK                            x       y       z     vdW  Elec       q    Type
REMARK                         _______ _______ _______ _____ _____    ______ ____
ROOT
ATOM      1  C   UNL     1       0.384  -1.910   3.672  0.00  0.00    +0.173 C 
ENDROOT
BRANCH   1   2
ATOM      2  C   UNL     1       0.517  -1.630   5.147  0.00  0.00    +0.228 C 
ATOM      3  O   UNL     1       0.529  -0.485   5.548  0.00  0.00    -0.275 OA
ATOM      4  N   UNL     1       0.623  -2.651   6.020  0.00  0.00    -0.278 N 
ATOM      5  H   UNL     1       0.613  -3.566   5.699  0.00  0.00    +0.155 HD
BRANCH   4   6
ATOM      6  C   UNL     1       0.746  -2.392   7.378  0.00  0.00    +0.090 A 
ATOM      7  C   UNL     1       0.870  -3.307   8.411  0.00  0.00    +0.084 A 
ATOM      8  C   UNL     1       0.985  -2.777   9.758  0.00  0.00    -0.018 A 
ATOM      9  C   UNL     1       0.954  -1.428   9.825  0.00  0.00    -0.004 A 
ATOM     10  S   UNL     1       0.785  -0.899   8.146  0.00  0.00    -0.077 S 
ATOM     11  C   UNL     1       1.048  -0.586  11.060  0.00  0.00    +0.043 C 
ATOM     12  C   UNL     1       0.806  -1.490  12.278  0.00  0.00    +0.005 C 
ATOM     13  C   UNL     1       1.668  -2.748  12.142  0.00  0.00    +0.005 C 
ATOM     14  C   UNL     1       1.130  -3.628  11.011  0.00  0.00    +0.037 C 
BRANCH   7  15
ATOM     15  C   UNL     1       0.884  -4.717   8.161  0.00  0.00    +0.102 C 
ATOM     16  N   UNL     1       0.896  -5.835   7.962  0.00  0.00    -0.191 NA
ENDBRANCH   7  15
ENDBRANCH   4   6
ENDBRANCH   1   2
BRANCH   1  17
ATOM     17  S   UNL     1       0.262  -0.343   2.767  0.00  0.00    -0.077 S 
BRANCH  17  23
ATOM     18  C   UNL     1      -0.039   1.460   0.012  0.00  0.00    +0.153 C 
ATOM     19  N   UNL     1      -0.007  -0.004   0.003  0.00  0.00    -0.305 N 
ATOM     20  C   UNL     1      -0.087  -0.831  -1.094  0.00  0.00    +0.165 A 
ATOM     21  N   UNL     1      -0.019  -2.065  -0.652  0.00  0.00    -0.128 NA
ATOM     22  N   UNL     1       0.096  -2.067   0.628  0.00  0.00    -0.122 NA
ATOM     23  C   UNL     1       0.114  -0.834   1.081  0.00  0.00    +0.192 A 
BRANCH  20  24
ATOM     24  C   UNL     1      -0.224  -0.409  -2.504  0.00  0.00    +0.019 A 
ATOM     25  C   UNL     1      -0.719  -1.301  -3.457  0.00  0.00    +0.015 A 
ATOM     26  C   UNL     1      -0.846  -0.903  -4.771  0.00  0.00    +0.046 A 
ATOM     27  C   UNL     1      -0.481   0.383  -5.147  0.00  0.00    +0.117 A 
ATOM     28  C   UNL     1       0.012   1.273  -4.202  0.00  0.00    +0.046 A 
ATOM     29  C   UNL     1       0.136   0.885  -2.885  0.00  0.00    +0.015 A 
BRANCH  27  30
ATOM     30  O   UNL     1      -0.607   0.771  -6.443  0.00  0.00    -0.507 OA
ATOM     31  H   UNL     1      -1.465   1.164  -6.654  0.00  0.00    +0.292 HD
ENDBRANCH  27  30
ENDBRANCH  20  24
ENDBRANCH  17  23
ENDBRANCH   1  17
TORSDOF 7
