REMARK  Name = ZINC37034045
REMARK  6 active torsions:
REMARK  status: ('A' for Active; 'I' for Inactive)
REMARK    1  A    between atoms: C_1  and  C_2
REMARK    2  A    between atoms: C_2  and  C_3
REMARK    3  A    between atoms: C_3  and  C_4
REMARK    4  A    between atoms: C_4  and  C_6
REMARK    5  A    between atoms: C_4  and  N_22
REMARK    6  A    between atoms: N_8  and  C_9
REMARK                            x       y       z     vdW  Elec       q    Type
REMARK                         _______ _______ _______ _____ _____    ______ ____
ROOT
ATOM      1  C   UNL     1       3.718  -2.916   3.397  0.00  0.00    +0.049 A 
ATOM      2  C   UNL     1       3.212  -2.758   4.680  0.00  0.00    +0.052 A 
ATOM      3  C   UNL     1       3.984  -3.118   5.773  0.00  0.00    +0.069 A 
ATOM      4  C   UNL     1       5.266  -3.637   5.581  0.00  0.00    +0.068 A 
ATOM      5  C   UNL     1       5.766  -3.792   4.297  0.00  0.00    +0.045 A 
ATOM      6  C   UNL     1       4.992  -3.438   3.209  0.00  0.00    +0.041 A 
ATOM      7 BR   UNL     1       5.672  -3.658   1.458  0.00  0.00    -0.048 Br
ATOM      8  N   UNL     1       5.787  -3.901   6.848  0.00  0.00    -0.306 N 
ATOM      9  H   UNL     1       6.665  -4.268   7.035  0.00  0.00    +0.170 HD
ATOM     10  C   UNL     1       4.864  -3.557   7.765  0.00  0.00    +0.325 A 
ATOM     11  O   UNL     1       5.002  -3.661   8.970  0.00  0.00    -0.247 OA
ATOM     12  N   UNL     1       3.766  -3.082   7.149  0.00  0.00    -0.306 N 
ATOM     13  H   UNL     1       2.960  -2.768   7.588  0.00  0.00    +0.170 HD
ENDROOT
BRANCH   1  16
ATOM     14  C   UNL     1       1.596  -2.535   2.387  0.00  0.00    +0.203 C 
ATOM     15  O   UNL     1       1.056  -2.929   3.400  0.00  0.00    -0.277 OA
ATOM     16  N   UNL     1       2.940  -2.553   2.290  0.00  0.00    -0.286 N 
ATOM     17  H   UNL     1       3.369  -2.314   1.453  0.00  0.00    +0.155 HD
BRANCH  14  18
ATOM     18  C   UNL     1       0.764  -2.027   1.238  0.00  0.00    +0.013 C 
BRANCH  18  19
ATOM     19  N   UNL     1      -0.609  -2.533   1.366  0.00  0.00    +0.386 N 
ATOM     20  H   UNL     1      -0.598  -3.542   1.353  0.00  0.00    -0.089 HD
ATOM     21  H   UNL     1      -1.006  -2.213   2.237  0.00  0.00    -0.089 HD
ATOM     22  H   UNL     1      -1.167  -2.193   0.597  0.00  0.00    -0.089 HD
ENDBRANCH  18  19
BRANCH  18  23
ATOM     23  C   UNL     1       0.747  -0.497   1.258  0.00  0.00    -0.007 C 
BRANCH  23  25
ATOM     24  C   UNL     1      -0.009   1.551   0.043  0.00  0.00    +0.004 C 
ATOM     25  C   UNL     1       0.008   0.021   0.023  0.00  0.00    -0.005 C 
ENDBRANCH  23  25
ENDBRANCH  18  23
ENDBRANCH  14  18
ENDBRANCH   1  16
TORSDOF 5
