REMARK  Name = ZINC02008607
REMARK  5 active torsions:
REMARK  status: ('A' for Active; 'I' for Inactive)
REMARK    1  A    between atoms: C_1  and  C_2
REMARK    2  A    between atoms: C_2  and  C_13
REMARK    3  A    between atoms: C_5  and  C_8
REMARK    4  A    between atoms: C_8  and  O_9
REMARK    5  A    between atoms: O_9  and  C_10
REMARK                            x       y       z     vdW  Elec       q    Type
REMARK                         _______ _______ _______ _____ _____    ______ ____
ROOT
ATOM      1  C   UNL     1      -3.218   2.270  -3.043  0.00  0.00    +0.080 C 
ATOM      2  C   UNL     1      -2.379   1.028  -2.736  0.00  0.00    +0.194 C 
ATOM      3  O   UNL     1      -1.155   1.077  -3.482  0.00  0.00    -0.342 OA
ATOM      4  C   UNL     1      -0.073   1.087  -2.529  0.00  0.00    +0.198 C 
ATOM      5  C   UNL     1      -0.753   1.593  -1.232  0.00  0.00    +0.185 C 
ATOM      6  O   UNL     1      -2.066   0.991  -1.334  0.00  0.00    -0.336 OA
ENDROOT
BRANCH   2   7
ATOM      7  C   UNL     1      -3.149  -0.210  -3.116  0.00  0.00    +0.011 A 
ATOM      8  C   UNL     1      -3.961  -0.832  -2.185  0.00  0.00    +0.010 A 
ATOM      9  C   UNL     1      -4.672  -1.964  -2.534  0.00  0.00    +0.016 A 
ATOM     10  C   UNL     1      -4.562  -2.483  -3.812  0.00  0.00    +0.018 A 
ATOM     11  C   UNL     1      -3.746  -1.864  -4.741  0.00  0.00    +0.016 A 
ATOM     12  C   UNL     1      -3.040  -0.728  -4.393  0.00  0.00    +0.010 A 
ATOM     13 BR   UNL     1      -5.529  -4.037  -4.288  0.00  0.00    -0.050 Br
ENDBRANCH   2   7
BRANCH   5  14
ATOM     14  C   UNL     1      -0.013   1.086   0.008  0.00  0.00    +0.267 C 
BRANCH  14  15
ATOM     15  O   UNL     1      -0.692   1.554   1.203  0.00  0.00    -0.448 OA
BRANCH  15  16
ATOM     16  C   UNL     1      -0.165   1.193   2.387  0.00  0.00    +0.398 C 
ATOM     17  O   UNL     1       0.837   0.505   2.422  0.00  0.00    -0.227 OA
ATOM     18  N   UNL     1      -0.747   1.594   3.535  0.00  0.00    -0.295 N 
ATOM     19  H   UNL     1      -1.546   2.143   3.507  0.00  0.00    +0.148 HD
ATOM     20  H   UNL     1      -0.366   1.334   4.388  0.00  0.00    +0.148 HD
ENDBRANCH  15  16
ENDBRANCH  14  15
ENDBRANCH   5  14
TORSDOF 4
