REMARK  Name = ZINC16378666
REMARK  7 active torsions:
REMARK  status: ('A' for Active; 'I' for Inactive)
REMARK    1  A    between atoms: C_1  and  C_2
REMARK    2  A    between atoms: C_8  and  N_10
REMARK    3  A    between atoms: C_14  and  C_16
REMARK    4  A    between atoms: C_16  and  N_56
REMARK    5  A    between atoms: C_17  and  N_56
REMARK    6  A    between atoms: C_18  and  C_19
REMARK    7  A    between atoms: C_18  and  N_56
REMARK                            x       y       z     vdW  Elec       q    Type
REMARK                         _______ _______ _______ _____ _____    ______ ____
ROOT
ATOM      1  N   UNL     1       9.959   0.854  -4.088  0.00  0.00    -0.296 N 
ATOM      2  C   UNL     1       8.636   0.616  -3.996  0.00  0.00    +0.306 C 
ATOM      3  O   UNL     1       8.123  -0.241  -4.689  0.00  0.00    -0.252 OA
ATOM      4  N   UNL     1       7.881   1.329  -3.136  0.00  0.00    -0.242 N 
ATOM      5  C   UNL     1       6.558   1.091  -3.045  0.00  0.00    +0.204 C 
ATOM      6  O   UNL     1       6.046   0.236  -3.735  0.00  0.00    -0.277 OA
ATOM      7  H   UNL     1      10.368   1.538  -3.535  0.00  0.00    +0.151 HD
ATOM      8  H   UNL     1       8.290   2.013  -2.584  0.00  0.00    +0.159 HD
ENDROOT
BRANCH   1  15
ATOM      9  C   UNL     1      12.292  -0.582  -3.147  0.00  0.00    +0.009 C 
ATOM     10  C   UNL     1      12.229   0.061  -4.534  0.00  0.00    +0.006 C 
ATOM     11  C   UNL     1      13.086  -0.748  -5.510  0.00  0.00    +0.005 C 
ATOM     12  C   UNL     1      13.023  -0.106  -6.897  0.00  0.00    +0.000 C 
ATOM     13  C   UNL     1      11.573  -0.087  -7.386  0.00  0.00    +0.002 C 
ATOM     14  C   UNL     1      10.717   0.722  -6.410  0.00  0.00    +0.022 C 
ATOM     15  C   UNL     1      10.779   0.079  -5.022  0.00  0.00    +0.077 C 
ENDBRANCH   1  15
BRANCH   5  16
ATOM     16  C   UNL     1       5.714   1.888  -2.083  0.00  0.00    +0.019 C 
BRANCH  16  18
ATOM     17  C   UNL     1       3.745   1.762  -3.487  0.00  0.00    -0.095 C 
ATOM     18  N   UNL     1       4.317   1.414  -2.169  0.00  0.00    +0.386 N 
ATOM     19  H   UNL     1       4.304   0.393  -2.059  0.00  0.00    -0.081 HD
BRANCH  18  20
ATOM     20  C   UNL     1       3.509   2.023  -1.091  0.00  0.00    -0.030 C 
BRANCH  20  21
ATOM     21  C   UNL     1       2.135   1.351  -1.063  0.00  0.00    +0.194 C 
ATOM     22  C   UNL     1       1.254   2.018   0.001  0.00  0.00    +0.271 C 
ATOM     23  O   UNL     1      -0.016   1.357   0.009  0.00  0.00    -0.485 OA
ATOM     24  C   UNL     1       0.002  -0.004   0.002  0.00  0.00    +0.162 A 
ATOM     25  C   UNL     1      -1.139  -0.703   0.368  0.00  0.00    +0.049 A 
ATOM     26  C   UNL     1      -1.137  -2.084   0.362  0.00  0.00    +0.004 A 
ATOM     27  C   UNL     1       0.003  -2.775  -0.008  0.00  0.00    +0.004 A 
ATOM     28  C   UNL     1       1.144  -2.085  -0.372  0.00  0.00    +0.049 A 
ATOM     29  C   UNL     1       1.148  -0.698  -0.368  0.00  0.00    +0.162 A 
ATOM     30  O   UNL     1       2.281  -0.032  -0.723  0.00  0.00    -0.484 OA
ENDBRANCH  20  21
ENDBRANCH  18  20
ENDBRANCH  16  18
ENDBRANCH   5  16
TORSDOF 5
