REMARK  Name = ZINC02050094
REMARK  10 active torsions:
REMARK  status: ('A' for Active; 'I' for Inactive)
REMARK    1  A    between atoms: C_1  and  C_2
REMARK    2  A    between atoms: C_2  and  O_3
REMARK    3  A    between atoms: O_3  and  C_4
REMARK    4  A    between atoms: C_4  and  C_6
REMARK    5  A    between atoms: C_6  and  C_7
REMARK    6  A    between atoms: C_6  and  N_11
REMARK    7  A    between atoms: C_6  and  N_24
REMARK    8  A    between atoms: N_11  and  C_12
REMARK    9  A    between atoms: C_13  and  C_21
REMARK   10  A    between atoms: C_25  and  C_27
REMARK                            x       y       z     vdW  Elec       q    Type
REMARK                         _______ _______ _______ _____ _____    ______ ____
ROOT
ATOM      1  C   UNL     1      -2.398  -0.264   0.009  0.00  0.00    +0.296 C 
ENDROOT
BRANCH   1   2
ATOM      2  C   UNL     1      -2.581   0.708   1.176  0.00  0.00    +0.438 C 
ATOM      3  F   UNL     1      -1.528   1.629   1.184  0.00  0.00    -0.166 F 
ATOM      4  F   UNL     1      -3.795   1.388   1.032  0.00  0.00    -0.166 F 
ATOM      5  F   UNL     1      -2.586  -0.005   2.380  0.00  0.00    -0.166 F 
ENDBRANCH   1   2
BRANCH   1   6
ATOM      6  N   UNL     1      -3.416  -1.315   0.085  0.00  0.00    -0.274 N 
ATOM      7  C   UNL     1      -4.723  -0.995   0.004  0.00  0.00    +0.248 C 
ATOM      8  O   UNL     1      -5.054   0.151  -0.230  0.00  0.00    -0.270 OA
ATOM      9  H   UNL     1      -3.150  -2.241   0.195  0.00  0.00    +0.152 HD
BRANCH   7  10
ATOM     10  C   UNL     1      -5.753  -2.037   0.198  0.00  0.00    +0.055 A 
ATOM     11  C   UNL     1      -5.375  -3.355   0.462  0.00  0.00    +0.014 A 
ATOM     12  C   UNL     1      -6.341  -4.321   0.648  0.00  0.00    +0.001 A 
ATOM     13  C   UNL     1      -7.683  -3.990   0.564  0.00  0.00    +0.001 A 
ATOM     14  C   UNL     1      -8.065  -2.688   0.298  0.00  0.00    +0.021 A 
ATOM     15  C   UNL     1      -7.108  -1.708   0.114  0.00  0.00    +0.053 A 
ATOM     16 CL   UNL     1      -7.588  -0.074  -0.220  0.00  0.00    -0.083 Cl
ENDBRANCH   7  10
ENDBRANCH   1   6
BRANCH   1  17
ATOM     17  C   UNL     1      -2.543   0.481  -1.293  0.00  0.00    +0.359 C 
ATOM     18  O   UNL     1      -3.550   0.361  -1.949  0.00  0.00    -0.246 OA
BRANCH  17  19
ATOM     19  O   UNL     1      -1.552   1.278  -1.723  0.00  0.00    -0.462 OA
BRANCH  19  21
ATOM     20  C   UNL     1      -0.532   2.819  -3.309  0.00  0.00    +0.048 C 
ATOM     21  C   UNL     1      -1.760   1.965  -2.986  0.00  0.00    +0.229 C 
ENDBRANCH  19  21
ENDBRANCH  17  19
ENDBRANCH   1  17
BRANCH   1  22
ATOM     22  N   UNL     1      -1.066  -0.869   0.081  0.00  0.00    -0.301 N 
ATOM     23  H   UNL     1      -0.523  -0.753   0.876  0.00  0.00    +0.149 HD
BRANCH  22  24
ATOM     24  C   UNL     1      -0.583  -1.605  -0.985  0.00  0.00    +0.080 A 
ATOM     25  C   UNL     1       0.680  -2.158  -1.150  0.00  0.00    +0.068 A 
ATOM     26  C   UNL     1       0.935  -2.895  -2.377  0.00  0.00    -0.023 A 
ATOM     27  C   UNL     1      -0.105  -2.960  -3.236  0.00  0.00    -0.005 A 
ATOM     28  S   UNL     1      -1.407  -2.062  -2.439  0.00  0.00    -0.078 S 
ATOM     29  C   UNL     1      -0.136  -3.644  -4.567  0.00  0.00    +0.043 C 
ATOM     30  C   UNL     1       1.309  -3.949  -4.988  0.00  0.00    +0.005 C 
ATOM     31  C   UNL     1       2.040  -4.596  -3.809  0.00  0.00    +0.005 C 
ATOM     32  C   UNL     1       2.266  -3.560  -2.706  0.00  0.00    +0.037 C 
BRANCH  25  33
ATOM     33  C   UNL     1       1.716  -2.006  -0.126  0.00  0.00    +0.244 C 
ATOM     34  O   UNL     1       1.818  -2.830   0.764  0.00  0.00    -0.270 OA
ATOM     35  N   UNL     1       2.557  -0.953  -0.169  0.00  0.00    -0.325 N 
ATOM     36  H   UNL     1       2.475  -0.296  -0.878  0.00  0.00    +0.145 HD
ATOM     37  H   UNL     1       3.243  -0.852   0.509  0.00  0.00    +0.145 HD
ENDBRANCH  25  33
ENDBRANCH  22  24
ENDBRANCH   1  22
TORSDOF 9
