REMARK  Name = ZINC35698107
REMARK  11 active torsions:
REMARK  status: ('A' for Active; 'I' for Inactive)
REMARK    1  A    between atoms: C_1  and  C_2
REMARK    2  A    between atoms: C_3  and  C_27
REMARK    3  A    between atoms: C_4  and  C_20
REMARK    4  A    between atoms: C_7  and  C_12
REMARK    5  A    between atoms: C_13  and  N_15
REMARK    6  A    between atoms: N_15  and  C_16
REMARK    7  A    between atoms: C_16  and  C_17
REMARK    8  A    between atoms: N_29  and  C_30
REMARK    9  A    between atoms: N_29  and  C_31
REMARK   10  A    between atoms: C_31  and  C_32
REMARK   11  A    between atoms: C_31  and  C_33
REMARK                            x       y       z     vdW  Elec       q    Type
REMARK                         _______ _______ _______ _____ _____    ______ ____
ROOT
ATOM      1  C   UNL     1       0.052   1.896   0.278  0.00  0.00    +0.066 C 
ATOM      2  C   UNL     1       0.054   0.389   0.324  0.00  0.00    +0.051 C 
ATOM      3  C   UNL     1      -1.123  -0.304   0.131  0.00  0.00    +0.060 C 
ATOM      4  C   UNL     1      -1.070  -1.815   0.187  0.00  0.00    +0.148 C 
ATOM      5  N   UNL     1       0.256  -2.436   0.448  0.00  0.00    -0.267 N 
ATOM      6  C   UNL     1       0.539  -3.784   0.540  0.00  0.00    +0.048 C 
ATOM      7  C   UNL     1       1.819  -4.141   0.784  0.00  0.00    +0.072 C 
ATOM      8  S   UNL     1       2.631  -2.557   0.883  0.00  0.00    -0.060 S 
ATOM      9  C   UNL     1       1.301  -1.570   0.611  0.00  0.00    +0.166 C 
ATOM     10  N   UNL     1       1.187  -0.260   0.545  0.00  0.00    -0.230 NA
ENDROOT
BRANCH   4  11
ATOM     11  C   UNL     1      -1.580  -2.346  -1.127  0.00  0.00    -0.022 A 
ATOM     12  C   UNL     1      -0.728  -2.440  -2.212  0.00  0.00    +0.008 A 
ATOM     13  C   UNL     1      -1.194  -2.927  -3.418  0.00  0.00    +0.038 A 
ATOM     14  C   UNL     1      -2.516  -3.322  -3.540  0.00  0.00    +0.123 A 
ATOM     15  C   UNL     1      -3.369  -3.228  -2.453  0.00  0.00    +0.038 A 
ATOM     16  C   UNL     1      -2.898  -2.744  -1.246  0.00  0.00    +0.008 A 
ATOM     17  F   UNL     1      -2.973  -3.798  -4.718  0.00  0.00    -0.205 F 
ENDBRANCH   4  11
BRANCH   3  18
ATOM     18  C   UNL     1      -2.330   0.370  -0.109  0.00  0.00    +0.246 C 
ATOM     19  O   UNL     1      -2.738   0.502  -1.250  0.00  0.00    -0.270 OA
ATOM     20  N   UNL     1      -3.038   0.872   0.922  0.00  0.00    -0.298 N 
ATOM     21  C   UNL     1      -2.503   0.796   2.284  0.00  0.00    +0.132 C 
BRANCH  20  22
ATOM     22  C   UNL     1      -4.343   1.493   0.682  0.00  0.00    +0.070 C 
ATOM     23  C   UNL     1      -5.420   0.735   1.460  0.00  0.00    +0.028 C 
ATOM     24  C   UNL     1      -4.308   2.950   1.147  0.00  0.00    +0.028 C 
ENDBRANCH  20  22
ENDBRANCH   3  18
BRANCH   6  25
ATOM     25  C   UNL     1      -0.515  -4.795   0.380  0.00  0.00    +0.091 C 
ATOM     26  C   UNL     1      -0.241  -6.095   0.602  0.00  0.00    +0.239 C 
ATOM     27  O   UNL     1       1.031  -6.485   0.862  0.00  0.00    -0.271 OA
BRANCH  26  28
ATOM     28  N   UNL     1      -1.259  -7.034   0.565  0.00  0.00    -0.312 N 
ATOM     29  H   UNL     1      -2.155  -6.767   0.307  0.00  0.00    +0.149 HD
BRANCH  28  30
ATOM     30  C   UNL     1      -0.981  -8.429   0.915  0.00  0.00    +0.108 C 
BRANCH  30  31
ATOM     31  C   UNL     1      -2.234  -9.274   0.675  0.00  0.00    +0.006 C 
ATOM     32  C   UNL     1      -2.880  -9.941   1.891  0.00  0.00    +0.005 C 
ATOM     33  C   UNL     1      -2.115 -10.786   0.871  0.00  0.00    +0.005 C 
ENDBRANCH  30  31
ENDBRANCH  28  30
ENDBRANCH  26  28
ENDBRANCH   6  25
TORSDOF 7
