REMARK  Name = ZINC22389218
REMARK  11 active torsions:
REMARK  status: ('A' for Active; 'I' for Inactive)
REMARK    1  A    between atoms: C_1  and  N_2
REMARK    2  A    between atoms: N_2  and  C_3
REMARK    3  A    between atoms: N_2  and  S_25
REMARK    4  A    between atoms: C_3  and  C_4
REMARK    5  A    between atoms: N_6  and  C_7
REMARK    6  A    between atoms: C_7  and  C_8
REMARK    7  A    between atoms: C_8  and  N_9
REMARK    8  A    between atoms: C_13  and  C_14
REMARK    9  A    between atoms: C_17  and  O_20
REMARK   10  A    between atoms: O_20  and  C_21
REMARK   11  A    between atoms: S_25  and  C_28
REMARK                            x       y       z     vdW  Elec       q    Type
REMARK                         _______ _______ _______ _____ _____    ______ ____
ROOT
ATOM      1  C   UNL     1      -7.735   0.141   4.204  0.00  0.00    +0.136 C 
ENDROOT
BRANCH   1   2
ATOM      2  N   UNL     1      -9.011  -0.555   4.021  0.00  0.00    -0.227 N 
ATOM      3  C   UNL     1      -9.263  -1.641   4.733  0.00  0.00    +0.260 C 
ATOM      4  O   UNL     1      -8.460  -2.079   5.536  0.00  0.00    -0.269 OA
ATOM      5  C   UNL     1     -10.566  -2.296   4.503  0.00  0.00    +0.080 C 
ATOM      6  C   UNL     1     -11.089  -3.408   5.079  0.00  0.00    +0.028 C 
ATOM      7  S   UNL     1     -11.265  -1.222   3.257  0.00  0.00    -0.026 S 
ATOM      8  C   UNL     1      -9.906  -0.070   3.136  0.00  0.00    +0.286 C 
ATOM      9  O   UNL     1      -9.809   0.912   2.426  0.00  0.00    -0.262 OA
BRANCH   6  10
ATOM     10  C   UNL     1     -12.483  -3.785   4.814  0.00  0.00    -0.024 A 
ATOM     11  C   UNL     1     -13.328  -2.910   4.121  0.00  0.00    +0.011 A 
ATOM     12  C   UNL     1     -14.633  -3.271   3.871  0.00  0.00    +0.046 A 
ATOM     13  C   UNL     1     -15.115  -4.497   4.315  0.00  0.00    +0.120 A 
ATOM     14  C   UNL     1     -14.281  -5.368   5.008  0.00  0.00    +0.046 A 
ATOM     15  C   UNL     1     -12.973  -5.019   5.259  0.00  0.00    +0.011 A 
BRANCH  13  16
ATOM     16  O   UNL     1     -16.404  -4.846   4.071  0.00  0.00    -0.495 OA
ATOM     17  C   UNL     1     -17.206  -3.906   3.353  0.00  0.00    +0.277 C 
ENDBRANCH  13  16
ENDBRANCH   6  10
ENDBRANCH   1   2
BRANCH   1  18
ATOM     18  C   UNL     1      -6.699  -0.430   3.233  0.00  0.00    +0.123 C 
BRANCH  18  21
ATOM     19  C   UNL     1      -4.358  -0.073   2.663  0.00  0.00    +0.229 C 
ATOM     20  O   UNL     1      -4.455  -0.953   1.835  0.00  0.00    -0.274 OA
ATOM     21  N   UNL     1      -5.423   0.266   3.416  0.00  0.00    -0.313 N 
ATOM     22  H   UNL     1      -5.335   1.064   4.167  0.00  0.00    +0.149 HD
BRANCH  19  23
ATOM     23  C   UNL     1      -3.045   0.643   2.851  0.00  0.00    +0.204 C 
BRANCH  23  25
ATOM     24  C   UNL     1      -1.291  -1.101   2.285  0.00  0.00    +0.132 C 
ATOM     25  N   UNL     1      -2.053   0.096   1.922  0.00  0.00    -0.170 NA
BRANCH  25  26
ATOM     26  S   UNL     1      -1.793   0.831   0.461  0.00  0.00    +0.067 S 
ATOM     27  O   UNL     1      -2.978   1.551   0.152  0.00  0.00    -0.152 OA
ATOM     28  O   UNL     1      -1.257  -0.161  -0.403  0.00  0.00    -0.152 OA
BRANCH  26  29
ATOM     29  C   UNL     1      -0.524   2.030   0.700  0.00  0.00    +0.143 A 
ATOM     30  C   UNL     1       0.819   1.886   0.580  0.00  0.00    +0.036 A 
ATOM     31  C   UNL     1       1.633   2.978   0.818  0.00  0.00    +0.010 A 
ATOM     32  C   UNL     1       1.065   4.159   1.163  0.00  0.00    +0.047 A 
ATOM     33  S   UNL     1      -0.672   3.748   1.160  0.00  0.00    -0.077 S 
ENDBRANCH  26  29
ENDBRANCH  25  26
ENDBRANCH  23  25
ENDBRANCH  19  23
ENDBRANCH  18  21
ENDBRANCH   1  18
TORSDOF 9
