REMARK  Name = ZINC14394603
REMARK  9 active torsions:
REMARK  status: ('A' for Active; 'I' for Inactive)
REMARK    1  A    between atoms: C_1  and  C_2
REMARK    2  A    between atoms: C_7  and  N_12
REMARK    3  A    between atoms: C_9  and  C_11
REMARK    4  A    between atoms: N_12  and  C_13
REMARK    5  A    between atoms: C_13  and  N_15
REMARK    6  A    between atoms: N_15  and  N_16
REMARK    7  A    between atoms: C_17  and  C_19
REMARK    8  A    between atoms: C_19  and  N_20
REMARK    9  A    between atoms: N_27  and  C_30
REMARK                            x       y       z     vdW  Elec       q    Type
REMARK                         _______ _______ _______ _____ _____    ______ ____
ROOT
ATOM      1  N   UNL     1      -1.191   1.867   0.018  0.00  0.00    -0.234 N 
ATOM      2  C   UNL     1      -0.014   1.209   0.009  0.00  0.00    +0.249 C 
ATOM      3  O   UNL     1       0.002  -0.004   0.002  0.00  0.00    -0.272 OA
ATOM      4  H   UNL     1      -1.204   2.837   0.023  0.00  0.00    +0.173 HD
ENDROOT
BRANCH   1   5
ATOM      5  N   UNL     1      -2.394   1.150   0.020  0.00  0.00    -0.246 N 
ATOM      6  H   UNL     1      -2.381   0.180   0.014  0.00  0.00    +0.172 HD
BRANCH   5   7
ATOM      7  C   UNL     1      -3.571   1.808   0.029  0.00  0.00    +0.147 C 
ATOM      8  S   UNL     1      -5.041   0.931   0.031  0.00  0.00    -0.017 S 
BRANCH   7   9
ATOM      9  N   UNL     1      -3.589   3.155   0.036  0.00  0.00    -0.322 N 
ATOM     10  H   UNL     1      -2.755   3.652   0.035  0.00  0.00    +0.148 HD
BRANCH   9  16
ATOM     11  C   UNL     1      -3.461   7.435  -0.333  0.00  0.00    +0.008 C 
ATOM     12  C   UNL     1      -3.651   6.041   0.270  0.00  0.00    -0.009 C 
ATOM     13  C   UNL     1      -4.151   6.173   1.710  0.00  0.00    +0.003 C 
ATOM     14  C   UNL     1      -4.341   4.780   2.313  0.00  0.00    +0.002 C 
ATOM     15  C   UNL     1      -5.367   4.002   1.486  0.00  0.00    +0.022 C 
ATOM     16  C   UNL     1      -4.867   3.870   0.046  0.00  0.00    +0.075 C 
ATOM     17  C   UNL     1      -4.677   5.264  -0.557  0.00  0.00    +0.009 C 
ATOM     18  C   UNL     1      -4.177   5.132  -1.997  0.00  0.00    +0.009 C 
ENDBRANCH   9  16
ENDBRANCH   7   9
ENDBRANCH   5   7
ENDBRANCH   1   5
BRANCH   2  19
ATOM     19  C   UNL     1       1.280   1.980   0.001  0.00  0.00    +0.224 C 
BRANCH  19  20
ATOM     20  N   UNL     1       2.407   1.043  -0.015  0.00  0.00    -0.283 N 
ATOM     21  C   UNL     1       3.022   0.528  -1.153  0.00  0.00    +0.070 A 
ATOM     22  C   UNL     1       2.809   0.702  -2.512  0.00  0.00    +0.028 A 
ATOM     23  C   UNL     1       3.606   0.038  -3.424  0.00  0.00    +0.002 A 
ATOM     24  C   UNL     1       4.616  -0.801  -2.987  0.00  0.00    +0.002 A 
ATOM     25  C   UNL     1       4.837  -0.981  -1.636  0.00  0.00    +0.028 A 
ATOM     26  C   UNL     1       4.042  -0.319  -0.713  0.00  0.00    +0.070 A 
ATOM     27  N   UNL     1       4.013  -0.292   0.680  0.00  0.00    -0.295 N 
ATOM     28  C   UNL     1       3.026   0.538   1.068  0.00  0.00    +0.330 A 
ATOM     29  O   UNL     1       2.737   0.790   2.223  0.00  0.00    -0.246 OA
ATOM     30  C   UNL     1       4.909  -1.034   1.570  0.00  0.00    +0.154 C 
ENDBRANCH  19  20
ENDBRANCH   2  19
TORSDOF 6
