REMARK  Name = ZINC14212470
REMARK  3 active torsions:
REMARK  status: ('A' for Active; 'I' for Inactive)
REMARK    1  A    between atoms: C_4  and  C_7
REMARK    2  A    between atoms: C_7  and  C_8
REMARK    3  A    between atoms: C_14  and  C_16
REMARK                            x       y       z     vdW  Elec       q    Type
REMARK                         _______ _______ _______ _____ _____    ______ ____
ROOT
ATOM      1  C   UNL     1      -7.026   4.651   2.164  0.00  0.00    -0.004 C 
ATOM      2  C   UNL     1      -6.089   4.068   3.224  0.00  0.00    +0.023 C 
ATOM      3  C   UNL     1      -4.712   4.729   3.102  0.00  0.00    +0.108 C 
ATOM      4  N   UNL     1      -4.233   4.572   1.721  0.00  0.00    -0.301 N 
ATOM      5  C   UNL     1      -5.095   5.022   0.620  0.00  0.00    +0.108 C 
ATOM      6  C   UNL     1      -6.470   4.353   0.770  0.00  0.00    +0.023 C 
ATOM      7  C   UNL     1      -3.025   4.031   1.471  0.00  0.00    +0.224 C 
ATOM      8  O   UNL     1      -2.603   3.989   0.335  0.00  0.00    -0.275 OA
ENDROOT
BRANCH   7   9
ATOM      9  C   UNL     1      -2.197   3.478   2.603  0.00  0.00    +0.115 C 
ATOM     10  C   UNL     1      -1.403   4.611   3.253  0.00  0.00    +0.113 C 
ATOM     11  C   UNL     1      -0.303   5.062   2.330  0.00  0.00    +0.218 C 
ATOM     12  O   UNL     1       0.007   6.234   2.294  0.00  0.00    -0.275 OA
ATOM     13  N   UNL     1       0.341   4.179   1.544  0.00  0.00    -0.285 N 
ATOM     14  C   UNL     1      -0.012   2.826   1.564  0.00  0.00    +0.037 A 
ATOM     15  C   UNL     1      -1.246   2.439   2.068  0.00  0.00    -0.014 A 
ATOM     16  C   UNL     1      -1.597   1.104   2.084  0.00  0.00    +0.006 A 
ATOM     17  C   UNL     1      -0.722   0.152   1.593  0.00  0.00    +0.000 A 
ATOM     18  C   UNL     1       0.506   0.535   1.085  0.00  0.00    +0.002 A 
ATOM     19  C   UNL     1       0.863   1.870   1.066  0.00  0.00    +0.023 A 
ATOM     20  H   UNL     1       1.056   4.483   0.963  0.00  0.00    +0.155 HD
ENDBRANCH   7   9
BRANCH   1  21
ATOM     21  C   UNL     1      -8.412   4.018   2.306  0.00  0.00    +0.038 C 
BRANCH  21  25
ATOM     22  C   UNL     1     -11.117   5.891  -0.418  0.00  0.00    +0.000 A 
ATOM     23  C   UNL     1     -10.396   4.780  -0.815  0.00  0.00    +0.000 A 
ATOM     24  C   UNL     1      -9.521   4.174   0.067  0.00  0.00    +0.003 A 
ATOM     25  C   UNL     1      -9.366   4.679   1.345  0.00  0.00    -0.047 A 
ATOM     26  C   UNL     1     -10.091   5.786   1.742  0.00  0.00    +0.003 A 
ATOM     27  C   UNL     1     -10.964   6.395   0.859  0.00  0.00    +0.000 A 
ENDBRANCH  21  25
ENDBRANCH   1  21
TORSDOF 3
