REMARK  Name = ZINC12958527
REMARK  4 active torsions:
REMARK  status: ('A' for Active; 'I' for Inactive)
REMARK    1  A    between atoms: C_6  and  N_7
REMARK    2  A    between atoms: C_10  and  C_13
REMARK    3  A    between atoms: N_15  and  N_16
REMARK    4  A    between atoms: C_26  and  C_29
REMARK                            x       y       z     vdW  Elec       q    Type
REMARK                         _______ _______ _______ _____ _____    ______ ____
ROOT
ATOM      1  N   UNL     1       1.290  -8.378   1.538  0.00  0.00    -0.189 NA
ATOM      2  C   UNL     1       1.991  -9.089   2.339  0.00  0.00    +0.040 C 
ATOM      3  C   UNL     1       2.680  -8.470   3.536  0.00  0.00    +0.071 C 
ATOM      4  C   UNL     1       2.349  -9.325   4.770  0.00  0.00    +0.112 C 
ATOM      5  N   UNL     1       2.703 -10.724   4.502  0.00  0.00    -0.313 N 
ATOM      6  C   UNL     1       1.869 -11.297   3.438  0.00  0.00    +0.112 C 
ATOM      7  C   UNL     1       2.163 -10.578   2.117  0.00  0.00    +0.071 C 
ATOM      8  C   UNL     1       2.628 -11.488   5.661  0.00  0.00    +0.140 A 
ATOM      9  C   UNL     1       3.794 -11.984   6.238  0.00  0.00    +0.081 A 
ATOM     10  C   UNL     1       3.705 -12.738   7.394  0.00  0.00    +0.037 A 
ATOM     11  C   UNL     1       2.447 -12.982   7.930  0.00  0.00    +0.074 A 
ATOM     12  C   UNL     1       1.332 -12.465   7.302  0.00  0.00    +0.125 A 
ATOM     13  N   UNL     1       1.448 -11.743   6.203  0.00  0.00    -0.238 NA
ATOM     14 CL   UNL     1       5.340 -11.654   5.520  0.00  0.00    -0.080 Cl
ENDROOT
BRANCH   1  17
ATOM     15  C   UNL     1       0.590  -6.228   0.792  0.00  0.00    +0.235 C 
ATOM     16  O   UNL     1       0.034  -6.751  -0.151  0.00  0.00    -0.274 OA
ATOM     17  N   UNL     1       1.248  -6.986   1.691  0.00  0.00    -0.207 N 
ATOM     18  H   UNL     1       1.752  -6.512   2.546  0.00  0.00    +0.177 HD
BRANCH  15  22
ATOM     19  N   UNL     1       1.135  -2.102  -0.083  0.00  0.00    -0.314 N 
ATOM     20  C   UNL     1       1.915  -2.645   1.038  0.00  0.00    +0.107 C 
ATOM     21  C   UNL     1       1.970  -4.170   0.931  0.00  0.00    +0.032 C 
ATOM     22  C   UNL     1       0.545  -4.731   0.957  0.00  0.00    +0.080 C 
ATOM     23  C   UNL     1      -0.259  -4.114  -0.191  0.00  0.00    +0.032 C 
ATOM     24  C   UNL     1      -0.249  -2.590  -0.051  0.00  0.00    +0.107 C 
BRANCH  19  30
ATOM     25  C   UNL     1       2.400  -0.046  -0.118  0.00  0.00    +0.048 A 
ATOM     26  C   UNL     1       2.385   1.340  -0.124  0.00  0.00    +0.045 A 
ATOM     27  C   UNL     1       1.152   1.980  -0.101  0.00  0.00    +0.152 A 
ATOM     28  N   UNL     1       0.041   1.269  -0.075  0.00  0.00    -0.136 NA
ATOM     29  N   UNL     1       0.049  -0.014  -0.070  0.00  0.00    -0.133 NA
ATOM     30  C   UNL     1       1.175  -0.712  -0.090  0.00  0.00    +0.144 A 
ATOM     31 CL   UNL     1       1.074   3.714  -0.107  0.00  0.00    -0.060 Cl
ENDBRANCH  19  30
ENDBRANCH  15  22
ENDBRANCH   1  17
BRANCH  11  32
ATOM     32  C   UNL     1       2.301 -13.804   9.185  0.00  0.00    +0.419 C 
ATOM     33  F   UNL     1       0.946 -13.905   9.521  0.00  0.00    -0.166 F 
ATOM     34  F   UNL     1       2.825 -15.083   8.969  0.00  0.00    -0.166 F 
ATOM     35  F   UNL     1       2.995 -13.186  10.230  0.00  0.00    -0.166 F 
ENDBRANCH  11  32
TORSDOF 4
