REMARK  Name = ZINC35222661
REMARK  5 active torsions:
REMARK  status: ('A' for Active; 'I' for Inactive)
REMARK    1  A    between atoms: C_1  and  C_2
REMARK    2  A    between atoms: C_2  and  C_4
REMARK    3  A    between atoms: C_2  and  N_13
REMARK    4  A    between atoms: C_14  and  C_16
REMARK    5  A    between atoms: C_16  and  C_18
REMARK                            x       y       z     vdW  Elec       q    Type
REMARK                         _______ _______ _______ _____ _____    ______ ____
ROOT
ATOM      1  C   UNL     1      -0.019   1.526   0.010  0.00  0.00    +0.036 C 
ATOM      2  C   UNL     1       0.002  -0.004   0.002  0.00  0.00    +0.136 C 
ENDROOT
BRANCH   2   3
ATOM      3  C   UNL     1      -1.412  -0.526   0.013  0.00  0.00    +0.126 A 
ATOM      4  C   UNL     1      -2.074  -0.969  -1.064  0.00  0.00    +0.055 A 
ATOM      5  C   UNL     1      -3.402  -1.375  -0.590  0.00  0.00    +0.020 A 
ATOM      6  C   UNL     1      -4.536  -1.907  -1.202  0.00  0.00    +0.011 A 
ATOM      7  C   UNL     1      -5.646  -2.180  -0.453  0.00  0.00    +0.001 A 
ATOM      8  C   UNL     1      -5.651  -1.931   0.912  0.00  0.00    +0.004 A 
ATOM      9  C   UNL     1      -4.540  -1.404   1.535  0.00  0.00    +0.047 A 
ATOM     10  C   UNL     1      -3.401  -1.120   0.792  0.00  0.00    +0.135 A 
ATOM     11  O   UNL     1      -2.189  -0.619   1.105  0.00  0.00    -0.458 OA
ENDBRANCH   2   3
BRANCH   2  12
ATOM     12  N   UNL     1       0.711  -0.489   1.189  0.00  0.00    -0.305 N 
ATOM     13  C   UNL     1       2.054  -0.600   1.174  0.00  0.00    +0.231 C 
ATOM     14  O   UNL     1       2.676  -0.297   0.177  0.00  0.00    -0.274 OA
ATOM     15  H   UNL     1       0.213  -0.731   1.986  0.00  0.00    +0.149 HD
BRANCH  13  16
ATOM     16  C   UNL     1       2.783  -1.099   2.395  0.00  0.00    +0.163 C 
ATOM     17  C   UNL     1       4.001  -0.212   2.659  0.00  0.00    +0.034 C 
ATOM     18 CL   UNL     1       3.324  -2.797   2.119  0.00  0.00    -0.112 Cl
ENDBRANCH  13  16
ENDBRANCH   2  12
TORSDOF 3
