REMARK  Name = ZINC41093496
REMARK  8 active torsions:
REMARK  status: ('A' for Active; 'I' for Inactive)
REMARK    1  A    between atoms: C_1  and  C_2
REMARK    2  A    between atoms: C_2  and  N_3
REMARK    3  A    between atoms: C_7  and  C_9
REMARK    4  A    between atoms: C_9  and  C_11
REMARK    5  A    between atoms: C_9  and  O_12
REMARK    6  A    between atoms: O_12  and  C_13
REMARK    7  A    between atoms: C_13  and  C_15
REMARK    8  A    between atoms: C_19  and  N_21
REMARK                            x       y       z     vdW  Elec       q    Type
REMARK                         _______ _______ _______ _____ _____    ______ ____
ROOT
ATOM      1  O   UNL     1       2.220  -5.466  -4.063  0.00  0.00    -0.449 OA
ENDROOT
BRANCH   1   2
ATOM      2  C   UNL     1       2.302  -4.041  -3.995  0.00  0.00    +0.259 C 
ATOM      3  C   UNL     1       3.771  -3.617  -3.946  0.00  0.00    +0.062 C 
BRANCH   2   8
ATOM      4  N   UNL     1       0.688  -0.476  -1.203  0.00  0.00    -0.299 N 
ATOM      5  C   UNL     1       0.827  -1.799  -1.425  0.00  0.00    +0.306 C 
ATOM      6  O   UNL     1       0.383  -2.599  -0.625  0.00  0.00    -0.252 OA
ATOM      7  N   UNL     1       1.458  -2.233  -2.534  0.00  0.00    -0.237 N 
ATOM      8  C   UNL     1       1.597  -3.555  -2.756  0.00  0.00    +0.261 C 
ATOM      9  O   UNL     1       1.154  -4.354  -1.958  0.00  0.00    -0.271 OA
ATOM     10  H   UNL     1       1.042   0.162  -1.842  0.00  0.00    +0.150 HD
ATOM     11  H   UNL     1       1.812  -1.595  -3.172  0.00  0.00    +0.159 HD
BRANCH   4  13
ATOM     12  C   UNL     1      -0.019   1.526   0.010  0.00  0.00    +0.024 C 
ATOM     13  C   UNL     1       0.002  -0.004   0.002  0.00  0.00    +0.102 C 
ENDBRANCH   4  13
ENDBRANCH   2   8
ENDBRANCH   1   2
BRANCH   1  14
ATOM     14  C   UNL     1       2.209  -6.021  -5.290  0.00  0.00    +0.340 C 
ATOM     15  O   UNL     1       2.268  -5.315  -6.277  0.00  0.00    -0.245 OA
BRANCH  14  16
ATOM     16  C   UNL     1       2.126  -7.489  -5.436  0.00  0.00    +0.061 A 
ATOM     17  C   UNL     1       2.053  -8.303  -4.304  0.00  0.00    +0.016 A 
ATOM     18  C   UNL     1       1.975  -9.673  -4.443  0.00  0.00    +0.018 A 
ATOM     19  C   UNL     1       1.970 -10.246  -5.702  0.00  0.00    +0.039 A 
ATOM     20  C   UNL     1       2.043  -9.444  -6.836  0.00  0.00    +0.039 A 
ATOM     21  C   UNL     1       2.115  -8.066  -6.707  0.00  0.00    +0.038 A 
ATOM     22 BR   UNL     1       1.863 -12.125  -5.882  0.00  0.00    -0.048 Br
BRANCH  20  23
ATOM     23  N   UNL     1       2.038 -10.027  -8.107  0.00  0.00    -0.357 N 
ATOM     24  H   UNL     1       1.983 -10.992  -8.197  0.00  0.00    +0.142 HD
ATOM     25  H   UNL     1       2.089  -9.468  -8.897  0.00  0.00    +0.142 HD
ENDBRANCH  20  23
ENDBRANCH  14  16
ENDBRANCH   1  14
TORSDOF 6
