REMARK  Name = ZINC51190916
REMARK  8 active torsions:
REMARK  status: ('A' for Active; 'I' for Inactive)
REMARK    1  A    between atoms: C_1  and  C_2
REMARK    2  A    between atoms: N_4  and  C_9
REMARK    3  A    between atoms: C_6  and  C_8
REMARK    4  A    between atoms: C_12  and  N_16
REMARK    5  A    between atoms: N_19  and  C_20
REMARK    6  A    between atoms: C_20  and  C_21
REMARK    7  A    between atoms: N_23  and  C_24
REMARK    8  A    between atoms: C_24  and  C_25
REMARK                            x       y       z     vdW  Elec       q    Type
REMARK                         _______ _______ _______ _____ _____    ______ ____
ROOT
ATOM      1  C   UNL     1       2.784   0.536  -2.200  0.00  0.00    +0.066 A 
ATOM      2  C   UNL     1       2.664   1.912  -2.336  0.00  0.00    +0.028 A 
ATOM      3  C   UNL     1       3.316   2.564  -3.365  0.00  0.00    +0.025 A 
ATOM      4  C   UNL     1       4.091   1.845  -4.263  0.00  0.00    +0.038 A 
ATOM      5  C   UNL     1       4.213   0.468  -4.128  0.00  0.00    +0.063 A 
ATOM      6  C   UNL     1       3.566  -0.185  -3.096  0.00  0.00    +0.146 A 
ATOM      7  F   UNL     1       3.688  -1.524  -2.960  0.00  0.00    -0.203 F 
ENDROOT
BRANCH   1  11
ATOM      8  C   UNL     1      -0.286   1.361  -0.277  0.00  0.00    +0.039 C 
ATOM      9  C   UNL     1      -0.106  -0.154  -0.172  0.00  0.00    +0.133 C 
ATOM     10  C   UNL     1       0.760  -0.649  -1.336  0.00  0.00    +0.136 C 
ATOM     11  N   UNL     1       2.123  -0.125  -1.157  0.00  0.00    -0.323 N 
ATOM     12  C   UNL     1       2.771  -0.316   0.150  0.00  0.00    +0.136 C 
ATOM     13  C   UNL     1       1.808   0.162   1.242  0.00  0.00    +0.133 C 
ATOM     14  O   UNL     1       0.540  -0.474   1.063  0.00  0.00    -0.371 OA
ATOM     15  C   UNL     1       2.372  -0.202   2.617  0.00  0.00    +0.039 C 
ENDBRANCH   1  11
BRANCH   4  16
ATOM     16  N   UNL     1       4.752   2.507  -5.307  0.00  0.00    -0.269 N 
ATOM     17  C   UNL     1       5.217   3.759  -5.122  0.00  0.00    +0.304 C 
ATOM     18  O   UNL     1       5.151   4.277  -4.024  0.00  0.00    -0.252 OA
ATOM     19  N   UNL     1       5.756   4.436  -6.155  0.00  0.00    -0.291 N 
ATOM     20  H   UNL     1       4.874   2.066  -6.162  0.00  0.00    +0.156 HD
ATOM     21  H   UNL     1       5.809   4.023  -7.032  0.00  0.00    +0.151 HD
BRANCH  19  22
ATOM     22  C   UNL     1       6.262   5.796  -5.955  0.00  0.00    +0.201 C 
BRANCH  22  23
ATOM     23  C   UNL     1       6.808   6.326  -7.256  0.00  0.00    +0.231 C 
ATOM     24  O   UNL     1       6.778   5.635  -8.253  0.00  0.00    -0.274 OA
ATOM     25  N   UNL     1       7.330   7.567  -7.312  0.00  0.00    -0.303 N 
ATOM     26  H   UNL     1       7.355   8.120  -6.516  0.00  0.00    +0.150 HD
BRANCH  25  27
ATOM     27  C   UNL     1       7.861   8.082  -8.577  0.00  0.00    +0.193 C 
BRANCH  27  28
ATOM     28  C   UNL     1       8.370   9.448  -8.376  0.00  0.00    -0.087 C 
ATOM     29  C   UNL     1       8.775  10.539  -8.215  0.00  0.00    +0.005 C 
ENDBRANCH  27  28
ENDBRANCH  25  27
ENDBRANCH  22  23
ENDBRANCH  19  22
ENDBRANCH   4  16
TORSDOF 6
