REMARK  Name = ZINC09730922
REMARK  8 active torsions:
REMARK  status: ('A' for Active; 'I' for Inactive)
REMARK    1  A    between atoms: C_1  and  C_2
REMARK    2  A    between atoms: C_3  and  C_8
REMARK    3  A    between atoms: C_4  and  C_7
REMARK    4  A    between atoms: C_8  and  O_9
REMARK    5  A    between atoms: O_9  and  C_10
REMARK    6  A    between atoms: C_13  and  C_16
REMARK    7  A    between atoms: N_27  and  C_28
REMARK    8  A    between atoms: C_28  and  C_29
REMARK                            x       y       z     vdW  Elec       q    Type
REMARK                         _______ _______ _______ _____ _____    ______ ____
ROOT
ATOM      1  C   UNL     1       9.633   0.694  -2.171  0.00  0.00    +0.193 C 
ATOM      2  N   UNL     1       9.970  -0.084  -3.369  0.00  0.00    -0.321 N 
ATOM      3  C   UNL     1       9.935  -1.471  -3.292  0.00  0.00    +0.041 A 
ATOM      4  C   UNL     1       9.633  -2.259  -4.389  0.00  0.00    +0.024 A 
ATOM      5  C   UNL     1       9.608  -3.635  -4.257  0.00  0.00    +0.002 A 
ATOM      6  C   UNL     1       9.883  -4.230  -3.036  0.00  0.00    +0.001 A 
ATOM      7  C   UNL     1      10.188  -3.459  -1.933  0.00  0.00    +0.015 A 
ATOM      8  C   UNL     1      10.218  -2.072  -2.053  0.00  0.00    +0.058 A 
ATOM      9  C   UNL     1      10.540  -1.201  -0.908  0.00  0.00    +0.250 C 
ATOM     10  O   UNL     1      11.026  -1.669   0.104  0.00  0.00    -0.270 OA
ATOM     11  N   UNL     1      10.289   0.122  -0.995  0.00  0.00    -0.268 N 
ATOM     12  H   UNL     1      10.211   0.361  -4.197  0.00  0.00    +0.148 HD
ENDROOT
BRANCH   1  16
ATOM     13  C   UNL     1       5.399   0.641  -1.593  0.00  0.00    +0.121 A 
ATOM     14  C   UNL     1       6.136  -0.525  -1.440  0.00  0.00    +0.046 A 
ATOM     15  C   UNL     1       7.504  -0.506  -1.633  0.00  0.00    +0.010 A 
ATOM     16  C   UNL     1       8.140   0.675  -1.967  0.00  0.00    -0.009 A 
ATOM     17  C   UNL     1       7.409   1.839  -2.115  0.00  0.00    +0.010 A 
ATOM     18  C   UNL     1       6.040   1.825  -1.928  0.00  0.00    +0.046 A 
BRANCH  13  19
ATOM     19  O   UNL     1       4.053   0.624  -1.409  0.00  0.00    -0.487 OA
BRANCH  19  20
ATOM     20  C   UNL     1       3.461  -0.630  -1.065  0.00  0.00    +0.269 C 
BRANCH  20  23
ATOM     21  C   UNL     1       1.836   0.125   1.640  0.00  0.00    +0.069 C 
ATOM     22  C   UNL     1       1.257  -0.127   0.272  0.00  0.00    +0.087 A 
ATOM     23  C   UNL     1       1.972  -0.455  -0.903  0.00  0.00    +0.054 A 
ATOM     24  C   UNL     1       1.010  -0.577  -1.849  0.00  0.00    +0.141 A 
ATOM     25  O   UNL     1      -0.157  -0.333  -1.236  0.00  0.00    -0.359 OA
ATOM     26  N   UNL     1       0.000  -0.085  -0.063  0.00  0.00    -0.083 NA
ATOM     27  C   UNL     1       1.212  -0.920  -3.302  0.00  0.00    +0.089 C 
ENDBRANCH  20  23
ENDBRANCH  19  20
ENDBRANCH  13  19
ENDBRANCH   1  16
BRANCH  11  28
ATOM     28  C   UNL     1      10.682   1.002   0.108  0.00  0.00    +0.184 C 
BRANCH  28  29
ATOM     29  C   UNL     1       9.605   0.999   1.162  0.00  0.00    +0.122 A 
ATOM     30  C   UNL     1       9.575   0.215   2.254  0.00  0.00    +0.046 A 
ATOM     31  C   UNL     1       8.395   0.542   2.961  0.00  0.00    +0.041 A 
ATOM     32  C   UNL     1       7.774   1.506   2.258  0.00  0.00    +0.195 A 
ATOM     33  O   UNL     1       8.514   1.783   1.172  0.00  0.00    -0.466 OA
ENDBRANCH  28  29
ENDBRANCH  11  28
TORSDOF 6
