REMARK  Name = ZINC39448201
REMARK  6 active torsions:
REMARK  status: ('A' for Active; 'I' for Inactive)
REMARK    1  A    between atoms: C_1  and  C_2
REMARK    2  A    between atoms: C_2  and  N_3
REMARK    3  A    between atoms: C_11  and  C_13
REMARK    4  A    between atoms: C_13  and  N_14
REMARK    5  A    between atoms: C_15  and  C_17
REMARK    6  A    between atoms: N_23  and  C_24
REMARK                            x       y       z     vdW  Elec       q    Type
REMARK                         _______ _______ _______ _____ _____    ______ ____
ROOT
ATOM      1  N   UNL     1      -1.902   2.248  -0.497  0.00  0.00    -0.307 N 
ATOM      2  C   UNL     1      -2.508   3.207  -1.225  0.00  0.00    +0.262 C 
ATOM      3  O   UNL     1      -2.101   3.473  -2.341  0.00  0.00    -0.269 OA
ATOM      4  H   UNL     1      -2.226   2.036   0.392  0.00  0.00    +0.149 HD
ENDROOT
BRANCH   2   5
ATOM      5  C   UNL     1      -3.656   3.931  -0.671  0.00  0.00    +0.127 A 
ATOM      6  H   UNL     1      -5.905   4.628   1.399  0.00  0.00    +0.167 HD
ATOM      7  C   UNL     1      -4.274   3.678   0.505  0.00  0.00    +0.116 A 
ATOM      8  N   UNL     1      -5.295   4.579   0.646  0.00  0.00    -0.339 N 
ATOM      9  C   UNL     1      -5.312   5.385  -0.432  0.00  0.00    +0.163 A 
ATOM     10  S   UNL     1      -6.414   6.667  -0.703  0.00  0.00    -0.013 S 
ATOM     11  N   UNL     1      -4.314   5.017  -1.259  0.00  0.00    -0.284 N 
BRANCH  11  12
ATOM     12  C   UNL     1      -3.995   5.612  -2.486  0.00  0.00    +0.049 A 
ATOM     13  C   UNL     1      -4.596   5.162  -3.655  0.00  0.00    +0.029 A 
ATOM     14  C   UNL     1      -4.281   5.749  -4.864  0.00  0.00    +0.040 A 
ATOM     15  C   UNL     1      -3.365   6.787  -4.912  0.00  0.00    +0.124 A 
ATOM     16  C   UNL     1      -2.765   7.238  -3.748  0.00  0.00    +0.040 A 
ATOM     17  C   UNL     1      -3.082   6.657  -2.536  0.00  0.00    +0.029 A 
ATOM     18  F   UNL     1      -3.058   7.361  -6.096  0.00  0.00    -0.205 F 
ENDBRANCH  11  12
ENDBRANCH   2   5
BRANCH   1  19
ATOM     19  C   UNL     1      -0.754   1.524  -1.050  0.00  0.00    +0.146 C 
BRANCH  19  28
ATOM     20  N   UNL     1       0.149   1.172   1.209  0.00  0.00    -0.309 N 
ATOM     21  C   UNL     1      -0.667   0.683   2.238  0.00  0.00    +0.052 A 
ATOM     22  C   UNL     1      -0.697   0.995   3.592  0.00  0.00    +0.025 A 
ATOM     23  C   UNL     1      -1.605   0.374   4.428  0.00  0.00    +0.002 A 
ATOM     24  C   UNL     1      -2.488  -0.560   3.921  0.00  0.00    +0.002 A 
ATOM     25  C   UNL     1      -2.467  -0.877   2.576  0.00  0.00    +0.025 A 
ATOM     26  C   UNL     1      -1.558  -0.257   1.728  0.00  0.00    +0.050 A 
ATOM     27  N   UNL     1      -1.347  -0.410   0.350  0.00  0.00    -0.323 N 
ATOM     28  C   UNL     1      -0.259   0.498  -0.030  0.00  0.00    +0.176 C 
ATOM     29  H   UNL     1      -1.834  -1.003  -0.243  0.00  0.00    +0.148 HD
BRANCH  20  31
ATOM     30  C   UNL     1       0.621   3.570   1.136  0.00  0.00    +0.024 C 
ATOM     31  C   UNL     1       1.210   2.173   1.343  0.00  0.00    +0.103 C 
ENDBRANCH  20  31
ENDBRANCH  19  28
ENDBRANCH   1  19
TORSDOF 5
