REMARK  Name = ZINC06678335
REMARK  5 active torsions:
REMARK  status: ('A' for Active; 'I' for Inactive)
REMARK    1  A    between atoms: C_1  and  C_2
REMARK    2  A    between atoms: C_2  and  C_3
REMARK    3  A    between atoms: C_6  and  C_9
REMARK    4  A    between atoms: C_12  and  C_24
REMARK    5  A    between atoms: C_20  and  C_23
REMARK                            x       y       z     vdW  Elec       q    Type
REMARK                         _______ _______ _______ _____ _____    ______ ____
ROOT
ATOM      1  C   UNL     1       2.409  -1.744   4.771  0.00  0.00    +0.112 C 
ATOM      2  C   UNL     1       2.003  -3.132   5.155  0.00  0.00    +0.032 A 
ATOM      3  C   UNL     1       1.487  -4.048   4.215  0.00  0.00    +0.066 A 
ATOM      4  N   UNL     1       1.220  -5.167   4.825  0.00  0.00    -0.177 NA
ATOM      5  N   UNL     1       1.550  -5.016   6.171  0.00  0.00    -0.263 N 
ATOM      6  H   UNL     1       1.451  -5.693   6.859  0.00  0.00    +0.190 HD
ATOM      7  C   UNL     1       2.036  -3.749   6.356  0.00  0.00    +0.125 A 
ATOM      8  N   UNL     1       2.450  -3.323   7.596  0.00  0.00    -0.270 N 
ATOM      9  C   UNL     1       2.898  -2.203   8.079  0.00  0.00    +0.231 C 
ATOM     10  O   UNL     1       3.062  -2.195   9.280  0.00  0.00    -0.274 OA
ATOM     11  C   UNL     1       3.239  -0.937   7.397  0.00  0.00    +0.130 C 
ATOM     12  S   UNL     1       2.103  -0.534   6.061  0.00  0.00    -0.135 S 
ATOM     13  C   UNL     1       4.652  -1.051   6.824  0.00  0.00    +0.029 C 
ATOM     14  C   UNL     1       1.280  -3.776   2.747  0.00  0.00    +0.068 C 
ATOM     15  H   UNL     1       2.396  -4.022   8.267  0.00  0.00    +0.156 HD
ENDROOT
BRANCH   1  19
ATOM     16  C   UNL     1       0.236  -0.601   1.275  0.00  0.00    -0.048 A 
ATOM     17  C   UNL     1       1.589  -0.873   1.190  0.00  0.00    +0.004 A 
ATOM     18  C   UNL     1       2.292  -1.242   2.321  0.00  0.00    +0.005 A 
ATOM     19  C   UNL     1       1.643  -1.340   3.538  0.00  0.00    -0.030 A 
ATOM     20  C   UNL     1       0.290  -1.068   3.623  0.00  0.00    +0.005 A 
ATOM     21  C   UNL     1      -0.412  -0.694   2.492  0.00  0.00    +0.004 A 
BRANCH  16  23
ATOM     22  C   UNL     1      -0.489   1.323  -0.110  0.00  0.00    +0.009 C 
ATOM     23  C   UNL     1      -0.530  -0.198   0.042  0.00  0.00    +0.032 C 
ENDBRANCH  16  23
ENDBRANCH   1  19
TORSDOF 2
