REMARK  Name = ZINC01281276
REMARK  2 active torsions:
REMARK  status: ('A' for Active; 'I' for Inactive)
REMARK    1  A    between atoms: C_1  and  C_2
REMARK    2  A    between atoms: C_5  and  N_9
REMARK                            x       y       z     vdW  Elec       q    Type
REMARK                         _______ _______ _______ _____ _____    ______ ____
ROOT
ATOM      1  N   UNL     1       0.059  -4.170  -0.023  0.00  0.00    -0.284 N 
ATOM      2  C   UNL     1       0.564  -4.842  -1.105  0.00  0.00    +0.200 A 
ATOM      3  N   UNL     1       1.124  -4.163  -2.086  0.00  0.00    -0.224 NA
ATOM      4  C   UNL     1       1.627  -4.776  -3.155  0.00  0.00    +0.119 A 
ATOM      5  C   UNL     1       1.569  -6.136  -3.253  0.00  0.00    +0.090 A 
ATOM      6  C   UNL     1       0.973  -6.869  -2.212  0.00  0.00    +0.253 A 
ATOM      7  N   UNL     1       0.483  -6.200  -1.146  0.00  0.00    -0.295 N 
ATOM      8  O   UNL     1       0.905  -8.086  -2.267  0.00  0.00    -0.268 OA
ATOM      9  H   UNL     1      -0.276  -4.664   0.742  0.00  0.00    +0.155 HD
ATOM     10  H   UNL     1       0.071  -6.686  -0.414  0.00  0.00    +0.172 HD
ENDROOT
BRANCH   1  15
ATOM     11  C   UNL     1      -0.080   1.502  -0.018  0.00  0.00    +0.044 C 
ATOM     12  C   UNL     1      -0.043  -0.005  -0.018  0.00  0.00    -0.049 A 
ATOM     13  C   UNL     1      -0.040  -0.694  -1.217  0.00  0.00    +0.005 A 
ATOM     14  C   UNL     1      -0.006  -2.075  -1.222  0.00  0.00    +0.025 A 
ATOM     15  C   UNL     1       0.025  -2.772  -0.021  0.00  0.00    +0.048 A 
ATOM     16  C   UNL     1       0.022  -2.076   1.182  0.00  0.00    +0.039 A 
ATOM     17  C   UNL     1      -0.007  -0.695   1.179  0.00  0.00    +0.020 A 
ATOM     18 BR   UNL     1       0.063  -3.019   2.820  0.00  0.00    -0.048 Br
ENDBRANCH   1  15
TORSDOF 1
