REMARK  Name = ZINC15642950
REMARK  7 active torsions:
REMARK  status: ('A' for Active; 'I' for Inactive)
REMARK    1  A    between atoms: C_1  and  C_2
REMARK    2  A    between atoms: C_2  and  C_4
REMARK    3  A    between atoms: C_2  and  O_15
REMARK    4  A    between atoms: N_9  and  C_10
REMARK    5  A    between atoms: O_15  and  C_16
REMARK    6  A    between atoms: C_16  and  C_18
REMARK    7  A    between atoms: C_23  and  N_24
REMARK                            x       y       z     vdW  Elec       q    Type
REMARK                         _______ _______ _______ _____ _____    ______ ____
ROOT
ATOM      1  C   UNL     1      -0.062   1.466   0.001  0.00  0.00    +0.062 C 
ATOM      2  C   UNL     1      -0.010  -0.063  -0.013  0.00  0.00    +0.259 C 
ENDROOT
BRANCH   2   3
ATOM      3  C   UNL     1      -1.413  -0.614  -0.014  0.00  0.00    +0.261 C 
ATOM      4  O   UNL     1      -1.812  -1.257   0.933  0.00  0.00    -0.271 OA
ATOM      5  N   UNL     1      -2.224  -0.391  -1.067  0.00  0.00    -0.237 N 
ATOM      6  C   UNL     1      -3.478  -0.883  -1.067  0.00  0.00    +0.306 C 
ATOM      7  O   UNL     1      -3.878  -1.528  -0.118  0.00  0.00    -0.252 OA
ATOM      8  N   UNL     1      -4.290  -0.660  -2.120  0.00  0.00    -0.296 N 
ATOM      9  H   UNL     1      -1.905   0.124  -1.824  0.00  0.00    +0.159 HD
ATOM     10  H   UNL     1      -3.970  -0.145  -2.877  0.00  0.00    +0.151 HD
BRANCH   8  11
ATOM     11  C   UNL     1      -5.653  -1.195  -2.120  0.00  0.00    +0.074 C 
ATOM     12  C   UNL     1      -6.614  -0.195  -1.446  0.00  0.00    +0.022 C 
ATOM     13  C   UNL     1      -7.218   0.607  -2.626  0.00  0.00    +0.002 C 
ATOM     14  C   UNL     1      -7.394  -0.476  -3.719  0.00  0.00    +0.002 C 
ATOM     15  C   UNL     1      -6.149  -1.374  -3.566  0.00  0.00    +0.022 C 
ENDBRANCH   8  11
ENDBRANCH   2   3
BRANCH   2  16
ATOM     16  O   UNL     1       0.684  -0.527   1.147  0.00  0.00    -0.449 OA
BRANCH  16  17
ATOM     17  C   UNL     1       2.018  -0.684   1.040  0.00  0.00    +0.342 C 
ATOM     18  O   UNL     1       2.577  -0.434  -0.010  0.00  0.00    -0.245 OA
BRANCH  17  19
ATOM     19  C   UNL     1       2.798  -1.159   2.195  0.00  0.00    +0.082 A 
ATOM     20  C   UNL     1       2.182  -1.330   3.438  0.00  0.00    +0.037 A 
ATOM     21  C   UNL     1       2.917  -1.775   4.515  0.00  0.00    +0.043 A 
ATOM     22  C   UNL     1       4.269  -2.054   4.374  0.00  0.00    +0.042 A 
ATOM     23  C   UNL     1       4.892  -1.891   3.153  0.00  0.00    +0.064 A 
ATOM     24  C   UNL     1       4.164  -1.449   2.053  0.00  0.00    +0.057 A 
ATOM     25 CL   UNL     1       6.584  -2.243   2.989  0.00  0.00    -0.082 Cl
ATOM     26 CL   UNL     1       2.149  -1.986   6.058  0.00  0.00    -0.083 Cl
BRANCH  24  27
ATOM     27  N   UNL     1       4.788  -1.289   0.822  0.00  0.00    -0.356 N 
ATOM     28  H   UNL     1       4.301  -0.901   0.078  0.00  0.00    +0.142 HD
ATOM     29  H   UNL     1       5.711  -1.565   0.706  0.00  0.00    +0.142 HD
ENDBRANCH  24  27
ENDBRANCH  17  19
ENDBRANCH  16  17
ENDBRANCH   2  16
TORSDOF 6
