REMARK  Name = ZINC52958883
REMARK  7 active torsions:
REMARK  status: ('A' for Active; 'I' for Inactive)
REMARK    1  A    between atoms: C_1  and  C_2
REMARK    2  A    between atoms: C_2  and  C_3
REMARK    3  A    between atoms: C_2  and  N_10
REMARK    4  A    between atoms: C_11  and  C_13
REMARK    5  A    between atoms: N_15  and  C_27
REMARK    6  A    between atoms: C_17  and  C_18
REMARK    7  A    between atoms: C_21  and  N_24
REMARK                            x       y       z     vdW  Elec       q    Type
REMARK                         _______ _______ _______ _____ _____    ______ ____
ROOT
ATOM      1  C   UNL     1      -3.423  -0.875  -1.774  0.00  0.00    +0.082 A 
ATOM      2  C   UNL     1      -4.393  -1.172  -0.839  0.00  0.00    +0.121 A 
ATOM      3  N   UNL     1      -5.423  -1.744  -1.481  0.00  0.00    -0.273 N 
ATOM      4  N   UNL     1      -5.139  -1.827  -2.846  0.00  0.00    -0.171 NA
ATOM      5  C   UNL     1      -3.951  -1.312  -3.070  0.00  0.00    +0.105 A 
ATOM      6  C   UNL     1      -6.659  -2.209  -0.846  0.00  0.00    +0.172 C 
ENDROOT
BRANCH   5   7
ATOM      7  C   UNL     1      -3.272  -1.198  -4.383  0.00  0.00    +0.003 A 
ATOM      8  C   UNL     1      -1.924  -1.533  -4.505  0.00  0.00    +0.012 A 
ATOM      9  C   UNL     1      -1.297  -1.425  -5.730  0.00  0.00    +0.033 A 
ATOM     10  C   UNL     1      -2.003  -0.986  -6.835  0.00  0.00    +0.126 A 
ATOM     11  C   UNL     1      -3.341  -0.652  -6.720  0.00  0.00    +0.033 A 
ATOM     12  C   UNL     1      -3.980  -0.761  -5.501  0.00  0.00    +0.012 A 
BRANCH  10  13
ATOM     13  N   UNL     1      -1.325  -0.872  -8.146  0.00  0.00    +0.056 N 
ATOM     14  O   UNL     1      -0.157  -1.163  -8.249  0.00  0.00    -0.126 OA
ATOM     15  O   UNL     1      -1.940  -0.488  -9.113  0.00  0.00    -0.126 OA
ENDBRANCH  10  13
ENDBRANCH   5   7
BRANCH   1  17
ATOM     16  N   UNL     1      -1.722   0.004  -0.257  0.00  0.00    -0.305 N 
ATOM     17  C   UNL     1      -2.119  -0.240  -1.521  0.00  0.00    +0.248 C 
ATOM     18  O   UNL     1      -1.400   0.065  -2.454  0.00  0.00    -0.270 OA
ATOM     19  H   UNL     1      -2.295  -0.239   0.487  0.00  0.00    +0.150 HD
BRANCH  16  21
ATOM     20  C   UNL     1      -0.590   2.158  -0.003  0.00  0.00    +0.033 C 
ATOM     21  C   UNL     1      -0.424   0.637  -0.005  0.00  0.00    +0.102 C 
BRANCH  21  22
ATOM     22  C   UNL     1       0.103   0.186   1.333  0.00  0.00    -0.009 A 
ATOM     23  C   UNL     1      -0.776  -0.194   2.330  0.00  0.00    +0.007 A 
ATOM     24  C   UNL     1      -0.292  -0.607   3.557  0.00  0.00    +0.000 A 
ATOM     25  C   UNL     1       1.071  -0.639   3.788  0.00  0.00    +0.001 A 
ATOM     26  C   UNL     1       1.950  -0.259   2.792  0.00  0.00    +0.020 A 
ATOM     27  C   UNL     1       1.467   0.149   1.562  0.00  0.00    +0.046 A 
ATOM     28 CL   UNL     1       2.571   0.620   0.308  0.00  0.00    -0.083 Cl
ENDBRANCH  21  22
ENDBRANCH  16  21
ENDBRANCH   1  17
TORSDOF 5
