REMARK  Name = ZINC06744564
REMARK  6 active torsions:
REMARK  status: ('A' for Active; 'I' for Inactive)
REMARK    1  A    between atoms: C_2  and  C_3
REMARK    2  A    between atoms: C_3  and  N_4
REMARK    3  A    between atoms: C_5  and  C_22
REMARK    4  A    between atoms: C_8  and  C_15
REMARK    5  A    between atoms: C_20  and  O_21
REMARK    6  A    between atoms: C_25  and  O_28
REMARK                            x       y       z     vdW  Elec       q    Type
REMARK                         _______ _______ _______ _____ _____    ______ ____
ROOT
ATOM      1  N   UNL     1       1.216  -1.589   1.181  0.00  0.00    -0.281 N 
ATOM      2  C   UNL     1       1.727  -1.351   2.538  0.00  0.00    +0.142 C 
ATOM      3  C   UNL     1       1.657  -2.676   3.247  0.00  0.00    +0.035 A 
ATOM      4  C   UNL     1       1.886  -3.397   4.424  0.00  0.00    +0.102 A 
ATOM      5  N   UNL     1       1.521  -4.644   4.200  0.00  0.00    -0.173 NA
ATOM      6  N   UNL     1       1.085  -4.781   2.998  0.00  0.00    -0.272 N 
ATOM      7  H   UNL     1       0.763  -5.612   2.614  0.00  0.00    +0.189 HD
ATOM      8  C   UNL     1       1.143  -3.584   2.343  0.00  0.00    +0.126 A 
ATOM      9  C   UNL     1       0.875  -2.886   1.080  0.00  0.00    +0.266 C 
ATOM     10  O   UNL     1       0.413  -3.407   0.083  0.00  0.00    -0.268 OA
ENDROOT
BRANCH   4  11
ATOM     11  C   UNL     1       2.438  -2.857   5.692  0.00  0.00    +0.044 A 
ATOM     12  C   UNL     1       1.945  -1.666   6.218  0.00  0.00    +0.014 A 
ATOM     13  C   UNL     1       2.461  -1.169   7.398  0.00  0.00    +0.001 A 
ATOM     14  C   UNL     1       3.468  -1.849   8.059  0.00  0.00    +0.004 A 
ATOM     15  C   UNL     1       3.964  -3.032   7.545  0.00  0.00    +0.046 A 
ATOM     16  C   UNL     1       3.451  -3.546   6.365  0.00  0.00    +0.126 A 
BRANCH  16  17
ATOM     17  O   UNL     1       3.934  -4.711   5.862  0.00  0.00    -0.506 OA
ATOM     18  H   UNL     1       4.683  -4.599   5.260  0.00  0.00    +0.292 HD
ENDBRANCH  16  17
ENDBRANCH   4  11
BRANCH   2  19
ATOM     19  C   UNL     1       3.153  -0.868   2.478  0.00  0.00    -0.022 A 
ATOM     20  C   UNL     1       4.062  -1.502   1.651  0.00  0.00    +0.009 A 
ATOM     21  C   UNL     1       5.370  -1.061   1.595  0.00  0.00    +0.046 A 
ATOM     22  C   UNL     1       5.771   0.020   2.367  0.00  0.00    +0.117 A 
ATOM     23  C   UNL     1       4.857   0.654   3.195  0.00  0.00    +0.046 A 
ATOM     24  C   UNL     1       3.549   0.213   3.244  0.00  0.00    +0.009 A 
BRANCH  22  25
ATOM     25  O   UNL     1       7.057   0.455   2.314  0.00  0.00    -0.507 OA
ATOM     26  H   UNL     1       7.216   1.131   1.641  0.00  0.00    +0.292 HD
ENDBRANCH  22  25
ENDBRANCH   2  19
BRANCH   1  27
ATOM     27  C   UNL     1       1.093  -0.584   0.122  0.00  0.00    +0.135 C 
BRANCH  27  29
ATOM     28  C   UNL     1      -0.355   1.373   0.302  0.00  0.00    +0.005 C 
ATOM     29  C   UNL     1      -0.262   0.070   0.205  0.00  0.00    -0.016 C 
ENDBRANCH  27  29
ENDBRANCH   1  27
TORSDOF 6
