REMARK  Name = ZINC43553896
REMARK  14 active torsions:
REMARK  status: ('A' for Active; 'I' for Inactive)
REMARK    1  A    between atoms: C_1  and  C_2
REMARK    2  A    between atoms: C_2  and  C_3
REMARK    3  A    between atoms: C_3  and  N_4
REMARK    4  A    between atoms: C_5  and  O_7
REMARK    5  A    between atoms: O_7  and  C_8
REMARK    6  A    between atoms: C_12  and  C_36
REMARK    7  A    between atoms: C_15  and  C_16
REMARK    8  A    between atoms: C_15  and  C_17
REMARK    9  A    between atoms: C_17  and  O_18
REMARK   10  A    between atoms: C_21  and  O_35
REMARK   11  A    between atoms: C_23  and  C_25
REMARK   12  A    between atoms: C_25  and  C_26
REMARK   13  A    between atoms: N_28  and  C_29
REMARK   14  A    between atoms: C_29  and  C_30
REMARK                            x       y       z     vdW  Elec       q    Type
REMARK                         _______ _______ _______ _____ _____    ______ ____
ROOT
ATOM      1  C   UNL     1       1.169  -4.320  -4.044  0.00  0.00    +0.186 C 
ATOM      2  C   UNL     1       0.173  -4.903  -5.039  0.00  0.00    +0.046 C 
ATOM      3  C   UNL     1      -0.685  -5.963  -4.346  0.00  0.00    +0.011 C 
ATOM      4  C   UNL     1       0.209  -7.110  -3.871  0.00  0.00    -0.023 C 
ATOM      5  C   UNL     1       1.278  -6.588  -2.927  0.00  0.00    +0.007 C 
ATOM      6  C   UNL     1       2.065  -5.393  -3.429  0.00  0.00    +0.031 C 
ATOM      7  C   UNL     1       3.163  -5.784  -4.418  0.00  0.00    +0.017 C 
ATOM      8  C   UNL     1       2.191  -7.732  -2.484  0.00  0.00    +0.007 C 
ATOM      9  C   UNL     1       1.344  -8.757  -1.719  0.00  0.00    +0.032 C 
ATOM     10  C   UNL     1       0.233  -9.296  -2.615  0.00  0.00    +0.119 C 
ATOM     11  C   UNL     1      -0.642  -8.171  -3.164  0.00  0.00    +0.032 C 
ATOM     12  C   UNL     1       0.822  -7.783  -5.109  0.00  0.00    +0.012 C 
ENDROOT
BRANCH  10  13
ATOM     13  O   UNL     1      -0.588 -10.190  -1.849  0.00  0.00    -0.391 OA
ATOM     14  H   UNL     1      -0.112 -10.950  -1.488  0.00  0.00    +0.210 HD
ENDBRANCH  10  13
BRANCH   1  15
ATOM     15  O   UNL     1       0.462  -3.640  -3.001  0.00  0.00    -0.446 OA
BRANCH  15  17
ATOM     16  N   UNL     1      -0.489  -1.642  -2.261  0.00  0.00    -0.281 N 
ATOM     17  C   UNL     1       0.175  -2.340  -3.203  0.00  0.00    +0.401 C 
ATOM     18  O   UNL     1       0.514  -1.797  -4.236  0.00  0.00    -0.226 OA
ATOM     19  H   UNL     1      -0.760  -2.076  -1.437  0.00  0.00    +0.152 HD
BRANCH  16  20
ATOM     20  C   UNL     1      -0.801  -0.228  -2.481  0.00  0.00    +0.107 C 
BRANCH  20  22
ATOM     21  C   UNL     1      -1.879   1.801  -1.498  0.00  0.00    +0.005 C 
ATOM     22  C   UNL     1      -1.553   0.324  -1.268  0.00  0.00    +0.015 C 
ENDBRANCH  20  22
ENDBRANCH  16  20
ENDBRANCH  15  17
ENDBRANCH   1  15
BRANCH   6  23
ATOM     23  C   UNL     1       2.763  -4.738  -2.212  0.00  0.00    +0.166 C 
BRANCH  23  24
ATOM     24  O   UNL     1       3.535  -3.618  -2.651  0.00  0.00    -0.394 OA
ATOM     25  H   UNL     1       4.001  -3.158  -1.940  0.00  0.00    +0.209 HD
ENDBRANCH  23  24
ENDBRANCH   6  23
BRANCH  11  26
ATOM     26  C   UNL     1      -1.479  -7.567  -2.041  0.00  0.00    +0.102 C 
BRANCH  26  27
ATOM     27  C   UNL     1      -2.541  -8.551  -1.621  0.00  0.00    +0.214 C 
ATOM     28  O   UNL     1      -2.720  -9.562  -2.267  0.00  0.00    -0.276 OA
ATOM     29  N   UNL     1      -3.291  -8.307  -0.528  0.00  0.00    -0.311 N 
ATOM     30  H   UNL     1      -3.147  -7.499  -0.012  0.00  0.00    +0.149 HD
BRANCH  29  31
ATOM     31  C   UNL     1      -4.323  -9.263  -0.120  0.00  0.00    +0.146 C 
BRANCH  31  32
ATOM     32  C   UNL     1      -5.012  -8.759   1.121  0.00  0.00    +0.007 A 
ATOM     33  C   UNL     1      -6.111  -7.972   1.228  0.00  0.00    +0.013 A 
ATOM     34  C   UNL     1      -6.572  -7.632   2.486  0.00  0.00    +0.008 A 
ATOM     35  C   UNL     1      -5.912  -8.096   3.576  0.00  0.00    +0.045 A 
ATOM     36  S   UNL     1      -4.598  -9.050   2.834  0.00  0.00    -0.100 S 
ENDBRANCH  31  32
ENDBRANCH  29  31
ENDBRANCH  26  27
ENDBRANCH  11  26
TORSDOF 11
