REMARK  Name = ZINC44924784
REMARK  5 active torsions:
REMARK  status: ('A' for Active; 'I' for Inactive)
REMARK    1  A    between atoms: C_1  and  C_2
REMARK    2  A    between atoms: C_2  and  C_4
REMARK    3  A    between atoms: C_2  and  N_9
REMARK    4  A    between atoms: N_9  and  C_10
REMARK    5  A    between atoms: C_10  and  C_11
REMARK                            x       y       z     vdW  Elec       q    Type
REMARK                         _______ _______ _______ _____ _____    ______ ____
ROOT
ATOM      1  C   UNL     1       0.689  -0.618   3.619  0.00  0.00    -0.059 A 
ATOM      2  C   UNL     1       0.420  -1.882   4.114  0.00  0.00    +0.051 A 
ATOM      3  C   UNL     1       1.092  -2.338   5.235  0.00  0.00    +0.164 A 
ATOM      4  C   UNL     1       2.031  -1.529   5.859  0.00  0.00    +0.180 A 
ATOM      5  C   UNL     1       2.299  -0.265   5.362  0.00  0.00    +0.086 A 
ATOM      6  C   UNL     1       1.628   0.186   4.237  0.00  0.00    +0.025 A 
ATOM      7 CL   UNL     1       3.473   0.749   6.141  0.00  0.00    -0.080 Cl
ATOM      8  O   UNL     1       2.688  -1.988   6.964  0.00  0.00    -0.487 OA
ATOM      9  C   UNL     1       1.893  -2.153   8.140  0.00  0.00    +0.232 C 
ATOM     10  C   UNL     1       1.193  -3.503   8.133  0.00  0.00    +0.082 C 
ATOM     11  C   UNL     1       0.183  -3.625   7.003  0.00  0.00    +0.232 C 
ATOM     12  O   UNL     1       0.836  -3.582   5.733  0.00  0.00    -0.488 OA
ENDROOT
BRANCH   1  13
ATOM     13  C   UNL     1      -0.040  -0.119   2.398  0.00  0.00    -0.046 C 
BRANCH  13  14
ATOM     14  N   UNL     1       0.713  -0.491   1.192  0.00  0.00    +0.388 N 
ATOM     15  H   UNL     1       0.798  -1.495   1.145  0.00  0.00    -0.084 HD
ATOM     16  H   UNL     1       1.632  -0.076   1.228  0.00  0.00    -0.084 HD
BRANCH  14  18
ATOM     17  C   UNL     1      -0.019   1.526   0.010  0.00  0.00    -0.006 C 
ATOM     18  C   UNL     1       0.002  -0.004   0.002  0.00  0.00    -0.001 C 
BRANCH  18  19
ATOM     19  C   UNL     1       0.707  -0.490  -1.238  0.00  0.00    +0.163 A 
ATOM     20  N   UNL     1       0.141  -1.015  -2.315  0.00  0.00    -0.113 NA
ATOM     21  N   UNL     1       1.081  -1.301  -3.149  0.00  0.00    -0.021 NA
ATOM     22  N   UNL     1       2.214  -0.974  -2.633  0.00  0.00    -0.021 NA
ATOM     23  N   UNL     1       2.013  -0.470  -1.463  0.00  0.00    -0.113 NA
ENDBRANCH  18  19
ENDBRANCH  14  18
ENDBRANCH  13  14
ENDBRANCH   1  13
TORSDOF 4
