REMARK  Name = ZINC64749341
REMARK  4 active torsions:
REMARK  status: ('A' for Active; 'I' for Inactive)
REMARK    1  A    between atoms: C_1  and  N_2
REMARK    2  A    between atoms: C_11  and  C_13
REMARK    3  A    between atoms: N_15  and  N_16
REMARK    4  A    between atoms: C_17  and  C_19
REMARK                            x       y       z     vdW  Elec       q    Type
REMARK                         _______ _______ _______ _____ _____    ______ ____
ROOT
ATOM      1  C   UNL     1       0.063  -3.003   4.780  0.00  0.00    +0.260 C 
ATOM      2  O   UNL     1      -0.444  -4.107   4.808  0.00  0.00    -0.269 OA
ATOM      3  N   UNL     1       0.641  -2.498   5.888  0.00  0.00    -0.230 N 
ATOM      4  H   UNL     1       1.046  -1.617   5.865  0.00  0.00    +0.173 HD
ENDROOT
BRANCH   1  15
ATOM      5  C   UNL     1      -0.018   1.461   0.010  0.00  0.00    +0.130 C 
ATOM      6  N   UNL     1       0.002  -0.004   0.002  0.00  0.00    -0.323 N 
ATOM      7  C   UNL     1       0.006  -0.755  -1.262  0.00  0.00    +0.200 C 
ATOM      8  C   UNL     1      -0.935  -1.926  -1.142  0.00  0.00    +0.235 C 
ATOM      9  O   UNL     1      -1.492  -2.352  -2.132  0.00  0.00    -0.274 OA
ATOM     10  N   UNL     1      -1.166  -2.504   0.052  0.00  0.00    -0.283 N 
ATOM     11  C   UNL     1      -0.572  -1.999   1.216  0.00  0.00    +0.055 A 
ATOM     12  C   UNL     1       0.023  -0.730   1.194  0.00  0.00    +0.051 A 
ATOM     13  C   UNL     1       0.616  -0.210   2.334  0.00  0.00    +0.026 A 
ATOM     14  C   UNL     1       0.629  -0.946   3.500  0.00  0.00    +0.015 A 
ATOM     15  C   UNL     1       0.046  -2.215   3.532  0.00  0.00    +0.040 A 
ATOM     16  C   UNL     1      -0.565  -2.740   2.380  0.00  0.00    +0.038 A 
ATOM     17  H   UNL     1      -1.749  -3.277   0.106  0.00  0.00    +0.155 HD
ENDBRANCH   1  15
BRANCH   3  18
ATOM     18  N   UNL     1       0.658  -3.246   7.072  0.00  0.00    -0.229 N 
ATOM     19  C   UNL     1       1.236  -2.741   8.180  0.00  0.00    +0.276 C 
ATOM     20  O   UNL     1       1.744  -1.636   8.151  0.00  0.00    -0.267 OA
ATOM     21  H   UNL     1       0.253  -4.127   7.095  0.00  0.00    +0.173 HD
BRANCH  19  22
ATOM     22  C   UNL     1       1.253  -3.524   9.420  0.00  0.00    +0.104 A 
ATOM     23  C   UNL     1       1.801  -3.133  10.623  0.00  0.00    +0.047 A 
ATOM     24  C   UNL     1       1.594  -4.179  11.529  0.00  0.00    +0.036 A 
ATOM     25  C   UNL     1       0.937  -5.169  10.877  0.00  0.00    +0.098 A 
ATOM     26  N   UNL     1       0.720  -4.781   9.596  0.00  0.00    -0.356 N 
ATOM     27  H   UNL     1       0.266  -5.303   8.916  0.00  0.00    +0.166 HD
ATOM     28 BR   UNL     1       2.134  -4.206  13.341  0.00  0.00    -0.049 Br
ENDBRANCH  19  22
ENDBRANCH   3  18
TORSDOF 3
