REMARK  Name = ZINC35693066
REMARK  11 active torsions:
REMARK  status: ('A' for Active; 'I' for Inactive)
REMARK    1  A    between atoms: C_1  and  C_2
REMARK    2  A    between atoms: C_3  and  C_31
REMARK    3  A    between atoms: C_4  and  C_21
REMARK    4  A    between atoms: C_7  and  C_12
REMARK    5  A    between atoms: C_13  and  N_15
REMARK    6  A    between atoms: C_24  and  C_27
REMARK    7  A    between atoms: C_31  and  O_33
REMARK    8  A    between atoms: O_33  and  C_34
REMARK    9  A    between atoms: C_34  and  C_35
REMARK   10  A    between atoms: C_35  and  O_36
REMARK   11  A    between atoms: O_36  and  C_37
REMARK                            x       y       z     vdW  Elec       q    Type
REMARK                         _______ _______ _______ _____ _____    ______ ____
ROOT
ATOM      1  C   UNL     1       0.450   0.889   1.375  0.00  0.00    +0.066 C 
ATOM      2  C   UNL     1       0.361  -0.529   0.874  0.00  0.00    +0.053 C 
ATOM      3  C   UNL     1      -0.871  -1.145   0.772  0.00  0.00    +0.082 C 
ATOM      4  C   UNL     1      -0.908  -2.569   0.263  0.00  0.00    +0.150 C 
ATOM      5  N   UNL     1       0.394  -3.195  -0.090  0.00  0.00    -0.267 N 
ATOM      6  C   UNL     1       0.598  -4.473  -0.571  0.00  0.00    +0.048 C 
ATOM      7  C   UNL     1       1.869  -4.849  -0.832  0.00  0.00    +0.072 C 
ATOM      8  S   UNL     1       2.784  -3.385  -0.393  0.00  0.00    -0.060 S 
ATOM      9  C   UNL     1       1.501  -2.413   0.083  0.00  0.00    +0.166 C 
ATOM     10  N   UNL     1       1.464  -1.174   0.528  0.00  0.00    -0.230 NA
ENDROOT
BRANCH   4  11
ATOM     11  C   UNL     1      -1.561  -3.423   1.319  0.00  0.00    -0.022 A 
ATOM     12  C   UNL     1      -0.877  -3.730   2.480  0.00  0.00    +0.006 A 
ATOM     13  C   UNL     1      -1.477  -4.513   3.449  0.00  0.00    +0.013 A 
ATOM     14  C   UNL     1      -2.760  -4.989   3.256  0.00  0.00    +0.055 A 
ATOM     15  C   UNL     1      -3.445  -4.681   2.095  0.00  0.00    +0.013 A 
ATOM     16  C   UNL     1      -2.847  -3.895   1.128  0.00  0.00    +0.006 A 
BRANCH  14  17
ATOM     17  C   UNL     1      -3.413  -5.844   4.312  0.00  0.00    +0.417 C 
ATOM     18  F   UNL     1      -4.103  -5.026   5.213  0.00  0.00    -0.166 F 
ATOM     19  F   UNL     1      -4.310  -6.730   3.705  0.00  0.00    -0.166 F 
ATOM     20  F   UNL     1      -2.433  -6.569   4.997  0.00  0.00    -0.166 F 
ENDBRANCH  14  17
ENDBRANCH   4  11
BRANCH   6  21
ATOM     21  C   UNL     1      -0.528  -5.392  -0.792  0.00  0.00    +0.091 C 
ATOM     22  C   UNL     1      -0.294  -6.673  -1.138  0.00  0.00    +0.241 C 
ATOM     23  O   UNL     1       0.975  -7.148  -1.159  0.00  0.00    -0.271 OA
BRANCH  22  24
ATOM     24  N   UNL     1      -1.350  -7.503  -1.473  0.00  0.00    -0.294 N 
ATOM     25  C   UNL     1      -2.583  -6.960  -2.066  0.00  0.00    +0.136 C 
ATOM     26  C   UNL     1      -2.912  -7.769  -3.325  0.00  0.00    +0.179 C 
ATOM     27  O   UNL     1      -2.924  -9.161  -3.000  0.00  0.00    -0.377 OA
ATOM     28  C   UNL     1      -1.666  -9.668  -2.547  0.00  0.00    +0.179 C 
ATOM     29  C   UNL     1      -1.271  -8.956  -1.253  0.00  0.00    +0.136 C 
ENDBRANCH  22  24
ENDBRANCH   6  21
BRANCH   3  30
ATOM     30  C   UNL     1      -2.047  -0.474   1.130  0.00  0.00    +0.339 C 
ATOM     31  O   UNL     1      -1.994   0.672   1.538  0.00  0.00    -0.245 OA
BRANCH  30  32
ATOM     32  O   UNL     1      -3.241  -1.099   1.022  0.00  0.00    -0.459 OA
BRANCH  32  33
ATOM     33  C   UNL     1      -4.399  -0.354   1.404  0.00  0.00    +0.260 C 
BRANCH  33  34
ATOM     34  C   UNL     1      -5.647  -1.219   1.214  0.00  0.00    +0.200 C 
BRANCH  34  35
ATOM     35  O   UNL     1      -5.598  -2.330   2.112  0.00  0.00    -0.380 OA
ATOM     36  C   UNL     1      -6.723  -3.205   2.016  0.00  0.00    +0.194 C 
ENDBRANCH  34  35
ENDBRANCH  33  34
ENDBRANCH  32  33
ENDBRANCH  30  32
ENDBRANCH   3  30
TORSDOF 9
