REMARK  Name = ZINC00242016
REMARK  9 active torsions:
REMARK  status: ('A' for Active; 'I' for Inactive)
REMARK    1  A    between atoms: C_1  and  C_2
REMARK    2  A    between atoms: C_2  and  C_3
REMARK    3  A    between atoms: C_4  and  C_20
REMARK    4  A    between atoms: C_5  and  C_13
REMARK    5  A    between atoms: C_7  and  C_11
REMARK    6  A    between atoms: C_8  and  N_10
REMARK    7  A    between atoms: C_20  and  O_22
REMARK    8  A    between atoms: O_22  and  C_23
REMARK    9  A    between atoms: C_23  and  C_24
REMARK                            x       y       z     vdW  Elec       q    Type
REMARK                         _______ _______ _______ _____ _____    ______ ____
ROOT
ATOM      1  C   UNL     1      -0.736   3.087   1.251  0.00  0.00    +0.118 C 
ATOM      2  C   UNL     1      -1.776   3.722   0.697  0.00  0.00    +0.087 C 
ATOM      3  C   UNL     1      -1.866   5.224   0.709  0.00  0.00    +0.105 C 
ATOM      4  C   UNL     1      -0.899   5.785   1.716  0.00  0.00    +0.098 C 
ATOM      5  C   UNL     1       0.104   5.021   2.213  0.00  0.00    +0.198 C 
ATOM      6  O   UNL     1       0.279   3.745   1.830  0.00  0.00    -0.445 OA
ENDROOT
BRANCH   3   7
ATOM      7  C   UNL     1      -1.524   5.751  -0.661  0.00  0.00    -0.034 A 
ATOM      8  C   UNL     1      -0.279   5.498  -1.207  0.00  0.00    +0.007 A 
ATOM      9  C   UNL     1       0.033   5.976  -2.466  0.00  0.00    +0.038 A 
ATOM     10  C   UNL     1      -0.896   6.718  -3.175  0.00  0.00    +0.123 A 
ATOM     11  C   UNL     1      -2.141   6.975  -2.624  0.00  0.00    +0.038 A 
ATOM     12  C   UNL     1      -2.453   6.491  -1.368  0.00  0.00    +0.007 A 
ATOM     13  F   UNL     1      -0.590   7.191  -4.402  0.00  0.00    -0.205 F 
ENDBRANCH   3   7
BRANCH   5  14
ATOM     14  N   UNL     1       0.965   5.567   3.133  0.00  0.00    -0.328 N 
ATOM     15  H   UNL     1       1.688   5.032   3.497  0.00  0.00    +0.145 HD
ATOM     16  H   UNL     1       0.851   6.487   3.418  0.00  0.00    +0.145 HD
ENDBRANCH   5  14
BRANCH   1  18
ATOM     17  C   UNL     1      -1.538   1.024   2.369  0.00  0.00    +0.012 C 
ATOM     18  C   UNL     1      -0.700   1.581   1.216  0.00  0.00    +0.071 C 
ENDBRANCH   1  18
BRANCH   4  19
ATOM     19  C   UNL     1      -1.042   7.140   2.155  0.00  0.00    +0.101 C 
ATOM     20  N   UNL     1      -1.155   8.216   2.504  0.00  0.00    -0.191 NA
ENDBRANCH   4  19
BRANCH   2  21
ATOM     21  C   UNL     1      -2.812   2.967   0.095  0.00  0.00    +0.339 C 
ATOM     22  O   UNL     1      -2.812   1.753   0.184  0.00  0.00    -0.245 OA
BRANCH  21  23
ATOM     23  O   UNL     1      -3.800   3.593  -0.578  0.00  0.00    -0.462 OA
BRANCH  23  24
ATOM     24  C   UNL     1      -4.812   2.769  -1.160  0.00  0.00    +0.229 C 
ATOM     25  C   UNL     1      -5.838   3.651  -1.876  0.00  0.00    +0.048 C 
ENDBRANCH  23  24
ENDBRANCH  21  23
ENDBRANCH   2  21
TORSDOF 7
