REMARK  Name = ZINC40719022
REMARK  9 active torsions:
REMARK  status: ('A' for Active; 'I' for Inactive)
REMARK    1  A    between atoms: C_1  and  C_2
REMARK    2  A    between atoms: N_17  and  C_18
REMARK    3  A    between atoms: C_26  and  C_41
REMARK    4  A    between atoms: C_29  and  O_40
REMARK    5  A    between atoms: C_32  and  C_39
REMARK    6  A    between atoms: C_33  and  C_34
REMARK    7  A    between atoms: C_33  and  O_38
REMARK    8  A    between atoms: C_34  and  C_36
REMARK    9  A    between atoms: C_36  and  O_37
REMARK                            x       y       z     vdW  Elec       q    Type
REMARK                         _______ _______ _______ _____ _____    ______ ____
ROOT
ATOM      1  C   UNL     1      -0.483   1.520  -0.025  0.00  0.00    +0.011 C 
ATOM      2  C   UNL     1      -0.355  -0.004  -0.066  0.00  0.00    +0.026 C 
ATOM      3  C   UNL     1      -1.725  -0.669   0.132  0.00  0.00    +0.011 C 
ATOM      4  C   UNL     1      -1.596  -1.654   1.313  0.00  0.00    +0.002 C 
ATOM      5  C   UNL     1      -2.416  -1.149   2.492  0.00  0.00    -0.001 C 
ATOM      6  C   UNL     1      -2.361   0.361   2.651  0.00  0.00    +0.008 C 
ATOM      7  C   UNL     1      -3.303   0.812   3.777  0.00  0.00    +0.031 C 
ATOM      8  C   UNL     1      -2.936   0.037   5.033  0.00  0.00    -0.061 C 
ATOM      9  C   UNL     1      -2.654   0.750   6.121  0.00  0.00    +0.028 C 
ATOM     10  C   UNL     1      -2.276   0.030   7.345  0.00  0.00    +0.071 A 
ATOM     11  C   UNL     1      -2.226  -1.355   7.376  0.00  0.00    -0.001 A 
ATOM     12  C   UNL     1      -1.839  -1.724   8.658  0.00  0.00    +0.139 A 
ATOM     13  N   UNL     1      -1.661  -0.639   9.373  0.00  0.00    -0.174 NA
ATOM     14  N   UNL     1      -1.928   0.483   8.571  0.00  0.00    -0.231 N 
ATOM     15  C   UNL     1      -2.547  -2.220   6.199  0.00  0.00    +0.050 C 
ATOM     16  C   UNL     1      -2.909  -1.451   4.951  0.00  0.00    -0.001 C 
ATOM     17  C   UNL     1      -2.045  -1.890   3.768  0.00  0.00    +0.031 C 
ATOM     18  C   UNL     1      -0.570  -1.680   4.095  0.00  0.00    +0.119 C 
ATOM     19  C   UNL     1       0.311  -2.180   2.966  0.00  0.00    +0.041 C 
ATOM     20  C   UNL     1      -0.099  -1.793   1.573  0.00  0.00    +0.009 C 
ATOM     21  C   UNL     1       0.560  -0.498   1.074  0.00  0.00    +0.134 C 
ATOM     22  C   UNL     1       0.411  -2.927   0.644  0.00  0.00    +0.015 C 
ATOM     23  C   UNL     1      -4.340  -1.890   4.627  0.00  0.00    +0.016 C 
ENDROOT
BRANCH  14  24
ATOM     24  C   UNL     1      -1.845   1.823   8.971  0.00  0.00    +0.084 A 
ATOM     25  C   UNL     1      -2.187   2.195  10.269  0.00  0.00    +0.032 A 
ATOM     26  C   UNL     1      -2.089   3.531  10.618  0.00  0.00    +0.042 A 
ATOM     27  C   UNL     1      -1.659   4.447   9.673  0.00  0.00    +0.129 A 
ATOM     28  N   UNL     1      -1.343   4.061   8.451  0.00  0.00    -0.241 NA
ATOM     29  C   UNL     1      -1.416   2.798   8.081  0.00  0.00    +0.140 A 
ATOM     30 CL   UNL     1      -1.533   6.124  10.101  0.00  0.00    -0.062 Cl
ENDBRANCH  14  24
BRANCH  21  31
ATOM     31  C   UNL     1       1.936  -0.806   0.518  0.00  0.00    +0.190 C 
ATOM     32  O   UNL     1       2.067  -1.083  -0.650  0.00  0.00    -0.292 OA
BRANCH  31  33
ATOM     33  C   UNL     1       3.141  -0.766   1.422  0.00  0.00    +0.233 C 
BRANCH  33  34
ATOM     34  O   UNL     1       4.312  -1.091   0.670  0.00  0.00    -0.387 OA
ATOM     35  H   UNL     1       5.128  -1.085   1.189  0.00  0.00    +0.210 HD
ENDBRANCH  33  34
ENDBRANCH  31  33
ENDBRANCH  21  31
BRANCH  21  36
ATOM     36  O   UNL     1       0.674   0.480   2.105  0.00  0.00    -0.380 OA
ATOM     37  H   UNL     1       1.065   1.315   1.813  0.00  0.00    +0.211 HD
ENDBRANCH  21  36
BRANCH  18  38
ATOM     38  O   UNL     1      -0.283  -0.322   4.415  0.00  0.00    -0.391 OA
ATOM     39  H   UNL     1       0.645  -0.156   4.627  0.00  0.00    +0.210 HD
ENDBRANCH  18  38
TORSDOF 6
