REMARK  Name = ZINC65399175
REMARK  4 active torsions:
REMARK  status: ('A' for Active; 'I' for Inactive)
REMARK    1  A    between atoms: C_4  and  C_7
REMARK    2  A    between atoms: C_7  and  C_9
REMARK    3  A    between atoms: C_7  and  N_16
REMARK    4  A    between atoms: C_17  and  C_19
REMARK                            x       y       z     vdW  Elec       q    Type
REMARK                         _______ _______ _______ _____ _____    ______ ____
ROOT
ATOM      1  C   UNL     1       3.711  -0.707  -0.038  0.00  0.00    +0.135 C 
ENDROOT
BRANCH   1   2
ATOM      2  C   UNL     1       4.019  -1.168  -1.464  0.00  0.00    +0.178 C 
ATOM      3  N   UNL     1       5.295  -1.916  -1.525  0.00  0.00    -0.251 N 
ATOM      4  N   UNL     1       6.274  -1.343  -2.305  0.00  0.00    -0.164 NA
ATOM      5  C   UNL     1       6.112  -0.229  -2.948  0.00  0.00    +0.170 C 
ATOM      6  S   UNL     1       4.438   0.256  -2.552  0.00  0.00    -0.063 S 
ATOM      7  N   UNL     1       7.026   0.433  -3.757  0.00  0.00    -0.337 N 
ATOM      8  H   UNL     1       5.431  -2.750  -1.049  0.00  0.00    +0.169 HD
ATOM      9  H   UNL     1       7.911   0.062  -3.893  0.00  0.00    +0.144 HD
ATOM     10  H   UNL     1       6.779   1.268  -4.185  0.00  0.00    +0.144 HD
ENDBRANCH   1   2
BRANCH   1  14
ATOM     11  C   UNL     1      -0.017   1.378   0.010  0.00  0.00    +0.000 A 
ATOM     12  C   UNL     1       1.171   2.086   0.002  0.00  0.00    +0.000 A 
ATOM     13  C   UNL     1       2.377   1.411  -0.013  0.00  0.00    +0.005 A 
ATOM     14  C   UNL     1       2.396   0.029  -0.020  0.00  0.00    -0.025 A 
ATOM     15  C   UNL     1       1.208  -0.679  -0.012  0.00  0.00    +0.005 A 
ATOM     16  C   UNL     1       0.002  -0.004   0.002  0.00  0.00    +0.000 A 
ENDBRANCH   1  14
BRANCH   1  17
ATOM     17  N   UNL     1       3.630  -1.873   0.845  0.00  0.00    -0.304 N 
ATOM     18  C   UNL     1       3.871  -1.738   2.164  0.00  0.00    +0.242 C 
ATOM     19  O   UNL     1       4.155  -0.651   2.621  0.00  0.00    -0.273 OA
ATOM     20  H   UNL     1       3.403  -2.743   0.480  0.00  0.00    +0.149 HD
BRANCH  18  21
ATOM     21  C   UNL     1       3.788  -2.938   3.073  0.00  0.00    +0.215 C 
ATOM     22  C   UNL     1       2.346  -3.218   3.436  0.00  0.00    +0.026 C 
ATOM     23  C   UNL     1       2.272  -3.104   4.753  0.00  0.00    +0.036 A 
ATOM     24  C   UNL     1       3.594  -2.756   5.328  0.00  0.00    +0.074 A 
ATOM     25  N   UNL     1       4.473  -2.663   4.337  0.00  0.00    -0.266 NA
ATOM     26  C   UNL     1       3.569  -2.618   6.778  0.00  0.00    +0.035 A 
ATOM     27  C   UNL     1       2.422  -2.804   7.444  0.00  0.00    +0.048 A 
ATOM     28  S   UNL     1       1.224  -3.192   6.184  0.00  0.00    -0.095 S 
ENDBRANCH  18  21
ENDBRANCH   1  17
TORSDOF 4
