REMARK  Name = ZINC01060233
REMARK  7 active torsions:
REMARK  status: ('A' for Active; 'I' for Inactive)
REMARK    1  A    between atoms: C_1  and  C_2
REMARK    2  A    between atoms: C_3  and  N_9
REMARK    3  A    between atoms: C_12  and  C_19
REMARK    4  A    between atoms: C_14  and  C_17
REMARK    5  A    between atoms: C_15  and  N_16
REMARK    6  A    between atoms: C_22  and  S_25
REMARK    7  A    between atoms: S_25  and  C_26
REMARK                            x       y       z     vdW  Elec       q    Type
REMARK                         _______ _______ _______ _____ _____    ______ ____
ROOT
ATOM      1  N   UNL     1      -0.017   1.372   0.010  0.00  0.00    -0.260 N 
ATOM      2  C   UNL     1       1.154   2.085   0.002  0.00  0.00    +0.024 C 
ATOM      3  C   UNL     1       2.315   1.504   0.373  0.00  0.00    +0.025 C 
ATOM      4  C   UNL     1       2.353   0.064   0.819  0.00  0.00    +0.097 C 
ATOM      5  C   UNL     1       1.123  -0.672   0.380  0.00  0.00    +0.077 C 
ATOM      6  C   UNL     1       0.002  -0.004   0.002  0.00  0.00    +0.107 C 
ATOM      7  C   UNL     1       3.523   2.223   0.354  0.00  0.00    +0.162 C 
ATOM      8  O   UNL     1       4.550   1.672   0.700  0.00  0.00    -0.292 OA
ATOM      9  C   UNL     1       3.570   3.659  -0.090  0.00  0.00    +0.080 C 
ATOM     10  C   UNL     1       2.436   3.910  -1.090  0.00  0.00    +0.014 C 
ATOM     11  C   UNL     1       1.111   3.531  -0.426  0.00  0.00    +0.052 C 
ENDROOT
BRANCH   1  14
ATOM     12  C   UNL     1      -1.205   2.036  -2.490  0.00  0.00    +0.047 C 
ATOM     13  C   UNL     1      -1.856   2.393  -1.178  0.00  0.00    -0.010 A 
ATOM     14  C   UNL     1      -1.241   2.050   0.019  0.00  0.00    +0.044 A 
ATOM     15  C   UNL     1      -1.847   2.375   1.226  0.00  0.00    +0.024 A 
ATOM     16  C   UNL     1      -3.053   3.050   1.232  0.00  0.00    +0.003 A 
ATOM     17  C   UNL     1      -3.663   3.390   0.039  0.00  0.00    +0.020 A 
ATOM     18  C   UNL     1      -3.065   3.062  -1.165  0.00  0.00    +0.046 A 
ATOM     19 CL   UNL     1      -3.834   3.493  -2.661  0.00  0.00    -0.083 Cl
ENDBRANCH   1  14
BRANCH   4  20
ATOM     20  C   UNL     1       2.448   0.015   2.323  0.00  0.00    -0.035 A 
ATOM     21  C   UNL     1       1.438   0.558   3.095  0.00  0.00    +0.005 A 
ATOM     22  C   UNL     1       1.518   0.510   4.473  0.00  0.00    +0.015 A 
ATOM     23  C   UNL     1       2.622  -0.075   5.083  0.00  0.00    +0.008 A 
ATOM     24  C   UNL     1       3.637  -0.615   4.303  0.00  0.00    +0.015 A 
ATOM     25  C   UNL     1       3.547  -0.568   2.926  0.00  0.00    +0.005 A 
BRANCH  23  26
ATOM     26  S   UNL     1       2.732  -0.133   6.840  0.00  0.00    -0.129 S 
ATOM     27  C   UNL     1       1.209   0.676   7.403  0.00  0.00    +0.090 C 
ENDBRANCH  23  26
ENDBRANCH   4  20
BRANCH   6  28
ATOM     28  N   UNL     1      -1.115  -0.703  -0.389  0.00  0.00    -0.345 N 
ATOM     29  H   UNL     1      -1.915  -0.227  -0.659  0.00  0.00    +0.144 HD
ATOM     30  H   UNL     1      -1.103  -1.673  -0.394  0.00  0.00    +0.144 HD
ENDBRANCH   6  28
BRANCH   5  31
ATOM     31  C   UNL     1       1.129  -2.104   0.358  0.00  0.00    +0.099 C 
ATOM     32  N   UNL     1       1.134  -3.240   0.341  0.00  0.00    -0.191 NA
ENDBRANCH   5  31
TORSDOF 5
