REMARK  Name = ZINC66246976
REMARK  4 active torsions:
REMARK  status: ('A' for Active; 'I' for Inactive)
REMARK    1  A    between atoms: C_1  and  C_2
REMARK    2  A    between atoms: N_7  and  S_8
REMARK    3  A    between atoms: S_8  and  C_11
REMARK    4  A    between atoms: C_16  and  N_17
REMARK                            x       y       z     vdW  Elec       q    Type
REMARK                         _______ _______ _______ _____ _____    ______ ____
ROOT
ATOM      1  S   UNL     1      -1.172  -6.138   1.709  0.00  0.00    +0.103 S 
ATOM      2  O   UNL     1      -2.580  -6.178   1.893  0.00  0.00    -0.146 OA
ATOM      3  O   UNL     1      -0.470  -7.139   0.984  0.00  0.00    -0.146 OA
ENDROOT
BRANCH   1  10
ATOM      4  C   UNL     1      -1.456  -2.141  -3.176  0.00  0.00    +0.064 C 
ATOM      5  C   UNL     1      -1.623  -3.347  -2.288  0.00  0.00    +0.022 A 
ATOM      6  C   UNL     1      -2.297  -4.409  -2.729  0.00  0.00    +0.069 A 
ATOM      7  S   UNL     1      -2.202  -5.519  -1.334  0.00  0.00    -0.057 S 
ATOM      8  C   UNL     1      -1.254  -4.466  -0.247  0.00  0.00    +0.192 A 
ATOM      9  N   UNL     1      -1.079  -3.350  -1.037  0.00  0.00    -0.336 N 
ATOM     10  N   UNL     1      -0.832  -4.694   0.972  0.00  0.00    -0.103 NA
ATOM     11  H   UNL     1      -0.584  -2.583  -0.709  0.00  0.00    +0.168 HD
ENDBRANCH   1  10
BRANCH   1  12
ATOM     12  C   UNL     1      -0.455  -6.085   3.317  0.00  0.00    +0.144 A 
ATOM     13  C   UNL     1       0.596  -6.925   3.633  0.00  0.00    +0.051 A 
ATOM     14  C   UNL     1       1.160  -6.882   4.896  0.00  0.00    +0.043 A 
ATOM     15  C   UNL     1       0.671  -5.998   5.841  0.00  0.00    +0.022 A 
ATOM     16  C   UNL     1      -0.379  -5.159   5.524  0.00  0.00    +0.036 A 
ATOM     17  C   UNL     1      -0.939  -5.198   4.260  0.00  0.00    +0.153 A 
ATOM     18 CL   UNL     1       2.479  -7.938   5.294  0.00  0.00    -0.083 Cl
BRANCH  17  19
ATOM     19  N   UNL     1      -2.060  -4.294   3.919  0.00  0.00    +0.058 N 
ATOM     20  O   UNL     1      -2.917  -4.057   4.739  0.00  0.00    -0.126 OA
ATOM     21  O   UNL     1      -2.120  -3.793   2.821  0.00  0.00    -0.126 OA
ENDBRANCH  17  19
ENDBRANCH   1  12
TORSDOF 3
