REMARK  Name = ZINC11898864
REMARK  9 active torsions:
REMARK  status: ('A' for Active; 'I' for Inactive)
REMARK    1  A    between atoms: C_1  and  C_2
REMARK    2  A    between atoms: N_4  and  C_5
REMARK    3  A    between atoms: C_9  and  N_11
REMARK    4  A    between atoms: C_12  and  C_14
REMARK    5  A    between atoms: N_16  and  C_17
REMARK    6  A    between atoms: C_17  and  C_18
REMARK    7  A    between atoms: C_18  and  C_20
REMARK    8  A    between atoms: C_18  and  N_62
REMARK    9  A    between atoms: N_24  and  C_25
REMARK                            x       y       z     vdW  Elec       q    Type
REMARK                         _______ _______ _______ _____ _____    ______ ____
ROOT
ATOM      1  C   UNL     1       2.243   2.141  -1.479  0.00  0.00    +0.299 C 
ATOM      2  O   UNL     1       2.613   2.417  -0.356  0.00  0.00    -0.265 OA
ATOM      3  N   UNL     1       1.000   1.661  -1.680  0.00  0.00    -0.309 N 
ATOM      4  H   UNL     1       0.704   1.440  -2.577  0.00  0.00    +0.149 HD
ENDROOT
BRANCH   1   6
ATOM      5  N   UNL     1       4.410   2.811  -2.436  0.00  0.00    -0.278 N 
ATOM      6  C   UNL     1       3.166   2.332  -2.637  0.00  0.00    +0.303 C 
ATOM      7  O   UNL     1       2.796   2.055  -3.760  0.00  0.00    -0.265 OA
ATOM      8  H   UNL     1       4.728   2.970  -1.534  0.00  0.00    +0.155 HD
BRANCH   5  13
ATOM      9  C   UNL     1       6.027   2.529  -5.729  0.00  0.00    +0.035 A 
ATOM     10  C   UNL     1       6.890   3.617  -5.688  0.00  0.00    +0.023 A 
ATOM     11  C   UNL     1       6.927   4.430  -4.572  0.00  0.00    +0.004 A 
ATOM     12  C   UNL     1       6.106   4.165  -3.493  0.00  0.00    +0.023 A 
ATOM     13  C   UNL     1       5.240   3.079  -3.527  0.00  0.00    +0.036 A 
ATOM     14  C   UNL     1       5.205   2.256  -4.645  0.00  0.00    +0.046 A 
BRANCH   9  18
ATOM     15  C   UNL     1       7.053   0.693  -8.851  0.00  0.00    +0.109 C 
ATOM     16  C   UNL     1       7.113   1.489  -7.573  0.00  0.00    +0.214 C 
ATOM     17  O   UNL     1       8.172   1.935  -7.186  0.00  0.00    -0.276 OA
ATOM     18  N   UNL     1       5.990   1.706  -6.861  0.00  0.00    -0.286 N 
ATOM     19  H   UNL     1       5.156   1.292  -7.132  0.00  0.00    +0.155 HD
ENDBRANCH   9  18
ENDBRANCH   5  13
ENDBRANCH   1   6
BRANCH   3  20
ATOM     20  C   UNL     1       0.094   1.474  -0.543  0.00  0.00    +0.095 C 
BRANCH  20  21
ATOM     21  C   UNL     1      -1.287   1.060  -1.054  0.00  0.00    -0.003 C 
BRANCH  21  28
ATOM     22  C   UNL     1      -3.305   1.875  -2.137  0.00  0.00    -0.078 C 
ATOM     23  C   UNL     1      -3.957   3.019  -2.865  0.00  0.00    -0.019 C 
ATOM     24  C   UNL     1      -3.543   2.954  -4.350  0.00  0.00    -0.002 C 
ATOM     25  C   UNL     1      -2.199   3.475  -4.571  0.00  0.00    -0.002 C 
ATOM     26  C   UNL     1      -1.129   2.671  -3.803  0.00  0.00    -0.019 C 
ATOM     27  C   UNL     1      -1.150   3.105  -2.362  0.00  0.00    -0.078 C 
ATOM     28  N   UNL     1      -2.019   2.269  -1.466  0.00  0.00    +0.386 N 
ATOM     29  H   UNL     1      -2.246   2.820  -0.629  0.00  0.00    -0.081 HD
ENDBRANCH  21  28
BRANCH  21  30
ATOM     30  C   UNL     1      -2.059   0.402   0.060  0.00  0.00    +0.006 A 
ATOM     31  C   UNL     1      -3.207   0.857   0.602  0.00  0.00    +0.021 A 
ATOM     32  C   UNL     1      -3.589  -0.055   1.606  0.00  0.00    +0.019 A 
ATOM     33  C   UNL     1      -2.656  -1.028   1.645  0.00  0.00    +0.085 A 
ATOM     34  N   UNL     1      -1.714  -0.752   0.698  0.00  0.00    -0.355 N 
ATOM     35  C   UNL     1      -0.528  -1.563   0.413  0.00  0.00    +0.148 C 
ENDBRANCH  21  30
ENDBRANCH  20  21
ENDBRANCH   3  20
TORSDOF 7
