REMARK  Name = ZINC64409695
REMARK  6 active torsions:
REMARK  status: ('A' for Active; 'I' for Inactive)
REMARK    1  A    between atoms: C_7  and  C_10
REMARK    2  A    between atoms: C_10  and  C_11
REMARK    3  A    between atoms: N_16  and  C_19
REMARK    4  A    between atoms: C_23  and  S_26
REMARK    5  A    between atoms: S_26  and  C_27
REMARK    6  A    between atoms: C_27  and  C_28
REMARK                            x       y       z     vdW  Elec       q    Type
REMARK                         _______ _______ _______ _____ _____    ______ ____
ROOT
ATOM      1  C   UNL     1       0.424  -3.680  -1.225  0.00  0.00    +0.220 C 
ATOM      2  O   UNL     1       0.936  -2.993  -2.083  0.00  0.00    -0.275 OA
ATOM      3  N   UNL     1      -0.372  -4.711  -1.572  0.00  0.00    -0.299 N 
ATOM      4  C   UNL     1      -1.008  -5.552  -0.547  0.00  0.00    +0.123 C 
ATOM      5  C   UNL     1      -2.507  -5.641  -0.852  0.00  0.00    +0.105 C 
ATOM      6  N   UNL     1      -2.696  -6.097  -2.236  0.00  0.00    -0.275 NA
ATOM      7  C   UNL     1      -2.141  -5.133  -3.195  0.00  0.00    +0.105 C 
ATOM      8  C   UNL     1      -0.632  -5.020  -2.986  0.00  0.00    +0.123 C 
ENDROOT
BRANCH   6   9
ATOM      9  C   UNL     1      -4.114  -6.360  -2.514  0.00  0.00    +0.201 C 
ATOM     10  N   UNL     1      -4.975  -5.202  -2.124  0.00  0.00    -0.229 NA
ATOM     11  N   UNL     1      -6.346  -5.596  -1.874  0.00  0.00    -0.232 NA
ATOM     12  C   UNL     1      -6.528  -6.955  -1.309  0.00  0.00    +0.187 C 
ATOM     13  S   UNL     1      -4.810  -7.626  -1.360  0.00  0.00    -0.094 S 
ATOM     14  H   UNL     1      -4.588  -4.715  -1.329  0.00  0.00    +0.143 HD
ATOM     15  H   UNL     1      -6.915  -5.468  -2.697  0.00  0.00    +0.143 HD
BRANCH  12  16
ATOM     16  S   UNL     1      -7.142  -6.870   0.396  0.00  0.00    -0.121 S 
BRANCH  16  17
ATOM     17  C   UNL     1      -5.876  -5.910   1.271  0.00  0.00    +0.167 C 
BRANCH  17  18
ATOM     18  C   UNL     1      -6.268  -5.764   2.719  0.00  0.00    +0.220 C 
ATOM     19  O   UNL     1      -7.300  -6.258   3.121  0.00  0.00    -0.275 OA
ATOM     20  N   UNL     1      -5.472  -5.083   3.567  0.00  0.00    -0.329 N 
ATOM     21  H   UNL     1      -4.646  -4.688   3.246  0.00  0.00    +0.145 HD
ATOM     22  H   UNL     1      -5.724  -4.989   4.499  0.00  0.00    +0.145 HD
ENDBRANCH  17  18
ENDBRANCH  16  17
ENDBRANCH  12  16
ENDBRANCH   6   9
BRANCH   1  23
ATOM     23  C   UNL     1       0.677  -3.381   0.231  0.00  0.00    +0.129 C 
BRANCH  23  30
ATOM     24  C   UNL     1      -0.127   1.101   0.805  0.00  0.00    +0.001 A 
ATOM     25  C   UNL     1       1.039   1.878   0.861  0.00  0.00    +0.002 A 
ATOM     26  C   UNL     1       2.275   1.347   0.756  0.00  0.00    +0.026 A 
ATOM     27  C   UNL     1       2.443  -0.054   0.580  0.00  0.00    +0.043 A 
ATOM     28  N   UNL     1       3.517  -0.796   0.453  0.00  0.00    -0.380 N 
ATOM     29  C   UNL     1       3.103  -2.195   0.296  0.00  0.00    +0.145 C 
ATOM     30  C   UNL     1       1.592  -2.189   0.347  0.00  0.00    -0.033 C 
ATOM     31  C   UNL     1       1.228  -0.897   0.517  0.00  0.00    -0.001 A 
ATOM     32  C   UNL     1      -0.079  -0.241   0.640  0.00  0.00    +0.010 A 
ATOM     33  H   UNL     1       4.431  -0.473   0.462  0.00  0.00    +0.160 HD
ENDBRANCH  23  30
ENDBRANCH   1  23
TORSDOF 6
