REMARK  Name = ZINC00092403
REMARK  8 active torsions:
REMARK  status: ('A' for Active; 'I' for Inactive)
REMARK    1  A    between atoms: C_1  and  C_2
REMARK    2  A    between atoms: C_2  and  C_3
REMARK    3  A    between atoms: C_2  and  C_4
REMARK    4  A    between atoms: C_4  and  C_5
REMARK    5  A    between atoms: N_7  and  C_8
REMARK    6  A    between atoms: C_8  and  C_10
REMARK    7  A    between atoms: C_8  and  C_21
REMARK    8  A    between atoms: C_19  and  O_20
REMARK                            x       y       z     vdW  Elec       q    Type
REMARK                         _______ _______ _______ _____ _____    ______ ____
ROOT
ATOM      1  C   UNL     1      -0.315  -0.103   4.898  0.00  0.00    +0.144 C 
ENDROOT
BRANCH   1   2
ATOM      2  C   UNL     1      -0.078  -1.130   5.975  0.00  0.00    +0.021 A 
ATOM      3  C   UNL     1       1.135  -1.813   6.015  0.00  0.00    +0.010 A 
ATOM      4  C   UNL     1       1.380  -2.747   6.975  0.00  0.00    +0.010 A 
ATOM      5  C   UNL     1       0.400  -3.028   7.941  0.00  0.00    +0.004 A 
ATOM      6  C   UNL     1       0.617  -3.986   8.949  0.00  0.00    +0.011 A 
ATOM      7  C   UNL     1      -0.381  -4.207   9.854  0.00  0.00    +0.020 A 
ATOM      8  C   UNL     1      -1.573  -3.491   9.763  0.00  0.00    +0.111 A 
ATOM      9  N   UNL     1      -1.772  -2.600   8.822  0.00  0.00    -0.251 NA
ATOM     10  C   UNL     1      -0.836  -2.337   7.906  0.00  0.00    +0.113 A 
ATOM     11  C   UNL     1      -1.053  -1.372   6.900  0.00  0.00    +0.148 A 
BRANCH  11  12
ATOM     12  O   UNL     1      -2.227  -0.691   6.848  0.00  0.00    -0.504 OA
ATOM     13  H   UNL     1      -2.907  -1.120   6.311  0.00  0.00    +0.292 HD
ENDBRANCH  11  12
ENDBRANCH   1   2
BRANCH   1  14
ATOM     14  C   UNL     1       0.085   1.259   5.405  0.00  0.00    +0.015 A 
ATOM     15  C   UNL     1      -0.698   2.252   5.893  0.00  0.00    +0.013 A 
ATOM     16  C   UNL     1      -0.106   3.431   6.306  0.00  0.00    +0.008 A 
ATOM     17  C   UNL     1       1.240   3.559   6.211  0.00  0.00    +0.045 A 
ATOM     18  S   UNL     1       1.714   1.979   5.527  0.00  0.00    -0.099 S 
ENDBRANCH   1  14
BRANCH   1  21
ATOM     19  C   UNL     1       0.077  -0.050   2.494  0.00  0.00    +0.214 C 
ATOM     20  O   UNL     1      -0.954   0.578   2.369  0.00  0.00    -0.276 OA
ATOM     21  N   UNL     1       0.485  -0.439   3.718  0.00  0.00    -0.304 N 
ATOM     22  H   UNL     1       1.309  -0.941   3.817  0.00  0.00    +0.150 HD
BRANCH  19  23
ATOM     23  C   UNL     1       0.900  -0.396   1.280  0.00  0.00    +0.098 C 
BRANCH  23  25
ATOM     24  C   UNL     1       0.208   1.688   0.087  0.00  0.00    +0.008 C 
ATOM     25  C   UNL     1       0.219   0.159   0.027  0.00  0.00    -0.008 C 
ATOM     26  C   UNL     1       0.986  -0.298  -1.215  0.00  0.00    +0.008 C 
ENDBRANCH  23  25
ENDBRANCH  19  23
ENDBRANCH   1  21
TORSDOF 6
