REMARK  Name = ZINC14977992
REMARK  10 active torsions:
REMARK  status: ('A' for Active; 'I' for Inactive)
REMARK    1  A    between atoms: C_1  and  N_2
REMARK    2  A    between atoms: N_2  and  C_3
REMARK    3  A    between atoms: N_2  and  C_26
REMARK    4  A    between atoms: C_3  and  C_4
REMARK    5  A    between atoms: C_8  and  O_10
REMARK    6  A    between atoms: O_10  and  C_11
REMARK    7  A    between atoms: C_11  and  C_12
REMARK    8  A    between atoms: C_12  and  N_13
REMARK    9  A    between atoms: C_14  and  C_16
REMARK   10  A    between atoms: C_26  and  C_27
REMARK                            x       y       z     vdW  Elec       q    Type
REMARK                         _______ _______ _______ _____ _____    ______ ____
ROOT
ATOM      1  C   UNL     1      -0.106  -0.083  -2.424  0.00  0.00    -0.060 A 
ATOM      2  C   UNL     1      -1.079  -0.932  -2.919  0.00  0.00    +0.002 A 
ATOM      3  C   UNL     1      -1.810  -0.573  -4.035  0.00  0.00    +0.004 A 
ATOM      4  C   UNL     1      -1.570   0.635  -4.661  0.00  0.00    +0.045 A 
ATOM      5  C   UNL     1      -0.594   1.489  -4.167  0.00  0.00    +0.121 A 
ATOM      6  C   UNL     1       0.134   1.129  -3.042  0.00  0.00    +0.047 A 
ENDROOT
BRANCH   1   7
ATOM      7  C   UNL     1       0.690  -0.478  -1.207  0.00  0.00    -0.043 C 
BRANCH   7   9
ATOM      8  C   UNL     1      -0.018   1.465   0.010  0.00  0.00    -0.095 C 
ATOM      9  N   UNL     1       0.002  -0.004   0.002  0.00  0.00    +0.383 N 
ATOM     10  H   UNL     1      -0.945  -0.353   0.009  0.00  0.00    -0.081 HD
BRANCH   9  11
ATOM     11  C   UNL     1       0.713  -0.491   1.192  0.00  0.00    -0.041 C 
BRANCH  11  12
ATOM     12  C   UNL     1      -0.059  -0.109   2.429  0.00  0.00    -0.038 A 
ATOM     13  C   UNL     1       0.316   0.975   3.161  0.00  0.00    +0.004 A 
ATOM     14  C   UNL     1      -0.384   1.345   4.308  0.00  0.00    +0.001 A 
ATOM     15  C   UNL     1      -1.464   0.631   4.728  0.00  0.00    +0.010 A 
ATOM     16  C   UNL     1      -1.879  -0.493   3.997  0.00  0.00    +0.001 A 
ATOM     17  C   UNL     1      -1.173  -0.869   2.828  0.00  0.00    +0.072 A 
ATOM     18  N   UNL     1      -1.567  -1.936   2.126  0.00  0.00    -0.255 NA
ATOM     19  C   UNL     1      -2.605  -2.648   2.494  0.00  0.00    +0.111 A 
ATOM     20  C   UNL     1      -3.346  -2.330   3.630  0.00  0.00    +0.020 A 
ATOM     21  C   UNL     1      -2.991  -1.259   4.399  0.00  0.00    +0.011 A 
ENDBRANCH  11  12
ENDBRANCH   9  11
ENDBRANCH   7   9
ENDBRANCH   1   7
BRANCH   5  22
ATOM     22  O   UNL     1      -0.356   2.678  -4.780  0.00  0.00    -0.490 OA
BRANCH  22  23
ATOM     23  C   UNL     1      -1.148   2.985  -5.930  0.00  0.00    +0.247 C 
BRANCH  23  24
ATOM     24  C   UNL     1      -0.739   4.353  -6.479  0.00  0.00    +0.145 C 
BRANCH  24  25
ATOM     25  N   UNL     1       0.642   4.292  -6.965  0.00  0.00    -0.307 N 
ATOM     26  C   UNL     1       1.218   5.388  -7.497  0.00  0.00    +0.261 C 
ATOM     27  O   UNL     1       0.593   6.427  -7.573  0.00  0.00    -0.269 OA
ATOM     28  H   UNL     1       1.141   3.462  -6.904  0.00  0.00    +0.149 HD
BRANCH  26  29
ATOM     29  C   UNL     1       2.616   5.325  -7.989  0.00  0.00    +0.111 A 
ATOM     30  C   UNL     1       3.319   4.165  -7.912  0.00  0.00    +0.101 A 
ATOM     31  C   UNL     1       4.699   4.151  -8.411  0.00  0.00    +0.255 A 
ATOM     32  O   UNL     1       5.364   3.133  -8.361  0.00  0.00    -0.268 OA
ATOM     33  N   UNL     1       5.217   5.285  -8.926  0.00  0.00    -0.275 N 
ATOM     34  H   UNL     1       6.128   5.291  -9.260  0.00  0.00    +0.173 HD
ATOM     35  C   UNL     1       4.479   6.408  -8.979  0.00  0.00    +0.327 A 
ATOM     36  O   UNL     1       4.969   7.417  -9.448  0.00  0.00    -0.247 OA
ATOM     37  N   UNL     1       3.212   6.442  -8.533  0.00  0.00    -0.303 N 
ATOM     38  H   UNL     1       2.709   7.270  -8.592  0.00  0.00    +0.171 HD
ENDBRANCH  26  29
ENDBRANCH  24  25
ENDBRANCH  23  24
ENDBRANCH  22  23
ENDBRANCH   5  22
TORSDOF 9
