REMARK  Name = ZINC33580494
REMARK  6 active torsions:
REMARK  status: ('A' for Active; 'I' for Inactive)
REMARK    1  A    between atoms: C_3  and  O_31
REMARK    2  A    between atoms: C_6  and  C_7
REMARK    3  A    between atoms: N_15  and  C_18
REMARK    4  A    between atoms: N_25  and  C_26
REMARK    5  A    between atoms: C_26  and  C_27
REMARK    6  A    between atoms: C_27  and  C_28
REMARK                            x       y       z     vdW  Elec       q    Type
REMARK                         _______ _______ _______ _____ _____    ______ ____
ROOT
ATOM      1  C   UNL     1      -2.854   7.657  -1.511  0.00  0.00    +0.129 C 
ATOM      2  C   UNL     1      -2.567   6.910  -0.189  0.00  0.00    +0.139 C 
ATOM      3  C   UNL     1      -1.021   6.933  -0.066  0.00  0.00    +0.241 C 
ATOM      4  C   UNL     1      -0.636   5.478  -0.210  0.00  0.00    +0.254 C 
ATOM      5  O   UNL     1       0.497   5.046  -0.182  0.00  0.00    -0.272 OA
ATOM      6  N   UNL     1      -1.741   4.741  -0.374  0.00  0.00    -0.236 N 
ATOM      7  C   UNL     1      -2.880   5.443  -0.381  0.00  0.00    +0.230 C 
ATOM      8  O   UNL     1      -3.990   4.976  -0.516  0.00  0.00    -0.275 OA
ATOM      9  O   UNL     1      -0.540   7.672  -1.202  0.00  0.00    -0.283 OA
ATOM     10  N   UNL     1      -1.570   7.535  -2.251  0.00  0.00    -0.178 NA
ENDROOT
BRANCH   1  16
ATOM     11  C   UNL     1      -3.737   5.804  -2.943  0.00  0.00    +0.009 A 
ATOM     12  C   UNL     1      -4.761   5.186  -3.634  0.00  0.00    +0.046 A 
ATOM     13  C   UNL     1      -6.024   5.761  -3.660  0.00  0.00    +0.117 A 
ATOM     14  C   UNL     1      -6.255   6.952  -2.988  0.00  0.00    +0.046 A 
ATOM     15  C   UNL     1      -5.229   7.563  -2.294  0.00  0.00    +0.009 A 
ATOM     16  C   UNL     1      -3.972   6.989  -2.269  0.00  0.00    -0.027 A 
BRANCH  13  17
ATOM     17  O   UNL     1      -7.032   5.157  -4.343  0.00  0.00    -0.507 OA
ATOM     18  H   UNL     1      -8.032   5.613  -4.364  0.00  0.00    +0.292 HD
ENDBRANCH  13  17
ENDBRANCH   1  16
BRANCH   6  19
ATOM     19  C   UNL     1      -1.706   3.286  -0.540  0.00  0.00    +0.084 C 
ATOM     20  C   UNL     1      -0.885   2.934  -1.782  0.00  0.00    +0.023 C 
ATOM     21  C   UNL     1      -0.848   1.414  -1.955  0.00  0.00    +0.002 C 
ATOM     22  C   UNL     1      -0.206   0.776  -0.722  0.00  0.00    +0.000 C 
ATOM     23  C   UNL     1      -1.026   1.128   0.521  0.00  0.00    +0.002 C 
ATOM     24  C   UNL     1      -1.063   2.648   0.693  0.00  0.00    +0.023 C 
ENDBRANCH   6  19
BRANCH  10  25
ATOM     25  C   UNL     1      -1.440   8.597  -3.259  0.00  0.00    +0.124 C 
BRANCH  25  26
ATOM     26  C   UNL     1      -0.117   8.428  -4.009  0.00  0.00    +0.113 C 
BRANCH  26  27
ATOM     27  C   UNL     1      -0.013   9.478  -5.085  0.00  0.00    +0.212 C 
ATOM     28  O   UNL     1      -0.908  10.281  -5.237  0.00  0.00    -0.276 OA
ATOM     29  N   UNL     1       1.076   9.524  -5.879  0.00  0.00    -0.329 N 
ATOM     30  H   UNL     1       1.152  10.290  -6.665  0.00  0.00    +0.145 HD
ATOM     31  H   UNL     1       1.888   8.795  -5.741  0.00  0.00    +0.145 HD
ENDBRANCH  26  27
ENDBRANCH  25  26
ENDBRANCH  10  25
TORSDOF 6
