REMARK  Name = ZINC65786874
REMARK  6 active torsions:
REMARK  status: ('A' for Active; 'I' for Inactive)
REMARK    1  A    between atoms: C_1  and  C_2
REMARK    2  A    between atoms: N_4  and  C_9
REMARK    3  A    between atoms: C_6  and  C_8
REMARK    4  A    between atoms: C_9  and  C_10
REMARK    5  A    between atoms: C_10  and  N_11
REMARK    6  A    between atoms: N_14  and  C_15
REMARK                            x       y       z     vdW  Elec       q    Type
REMARK                         _______ _______ _______ _____ _____    ______ ____
ROOT
ATOM      1  N   UNL     1       4.917  -0.176  -3.693  0.00  0.00    -0.298 N 
ATOM      2  C   UNL     1       6.145   0.316  -3.949  0.00  0.00    +0.304 C 
ATOM      3  O   UNL     1       6.660   1.099  -3.174  0.00  0.00    -0.253 OA
ATOM      4  N   UNL     1       6.802  -0.059  -5.065  0.00  0.00    -0.269 N 
ATOM      5  H   UNL     1       4.506  -0.800  -4.311  0.00  0.00    +0.150 HD
ATOM      6  H   UNL     1       6.420  -0.733  -5.649  0.00  0.00    +0.156 HD
ENDROOT
BRANCH   4   7
ATOM      7  C   UNL     1       8.030   0.522  -5.379  0.00  0.00    +0.036 A 
ATOM      8  C   UNL     1       8.915   0.863  -4.363  0.00  0.00    +0.024 A 
ATOM      9  C   UNL     1      10.136   1.438  -4.661  0.00  0.00    +0.015 A 
ATOM     10  C   UNL     1      10.480   1.679  -5.984  0.00  0.00    +0.049 A 
ATOM     11  C   UNL     1       9.585   1.334  -7.019  0.00  0.00    +0.051 A 
ATOM     12  C   UNL     1       8.367   0.754  -6.712  0.00  0.00    +0.037 A 
ATOM     13  C   UNL     1      10.256   1.720  -8.279  0.00  0.00    +0.251 C 
ATOM     14  O   UNL     1       9.800   1.583  -9.396  0.00  0.00    -0.270 OA
ATOM     15  N   UNL     1      11.456   2.249  -7.979  0.00  0.00    -0.248 N 
ATOM     16  C   UNL     1      11.662   2.260  -6.650  0.00  0.00    +0.251 C 
ATOM     17  O   UNL     1      12.655   2.679  -6.090  0.00  0.00    -0.270 OA
ATOM     18  H   UNL     1      12.089   2.580  -8.635  0.00  0.00    +0.158 HD
ENDBRANCH   4   7
BRANCH   1  19
ATOM     19  C   UNL     1       4.203   0.232  -2.480  0.00  0.00    +0.121 C 
BRANCH  19  20
ATOM     20  C   UNL     1       2.842  -0.467  -2.430  0.00  0.00    +0.103 C 
BRANCH  20  24
ATOM     21  C   UNL     1      -0.025   1.510   0.007  0.00  0.00    +0.039 C 
ATOM     22  C   UNL     1       0.006  -0.019   0.008  0.00  0.00    +0.130 C 
ATOM     23  C   UNL     1       0.730  -0.517  -1.246  0.00  0.00    +0.115 C 
ATOM     24  N   UNL     1       2.126  -0.058  -1.215  0.00  0.00    -0.296 NA
ATOM     25  C   UNL     1       2.809  -0.551  -0.010  0.00  0.00    +0.115 C 
ATOM     26  C   UNL     1       2.065  -0.053   1.232  0.00  0.00    +0.130 C 
ATOM     27  O   UNL     1       0.702  -0.482   1.168  0.00  0.00    -0.371 OA
ATOM     28  C   UNL     1       2.724  -0.629   2.487  0.00  0.00    +0.039 C 
ENDBRANCH  20  24
ENDBRANCH  19  20
ENDBRANCH   1  19
TORSDOF 4
