REMARK  Name = ZINC67295365
REMARK  7 active torsions:
REMARK  status: ('A' for Active; 'I' for Inactive)
REMARK    1  A    between atoms: C_1  and  C_2
REMARK    2  A    between atoms: C_2  and  C_3
REMARK    3  A    between atoms: C_2  and  C_4
REMARK    4  A    between atoms: C_7  and  N_10
REMARK    5  A    between atoms: C_12  and  C_21
REMARK    6  A    between atoms: N_23  and  C_24
REMARK    7  A    between atoms: C_24  and  C_25
REMARK                            x       y       z     vdW  Elec       q    Type
REMARK                         _______ _______ _______ _____ _____    ______ ____
ROOT
ATOM      1  N   UNL     1       2.641  -1.819  -4.648  0.00  0.00    -0.325 N 
ATOM      2  C   UNL     1       3.952  -1.747  -4.728  0.00  0.00    +0.212 A 
ATOM      3  C   UNL     1       4.675  -2.313  -5.884  0.00  0.00    +0.097 A 
ATOM      4  C   UNL     1       5.902  -1.745  -6.203  0.00  0.00    +0.030 A 
ATOM      5  C   UNL     1       6.367  -0.637  -5.366  0.00  0.00    +0.018 A 
ATOM      6  C   UNL     1       7.446   0.160  -5.768  0.00  0.00    +0.011 A 
ATOM      7  C   UNL     1       7.860   1.191  -4.972  0.00  0.00    +0.001 A 
ATOM      8  C   UNL     1       7.221   1.453  -3.769  0.00  0.00    +0.004 A 
ATOM      9  C   UNL     1       6.156   0.678  -3.354  0.00  0.00    +0.047 A 
ATOM     10  C   UNL     1       5.719  -0.374  -4.145  0.00  0.00    +0.137 A 
ATOM     11  O   UNL     1       4.680  -1.145  -3.754  0.00  0.00    -0.439 OA
ATOM     12  H   UNL     1       2.128  -2.173  -5.391  0.00  0.00    +0.169 HD
ENDROOT
BRANCH   1  16
ATOM     13  C   UNL     1       0.704  -0.536  -1.225  0.00  0.00    -0.045 A 
ATOM     14  C   UNL     1       0.216  -0.174  -2.469  0.00  0.00    +0.006 A 
ATOM     15  C   UNL     1       0.857  -0.598  -3.614  0.00  0.00    +0.026 A 
ATOM     16  C   UNL     1       2.001  -1.394  -3.517  0.00  0.00    +0.042 A 
ATOM     17  C   UNL     1       2.487  -1.755  -2.258  0.00  0.00    +0.026 A 
ATOM     18  C   UNL     1       1.839  -1.320  -1.121  0.00  0.00    +0.006 A 
BRANCH  13  20
ATOM     19  C   UNL     1      -0.021   1.461   0.054  0.00  0.00    +0.012 C 
ATOM     20  C   UNL     1      -0.002  -0.068   0.022  0.00  0.00    +0.013 C 
ATOM     21  C   UNL     1      -1.438  -0.596   0.023  0.00  0.00    +0.012 C 
ENDBRANCH  13  20
ENDBRANCH   1  16
BRANCH   3  22
ATOM     22  C   UNL     1       4.121  -3.433  -6.665  0.00  0.00    +0.250 C 
ATOM     23  O   UNL     1       3.006  -3.853  -6.418  0.00  0.00    -0.270 OA
ATOM     24  N   UNL     1       4.848  -3.991  -7.652  0.00  0.00    -0.304 N 
ATOM     25  H   UNL     1       5.763  -3.706  -7.801  0.00  0.00    +0.149 HD
BRANCH  24  26
ATOM     26  C   UNL     1       4.256  -5.027  -8.502  0.00  0.00    +0.179 C 
BRANCH  26  27
ATOM     27  C   UNL     1       5.269  -5.482  -9.520  0.00  0.00    +0.122 A 
ATOM     28  C   UNL     1       6.146  -6.490  -9.362  0.00  0.00    +0.046 A 
ATOM     29  C   UNL     1       6.899  -6.569 -10.556  0.00  0.00    +0.041 A 
ATOM     30  C   UNL     1       6.438  -5.605 -11.372  0.00  0.00    +0.195 A 
ATOM     31  O   UNL     1       5.447  -4.953 -10.742  0.00  0.00    -0.466 OA
ENDBRANCH  26  27
ENDBRANCH  24  26
ENDBRANCH   3  22
TORSDOF 5
