REMARK  Name = ZINC09018450
REMARK  12 active torsions:
REMARK  status: ('A' for Active; 'I' for Inactive)
REMARK    1  A    between atoms: C_1  and  C_2
REMARK    2  A    between atoms: C_2  and  C_3
REMARK    3  A    between atoms: C_4  and  C_35
REMARK    4  A    between atoms: C_13  and  S_14
REMARK    5  A    between atoms: S_14  and  C_15
REMARK    6  A    between atoms: C_15  and  C_17
REMARK    7  A    between atoms: C_15  and  C_18
REMARK    8  A    between atoms: N_20  and  C_21
REMARK    9  A    between atoms: C_22  and  C_30
REMARK   10  A    between atoms: C_30  and  O_32
REMARK   11  A    between atoms: O_32  and  C_33
REMARK   12  A    between atoms: C_33  and  C_34
REMARK                            x       y       z     vdW  Elec       q    Type
REMARK                         _______ _______ _______ _____ _____    ______ ____
ROOT
ATOM      1  C   UNL     1       5.006   5.129   6.147  0.00  0.00    +0.231 C 
ATOM      2  O   UNL     1       4.950   5.815   5.149  0.00  0.00    -0.274 OA
ATOM      3  N   UNL     1       5.589   5.610   7.263  0.00  0.00    -0.278 N 
ATOM      4  H   UNL     1       5.633   5.062   8.062  0.00  0.00    +0.155 HD
ENDROOT
BRANCH   3   5
ATOM      5  C   UNL     1       6.124   6.889   7.269  0.00  0.00    +0.086 A 
ATOM      6  C   UNL     1       6.753   7.556   8.312  0.00  0.00    +0.091 A 
ATOM      7  C   UNL     1       7.233   8.903   8.054  0.00  0.00    -0.021 A 
ATOM      8  C   UNL     1       7.000   9.368   6.808  0.00  0.00    -0.004 A 
ATOM      9  S   UNL     1       6.164   8.045   5.980  0.00  0.00    -0.077 S 
ATOM     10  C   UNL     1       7.371  10.712   6.261  0.00  0.00    +0.043 C 
ATOM     11  C   UNL     1       7.728  11.632   7.438  0.00  0.00    +0.005 C 
ATOM     12  C   UNL     1       8.689  10.889   8.371  0.00  0.00    +0.005 C 
ATOM     13  C   UNL     1       7.947   9.762   9.091  0.00  0.00    +0.037 C 
BRANCH   6  14
ATOM     14  C   UNL     1       6.929   6.925   9.621  0.00  0.00    +0.342 C 
ATOM     15  O   UNL     1       7.931   6.275   9.854  0.00  0.00    -0.245 OA
BRANCH  14  16
ATOM     16  O   UNL     1       5.981   7.063  10.570  0.00  0.00    -0.461 OA
BRANCH  16  17
ATOM     17  C   UNL     1       6.222   6.410  11.844  0.00  0.00    +0.229 C 
ATOM     18  C   UNL     1       5.046   6.677  12.786  0.00  0.00    +0.048 C 
ENDBRANCH  16  17
ENDBRANCH  14  16
ENDBRANCH   6  14
ENDBRANCH   3   5
BRANCH   1  19
ATOM     19  C   UNL     1       4.424   3.739   6.141  0.00  0.00    +0.137 C 
ATOM     20  C   UNL     1       5.546   2.717   5.949  0.00  0.00    +0.029 C 
BRANCH  19  21
ATOM     21  S   UNL     1       3.231   3.589   4.782  0.00  0.00    -0.073 S 
BRANCH  21  32
ATOM     22  C   UNL     1       0.000   1.080   2.488  0.00  0.00    +0.036 A 
ATOM     23  C   UNL     1       0.919   1.857   3.088  0.00  0.00    +0.034 A 
ATOM     24  N   UNL     1       1.582   1.406   4.206  0.00  0.00    -0.260 N 
ATOM     25  C   UNL     1       1.318   0.157   4.707  0.00  0.00    +0.237 A 
ATOM     26  N   UNL     1       0.378  -0.653   4.093  0.00  0.00    -0.291 N 
ATOM     27  H   UNL     1       0.192  -1.536   4.448  0.00  0.00    +0.172 HD
ATOM     28  C   UNL     1      -0.278  -0.212   3.001  0.00  0.00    +0.256 A 
ATOM     29  O   UNL     1      -1.105  -0.921   2.457  0.00  0.00    -0.267 OA
ATOM     30  N   UNL     1       2.080  -0.025   5.759  0.00  0.00    -0.109 NA
ATOM     31  N   UNL     1       2.852   1.129   5.941  0.00  0.00    -0.120 NA
ATOM     32  C   UNL     1       2.540   1.983   4.997  0.00  0.00    +0.198 A 
ATOM     33  C   UNL     1       1.218   3.228   2.538  0.00  0.00    +0.064 C 
BRANCH  22  35
ATOM     34  C   UNL     1      -0.013   1.086   0.008  0.00  0.00    +0.009 C 
ATOM     35  C   UNL     1      -0.729   1.579   1.267  0.00  0.00    +0.039 C 
ENDBRANCH  22  35
ENDBRANCH  21  32
ENDBRANCH  19  21
ENDBRANCH   1  19
TORSDOF 8
