REMARK  Name = ZINC37656278
REMARK  4 active torsions:
REMARK  status: ('A' for Active; 'I' for Inactive)
REMARK    1  A    between atoms: C_6  and  N_7
REMARK    2  A    between atoms: N_7  and  S_8
REMARK    3  A    between atoms: S_8  and  N_11
REMARK    4  A    between atoms: C_15  and  C_18
REMARK                            x       y       z     vdW  Elec       q    Type
REMARK                         _______ _______ _______ _____ _____    ______ ____
ROOT
ATOM      1  S   UNL     1      -1.279  -2.040  -0.987  0.00  0.00    +0.112 S 
ATOM      2  O   UNL     1      -2.572  -2.599  -0.804  0.00  0.00    -0.138 OA
ATOM      3  O   UNL     1      -0.801  -1.627  -2.259  0.00  0.00    -0.138 OA
ENDROOT
BRANCH   1   4
ATOM      4  N   UNL     1      -0.196  -3.155  -0.413  0.00  0.00    -0.163 NA
ATOM      5  C   UNL     1       1.220  -3.089  -0.799  0.00  0.00    +0.111 C 
ATOM      6  C   UNL     1       2.077  -3.077   0.471  0.00  0.00    +0.018 C 
ATOM      7  C   UNL     1       1.716  -4.287   1.337  0.00  0.00    +0.017 C 
ATOM      8  C   UNL     1       0.244  -4.202   1.746  0.00  0.00    +0.118 C 
ATOM      9  C   UNL     1      -0.633  -4.223   0.495  0.00  0.00    +0.125 C 
BRANCH   8  10
ATOM     10  C   UNL     1      -0.102  -5.376   2.626  0.00  0.00    +0.360 C 
ATOM     11  O   UNL     1       0.488  -5.543   3.680  0.00  0.00    -0.246 OA
ATOM     12  O   UNL     1      -0.971  -6.160   2.283  0.00  0.00    -0.246 OA
ENDBRANCH   8  10
ENDBRANCH   1   4
BRANCH   1  13
ATOM     13  N   UNL     1      -1.191  -0.717   0.005  0.00  0.00    -0.206 N 
ATOM     14  H   UNL     1      -0.923   0.143  -0.356  0.00  0.00    +0.175 HD
BRANCH  13  20
ATOM     15  C   UNL     1      -0.669  -0.274   2.320  0.00  0.00    +0.025 A 
ATOM     16  C   UNL     1      -0.980  -0.396   3.660  0.00  0.00    +0.016 A 
ATOM     17  C   UNL     1      -2.118  -1.079   4.048  0.00  0.00    +0.013 A 
ATOM     18  C   UNL     1      -2.949  -1.642   3.097  0.00  0.00    +0.016 A 
ATOM     19  C   UNL     1      -2.644  -1.524   1.755  0.00  0.00    +0.025 A 
ATOM     20  C   UNL     1      -1.502  -0.839   1.361  0.00  0.00    +0.049 A 
ATOM     21  I   UNL     1      -2.585  -1.261   6.083  0.00  0.00    -0.044 I 
ENDBRANCH  13  20
ENDBRANCH   1  13
TORSDOF 4
