REMARK  Name = ZINC08645017
REMARK  8 active torsions:
REMARK  status: ('A' for Active; 'I' for Inactive)
REMARK    1  A    between atoms: C_1  and  C_2
REMARK    2  A    between atoms: C_7  and  N_8
REMARK    3  A    between atoms: C_9  and  C_11
REMARK    4  A    between atoms: C_11  and  C_13
REMARK    5  A    between atoms: C_11  and  S_14
REMARK    6  A    between atoms: S_14  and  C_15
REMARK    7  A    between atoms: C_18  and  C_21
REMARK    8  A    between atoms: N_19  and  N_20
REMARK                            x       y       z     vdW  Elec       q    Type
REMARK                         _______ _______ _______ _____ _____    ______ ____
ROOT
ATOM      1  C   UNL     1       3.924   2.115  -0.757  0.00  0.00    +0.209 A 
ATOM      2  N   UNL     1       3.886   3.348  -0.304  0.00  0.00    -0.121 NA
ATOM      3  N   UNL     1       5.040   3.901  -0.432  0.00  0.00    -0.127 NA
ATOM      4  C   UNL     1       5.884   3.055  -0.975  0.00  0.00    +0.183 A 
ATOM      5  N   UNL     1       5.197   1.884  -1.195  0.00  0.00    -0.224 N 
ENDROOT
BRANCH   4   6
ATOM      6  C   UNL     1       7.306   3.312  -1.286  0.00  0.00    +0.039 A 
ATOM      7  C   UNL     1       7.816   2.994  -2.547  0.00  0.00    +0.014 A 
ATOM      8  C   UNL     1       9.142   3.241  -2.833  0.00  0.00    +0.021 A 
ATOM      9  C   UNL     1       9.972   3.791  -1.870  0.00  0.00    +0.042 A 
ATOM     10  C   UNL     1       9.474   4.104  -0.616  0.00  0.00    +0.040 A 
ATOM     11  C   UNL     1       8.147   3.867  -0.319  0.00  0.00    +0.053 A 
ATOM     12 CL   UNL     1       7.524   4.258   1.254  0.00  0.00    -0.083 Cl
ATOM     13 CL   UNL     1      11.642   4.091  -2.236  0.00  0.00    -0.083 Cl
ENDBRANCH   4   6
BRANCH   5  14
ATOM     14  N   UNL     1       5.686   0.730  -1.740  0.00  0.00    -0.295 N 
ATOM     15  H   UNL     1       5.650   0.763  -2.748  0.00  0.00    +0.163 HD
ATOM     16  H   UNL     1       6.623   0.546  -1.417  0.00  0.00    +0.163 HD
ENDBRANCH   5  14
BRANCH   1  17
ATOM     17  S   UNL     1       2.584   0.971  -0.788  0.00  0.00    -0.072 S 
BRANCH  17  18
ATOM     18  C   UNL     1       1.283   1.992  -0.052  0.00  0.00    +0.137 C 
ATOM     19  C   UNL     1       1.647   2.316   1.398  0.00  0.00    +0.029 C 
BRANCH  18  21
ATOM     20  N   UNL     1      -1.190   1.919  -0.087  0.00  0.00    -0.284 N 
ATOM     21  C   UNL     1      -0.024   1.242  -0.087  0.00  0.00    +0.230 C 
ATOM     22  O   UNL     1      -0.026   0.030  -0.120  0.00  0.00    -0.274 OA
ATOM     23  H   UNL     1      -1.191   2.883   0.023  0.00  0.00    +0.155 HD
BRANCH  20  30
ATOM     24  C   UNL     1      -3.485   2.903   1.276  0.00  0.00    +0.045 C 
ATOM     25  C   UNL     1      -3.542   1.677   0.401  0.00  0.00    -0.029 A 
ATOM     26  C   UNL     1      -4.734   0.997   0.242  0.00  0.00    +0.005 A 
ATOM     27  C   UNL     1      -4.787  -0.128  -0.561  0.00  0.00    +0.000 A 
ATOM     28  C   UNL     1      -3.649  -0.575  -1.206  0.00  0.00    +0.002 A 
ATOM     29  C   UNL     1      -2.456   0.104  -1.055  0.00  0.00    +0.023 A 
ATOM     30  C   UNL     1      -2.398   1.231  -0.246  0.00  0.00    +0.036 A 
ENDBRANCH  20  30
ENDBRANCH  18  21
ENDBRANCH  17  18
ENDBRANCH   1  17
TORSDOF 6
