REMARK  Name = ZINC14563945
REMARK  9 active torsions:
REMARK  status: ('A' for Active; 'I' for Inactive)
REMARK    1  A    between atoms: C_1  and  C_2
REMARK    2  A    between atoms: C_5  and  C_8
REMARK    3  A    between atoms: C_9  and  C_10
REMARK    4  A    between atoms: N_12  and  C_13
REMARK    5  A    between atoms: C_13  and  N_15
REMARK    6  A    between atoms: N_15  and  C_16
REMARK    7  A    between atoms: C_20  and  C_22
REMARK    8  A    between atoms: N_24  and  C_25
REMARK    9  A    between atoms: C_29  and  C_31
REMARK                            x       y       z     vdW  Elec       q    Type
REMARK                         _______ _______ _______ _____ _____    ______ ____
ROOT
ATOM      1  N   UNL     1       2.378  -2.668  -0.085  0.00  0.00    -0.297 N 
ATOM      2  H   UNL     1       3.012  -2.192   0.474  0.00  0.00    +0.154 HD
ENDROOT
BRANCH   1   3
ATOM      3  C   UNL     1       2.306  -4.064  -0.027  0.00  0.00    +0.033 A 
ATOM      4  C   UNL     1       1.068  -4.698  -0.042  0.00  0.00    +0.023 A 
ATOM      5  C   UNL     1       0.992  -6.077   0.010  0.00  0.00    +0.003 A 
ATOM      6  C   UNL     1       2.143  -6.834   0.086  0.00  0.00    +0.013 A 
ATOM      7  C   UNL     1       3.391  -6.207   0.107  0.00  0.00    +0.039 A 
ATOM      8  C   UNL     1       3.468  -4.816   0.049  0.00  0.00    +0.036 A 
BRANCH   7   9
ATOM      9  C   UNL     1       4.626  -7.016   0.189  0.00  0.00    +0.248 C 
ATOM     10  O   UNL     1       5.711  -6.468   0.207  0.00  0.00    -0.270 OA
ATOM     11  N   UNL     1       4.548  -8.360   0.244  0.00  0.00    -0.281 N 
ATOM     12  H   UNL     1       3.688  -8.800   0.165  0.00  0.00    +0.155 HD
BRANCH  11  13
ATOM     13  C   UNL     1       5.709  -9.121   0.416  0.00  0.00    +0.034 A 
ATOM     14  C   UNL     1       5.668 -10.296   1.155  0.00  0.00    +0.023 A 
ATOM     15  C   UNL     1       6.816 -11.045   1.323  0.00  0.00    +0.002 A 
ATOM     16  C   UNL     1       8.006 -10.626   0.756  0.00  0.00    +0.003 A 
ATOM     17  C   UNL     1       8.050  -9.457   0.020  0.00  0.00    -0.049 A 
ATOM     18  C   UNL     1       6.905  -8.706  -0.155  0.00  0.00    +0.026 A 
ATOM     19  C   UNL     1       9.349  -9.004  -0.596  0.00  0.00    +0.044 C 
ENDBRANCH  11  13
ENDBRANCH   7   9
ENDBRANCH   1   3
BRANCH   1  20
ATOM     20  C   UNL     1       1.566  -1.985  -0.916  0.00  0.00    +0.141 C 
ATOM     21  S   UNL     1       0.549  -2.829  -2.004  0.00  0.00    -0.018 S 
BRANCH  20  24
ATOM     22  C   UNL     1       0.743   0.045  -1.722  0.00  0.00    +0.242 C 
ATOM     23  O   UNL     1       0.020  -0.554  -2.495  0.00  0.00    -0.270 OA
ATOM     24  N   UNL     1       1.555  -0.638  -0.890  0.00  0.00    -0.264 N 
ATOM     25  H   UNL     1       2.131  -0.160  -0.274  0.00  0.00    +0.157 HD
BRANCH  22  27
ATOM     26  C   UNL     1      -0.077   2.192  -2.530  0.00  0.00    +0.013 C 
ATOM     27  C   UNL     1       0.731   1.508  -1.694  0.00  0.00    +0.068 C 
BRANCH  26  32
ATOM     28  C   UNL     1      -0.126   7.939  -2.420  0.00  0.00    +0.044 C 
ATOM     29  C   UNL     1      -0.113   6.433  -2.449  0.00  0.00    -0.050 A 
ATOM     30  C   UNL     1      -0.932   5.754  -3.334  0.00  0.00    +0.004 A 
ATOM     31  C   UNL     1      -0.926   4.376  -3.367  0.00  0.00    +0.008 A 
ATOM     32  C   UNL     1      -0.090   3.663  -2.502  0.00  0.00    -0.025 A 
ATOM     33  C   UNL     1       0.731   4.356  -1.606  0.00  0.00    +0.008 A 
ATOM     34  C   UNL     1       0.717   5.735  -1.589  0.00  0.00    +0.004 A 
ENDBRANCH  26  32
ENDBRANCH  22  27
ENDBRANCH  20  24
ENDBRANCH   1  20
TORSDOF 7
