REMARK  Name = ZINC05311262
REMARK  10 active torsions:
REMARK  status: ('A' for Active; 'I' for Inactive)
REMARK    1  A    between atoms: C_1  and  C_2
REMARK    2  A    between atoms: C_2  and  C_3
REMARK    3  A    between atoms: C_2  and  C_4
REMARK    4  A    between atoms: C_4  and  C_6
REMARK    5  A    between atoms: C_4  and  O_12
REMARK    6  A    between atoms: O_12  and  C_13
REMARK    7  A    between atoms: C_13  and  C_15
REMARK    8  A    between atoms: C_18  and  C_21
REMARK    9  A    between atoms: C_21  and  O_22
REMARK   10  A    between atoms: O_22  and  C_23
REMARK                            x       y       z     vdW  Elec       q    Type
REMARK                         _______ _______ _______ _____ _____    ______ ____
ROOT
ATOM      1  C   UNL     1       9.386  -3.273  -0.103  0.00  0.00    +0.340 C 
ATOM      2  O   UNL     1       9.863  -3.631  -1.161  0.00  0.00    -0.245 OA
ENDROOT
BRANCH   1   3
ATOM      3  C   UNL     1       8.201  -2.391  -0.087  0.00  0.00    +0.059 A 
ATOM      4  C   UNL     1       7.628  -1.966  -1.287  0.00  0.00    +0.015 A 
ATOM      5  C   UNL     1       6.522  -1.142  -1.266  0.00  0.00    +0.008 A 
ATOM      6  C   UNL     1       5.981  -0.737  -0.058  0.00  0.00    -0.010 A 
ATOM      7  C   UNL     1       6.548  -1.150   1.135  0.00  0.00    +0.008 A 
ATOM      8  C   UNL     1       7.651  -1.978   1.127  0.00  0.00    +0.015 A 
BRANCH   6   9
ATOM      9  C   UNL     1       4.772   0.164  -0.042  0.00  0.00    +0.264 C 
BRANCH   9  10
ATOM     10  O   UNL     1       3.586  -0.632  -0.035  0.00  0.00    -0.487 OA
BRANCH  10  11
ATOM     11  C   UNL     1       2.399   0.030  -0.021  0.00  0.00    +0.121 A 
ATOM     12  C   UNL     1       1.207  -0.680  -0.013  0.00  0.00    +0.045 A 
ATOM     13  C   UNL     1       0.002  -0.004   0.002  0.00  0.00    +0.004 A 
ATOM     14  C   UNL     1      -0.017   1.378   0.010  0.00  0.00    +0.000 A 
ATOM     15  C   UNL     1       1.170   2.088   0.002  0.00  0.00    +0.004 A 
ATOM     16  C   UNL     1       2.377   1.417  -0.013  0.00  0.00    +0.045 A 
ENDBRANCH  10  11
ENDBRANCH   9  10
ENDBRANCH   6   9
ENDBRANCH   1   3
BRANCH   1  17
ATOM     17  O   UNL     1       9.938  -3.681   1.056  0.00  0.00    -0.448 OA
BRANCH  17  18
ATOM     18  C   UNL     1      11.100  -4.547   0.965  0.00  0.00    +0.265 C 
BRANCH  18  19
ATOM     19  C   UNL     1      11.989  -4.321   2.160  0.00  0.00    +0.261 C 
ATOM     20  O   UNL     1      11.633  -3.579   3.050  0.00  0.00    -0.271 OA
ATOM     21  N   UNL     1      13.182  -4.944   2.240  0.00  0.00    -0.237 N 
ATOM     22  C   UNL     1      13.977  -4.742   3.309  0.00  0.00    +0.303 C 
ATOM     23  O   UNL     1      13.620  -3.998   4.201  0.00  0.00    -0.253 OA
ATOM     24  N   UNL     1      15.169  -5.366   3.389  0.00  0.00    -0.313 N 
ATOM     25  H   UNL     1      13.467  -5.538   1.529  0.00  0.00    +0.159 HD
ATOM     26  H   UNL     1      15.455  -5.960   2.677  0.00  0.00    +0.146 HD
ATOM     27  H   UNL     1      15.742  -5.221   4.159  0.00  0.00    +0.146 HD
ENDBRANCH  18  19
BRANCH  18  29
ATOM     28  C   UNL     1       9.767  -6.294   2.155  0.00  0.00    +0.011 C 
ATOM     29  C   UNL     1      10.646  -6.008   0.936  0.00  0.00    +0.033 C 
ATOM     30  C   UNL     1       9.847  -6.268  -0.343  0.00  0.00    +0.011 C 
ENDBRANCH  18  29
ENDBRANCH  17  18
ENDBRANCH   1  17
TORSDOF 8
