REMARK  Name = ZINC22197243
REMARK  7 active torsions:
REMARK  status: ('A' for Active; 'I' for Inactive)
REMARK    1  A    between atoms: C_1  and  C_2
REMARK    2  A    between atoms: C_3  and  C_13
REMARK    3  A    between atoms: C_4  and  C_12
REMARK    4  A    between atoms: C_13  and  C_14
REMARK    5  A    between atoms: N_16  and  C_17
REMARK    6  A    between atoms: C_17  and  C_18
REMARK    7  A    between atoms: C_21  and  C_23
REMARK                            x       y       z     vdW  Elec       q    Type
REMARK                         _______ _______ _______ _____ _____    ______ ____
ROOT
ATOM      1  C   UNL     1       1.237  -2.695  -1.444  0.00  0.00    +0.218 C 
ATOM      2  O   UNL     1       1.216  -1.903  -2.362  0.00  0.00    -0.275 OA
ATOM      3  N   UNL     1       1.254  -4.019  -1.698  0.00  0.00    -0.308 N 
ATOM      4  H   UNL     1       1.274  -4.738  -0.865  0.00  0.00    +0.149 HD
ENDROOT
BRANCH   1   5
ATOM      5  C   UNL     1       1.243  -2.200  -0.021  0.00  0.00    +0.134 C 
BRANCH   5   8
ATOM      6  C   UNL     1      -1.295  -0.772   0.011  0.00  0.00    +0.066 C 
ATOM      7  C   UNL     1       0.002  -0.004   0.002  0.00  0.00    +0.047 A 
ATOM      8  C   UNL     1       1.220  -0.693  -0.013  0.00  0.00    +0.004 A 
ATOM      9  C   UNL     1       2.381   0.012  -0.021  0.00  0.00    +0.049 A 
ATOM     10  N   UNL     1       2.329   1.369  -0.013  0.00  0.00    -0.199 N 
ATOM     11  C   UNL     1       1.123   2.012   0.002  0.00  0.00    +0.255 A 
ATOM     12  N   UNL     1      -0.016   1.310   0.009  0.00  0.00    -0.216 NA
ATOM     13  N   UNL     1       1.370   3.318   0.007  0.00  0.00    -0.176 NA
ATOM     14  C   UNL     1       2.685   3.526  -0.005  0.00  0.00    +0.234 A 
ATOM     15  N   UNL     1       3.312   2.367  -0.017  0.00  0.00    -0.128 NA
ATOM     16  N   UNL     1       3.301   4.774  -0.004  0.00  0.00    -0.326 N 
ATOM     17  C   UNL     1       3.709  -0.702  -0.038  0.00  0.00    +0.066 C 
ATOM     18  H   UNL     1       4.399   4.846  -0.014  0.00  0.00    +0.145 HD
ATOM     19  H   UNL     1       2.691   5.689   0.007  0.00  0.00    +0.145 HD
ENDBRANCH   5   8
ENDBRANCH   1   5
BRANCH   3  20
ATOM     20  C   UNL     1       1.248  -4.500  -3.081  0.00  0.00    +0.178 C 
BRANCH  20  21
ATOM     21  C   UNL     1       1.271  -6.007  -3.089  0.00  0.00    +0.123 A 
ATOM     22  C   UNL     1       0.189  -6.809  -3.083  0.00  0.00    +0.047 A 
ATOM     23  C   UNL     1       0.659  -8.138  -3.095  0.00  0.00    +0.050 A 
ATOM     24  C   UNL     1       2.017  -8.072  -3.108  0.00  0.00    +0.135 A 
ATOM     25  O   UNL     1       2.374  -6.773  -3.110  0.00  0.00    -0.458 OA
BRANCH  24  26
ATOM     26  C   UNL     1       2.941  -9.225  -3.124  0.00  0.00    +0.017 A 
ATOM     27  C   UNL     1       2.437 -10.527  -3.120  0.00  0.00    +0.012 A 
ATOM     28  C   UNL     1       3.305 -11.600  -3.141  0.00  0.00    +0.016 A 
ATOM     29  C   UNL     1       4.673 -11.387  -3.154  0.00  0.00    +0.018 A 
ATOM     30  C   UNL     1       5.179 -10.098  -3.151  0.00  0.00    +0.016 A 
ATOM     31  C   UNL     1       4.322  -9.018  -3.137  0.00  0.00    +0.012 A 
ATOM     32 BR   UNL     1       5.855 -12.863  -3.173  0.00  0.00    -0.050 Br
ENDBRANCH  24  26
ENDBRANCH  20  21
ENDBRANCH   3  20
TORSDOF 5
