REMARK  Name = ZINC52064603
REMARK  4 active torsions:
REMARK  status: ('A' for Active; 'I' for Inactive)
REMARK    1  A    between atoms: C_3  and  O_11
REMARK    2  A    between atoms: C_4  and  N_8
REMARK    3  A    between atoms: O_11  and  C_12
REMARK    4  A    between atoms: C_17  and  O_19
REMARK                            x       y       z     vdW  Elec       q    Type
REMARK                         _______ _______ _______ _____ _____    ______ ____
ROOT
ATOM      1  C   UNL     1      -0.007   1.362  -0.232  0.00  0.00    +0.042 A 
ATOM      2  C   UNL     1       1.180   2.070  -0.233  0.00  0.00    +0.051 A 
ATOM      3  C   UNL     1       2.381   1.410  -0.019  0.00  0.00    +0.151 A 
ATOM      4  C   UNL     1       2.389   0.040   0.195  0.00  0.00    +0.170 A 
ATOM      5  C   UNL     1       1.201  -0.666   0.196  0.00  0.00    +0.074 A 
ATOM      6  C   UNL     1       0.003  -0.006  -0.017  0.00  0.00    +0.126 A 
ATOM      7  F   UNL     1      -1.158  -0.697  -0.016  0.00  0.00    -0.205 F 
ENDROOT
BRANCH   4   8
ATOM      8  N   UNL     1       3.670  -0.666   0.423  0.00  0.00    +0.060 N 
ATOM      9  O   UNL     1       3.676  -1.861   0.610  0.00  0.00    -0.126 OA
ATOM     10  O   UNL     1       4.709  -0.048   0.422  0.00  0.00    -0.126 OA
ENDBRANCH   4   8
BRANCH   3  11
ATOM     11  O   UNL     1       3.549   2.106  -0.021  0.00  0.00    -0.484 OA
BRANCH  11  12
ATOM     12  C   UNL     1       3.457   3.528  -0.124  0.00  0.00    +0.202 C 
ATOM     13  C   UNL     1       3.400   3.948  -1.607  0.00  0.00    +0.047 C 
ATOM     14  C   UNL     1       4.224   5.258  -1.663  0.00  0.00    +0.006 C 
ATOM     15  C   UNL     1       5.381   4.977  -0.673  0.00  0.00    +0.035 C 
ATOM     16  C   UNL     1       4.716   4.182   0.471  0.00  0.00    +0.155 C 
BRANCH  16  17
ATOM     17  O   UNL     1       4.353   5.065   1.535  0.00  0.00    -0.388 OA
ATOM     18  H   UNL     1       5.104   5.509   1.951  0.00  0.00    +0.210 HD
ENDBRANCH  16  17
ENDBRANCH  11  12
ENDBRANCH   3  11
TORSDOF 4
