REMARK  Name = ZINC64006944
REMARK  5 active torsions:
REMARK  status: ('A' for Active; 'I' for Inactive)
REMARK    1  A    between atoms: C_1  and  N_2
REMARK    2  A    between atoms: C_7  and  C_10
REMARK    3  A    between atoms: C_25  and  C_27
REMARK    4  A    between atoms: C_30  and  O_34
REMARK    5  A    between atoms: O_34  and  C_35
REMARK                            x       y       z     vdW  Elec       q    Type
REMARK                         _______ _______ _______ _____ _____    ______ ____
ROOT
ATOM      1  C   UNL     1       2.270  -1.766   0.909  0.00  0.00    +0.239 C 
ATOM      2  O   UNL     1       2.391  -0.560   0.852  0.00  0.00    -0.273 OA
ATOM      3  N   UNL     1       3.364  -2.552   0.946  0.00  0.00    -0.290 N 
ATOM      4  C   UNL     1       3.212  -4.009   0.892  0.00  0.00    +0.113 C 
ATOM      5  C   UNL     1       3.999  -4.563  -0.310  0.00  0.00    +0.052 C 
ATOM      6  C   UNL     1       5.348  -3.889  -0.291  0.00  0.00    -0.035 C 
ATOM      7  C   UNL     1       6.579  -4.386  -0.332  0.00  0.00    -0.001 A 
ATOM      8  C   UNL     1       7.075  -5.758  -0.521  0.00  0.00    +0.010 A 
ATOM      9  C   UNL     1       8.424  -5.918  -0.489  0.00  0.00    +0.001 A 
ATOM     10  C   UNL     1       9.319  -4.862  -0.290  0.00  0.00    +0.002 A 
ATOM     11  C   UNL     1       8.951  -3.567  -0.115  0.00  0.00    +0.026 A 
ATOM     12  C   UNL     1       7.557  -3.273  -0.138  0.00  0.00    +0.043 A 
ATOM     13  N   UNL     1       6.936  -2.136  -0.023  0.00  0.00    -0.375 N 
ATOM     14  C   UNL     1       5.502  -2.376  -0.189  0.00  0.00    +0.131 C 
ATOM     15  C   UNL     1       4.698  -1.938   1.034  0.00  0.00    +0.135 C 
ATOM     16  H   UNL     1       7.352  -1.276   0.146  0.00  0.00    +0.160 HD
ENDROOT
BRANCH   1  23
ATOM     17  C   UNL     1      -0.410   0.990   1.224  0.00  0.00    +0.153 C 
ATOM     18  N   UNL     1      -0.250  -0.350   0.653  0.00  0.00    -0.236 N 
ATOM     19  C   UNL     1      -0.292  -0.513  -0.685  0.00  0.00    +0.252 C 
ATOM     20  O   UNL     1      -0.500   0.436  -1.417  0.00  0.00    -0.269 OA
ATOM     21  C   UNL     1      -0.082  -1.862  -1.245  0.00  0.00    +0.066 C 
ATOM     22  C   UNL     1       0.494  -2.778  -0.461  0.00  0.00    +0.007 C 
ATOM     23  C   UNL     1       0.896  -2.384   0.938  0.00  0.00    +0.182 C 
ATOM     24  N   UNL     1      -0.055  -1.414   1.480  0.00  0.00    -0.222 NA
ATOM     25  H   UNL     1      -0.930  -1.860   1.708  0.00  0.00    +0.146 HD
ENDBRANCH   1  23
BRANCH  15  26
ATOM     26  C   UNL     1       5.392  -2.403   2.289  0.00  0.00    +0.011 A 
ATOM     27  C   UNL     1       5.557  -3.755   2.526  0.00  0.00    +0.012 A 
ATOM     28  C   UNL     1       6.192  -4.184   3.675  0.00  0.00    +0.046 A 
ATOM     29  C   UNL     1       6.666  -3.258   4.593  0.00  0.00    +0.123 A 
ATOM     30  C   UNL     1       6.500  -1.902   4.355  0.00  0.00    +0.084 A 
ATOM     31  C   UNL     1       5.868  -1.476   3.200  0.00  0.00    +0.132 A 
ATOM     32  F   UNL     1       5.711  -0.155   2.964  0.00  0.00    -0.205 F 
BRANCH  29  33
ATOM     33  O   UNL     1       7.291  -3.679   5.724  0.00  0.00    -0.495 OA
ATOM     34  C   UNL     1       7.752  -2.670   6.624  0.00  0.00    +0.277 C 
ENDBRANCH  29  33
ENDBRANCH  15  26
TORSDOF 3
