REMARK  Name = ZINC66089418
REMARK  12 active torsions:
REMARK  status: ('A' for Active; 'I' for Inactive)
REMARK    1  A    between atoms: C_1  and  C_2
REMARK    2  A    between atoms: C_3  and  C_32
REMARK    3  A    between atoms: C_4  and  C_12
REMARK    4  A    between atoms: C_6  and  C_10
REMARK    5  A    between atoms: C_7  and  N_9
REMARK    6  A    between atoms: C_16  and  C_18
REMARK    7  A    between atoms: C_20  and  C_30
REMARK    8  A    between atoms: C_21  and  N_29
REMARK    9  A    between atoms: C_23  and  C_28
REMARK   10  A    between atoms: C_24  and  C_25
REMARK   11  A    between atoms: C_25  and  C_27
REMARK   12  A    between atoms: C_32  and  C_34
REMARK                            x       y       z     vdW  Elec       q    Type
REMARK                         _______ _______ _______ _____ _____    ______ ____
ROOT
ATOM      1  C   UNL     1      -1.542  -2.677   1.375  0.00  0.00    -0.034 A 
ATOM      2  C   UNL     1      -0.729  -2.361   2.448  0.00  0.00    +0.004 A 
ATOM      3  C   UNL     1      -1.045  -2.820   3.713  0.00  0.00    +0.001 A 
ATOM      4  C   UNL     1      -2.173  -3.594   3.906  0.00  0.00    +0.004 A 
ATOM      5  C   UNL     1      -2.987  -3.910   2.833  0.00  0.00    -0.034 A 
ATOM      6  C   UNL     1      -2.673  -3.447   1.569  0.00  0.00    +0.009 A 
ENDROOT
BRANCH   1  10
ATOM      7  C   UNL     1      -0.018   1.503   0.010  0.00  0.00    +0.086 C 
ATOM      8  C   UNL     1       0.002  -0.004   0.002  0.00  0.00    +0.112 C 
ATOM      9  C   UNL     1      -1.164  -0.673   0.004  0.00  0.00    +0.045 C 
ATOM     10  C   UNL     1      -1.198  -2.177  -0.004  0.00  0.00    +0.101 C 
ATOM     11  C   UNL     1       0.147  -2.718  -0.409  0.00  0.00    +0.098 C 
ATOM     12  C   UNL     1       1.248  -1.929  -0.387  0.00  0.00    +0.198 C 
ATOM     13  O   UNL     1       1.183  -0.639  -0.013  0.00  0.00    -0.445 OA
BRANCH  12  14
ATOM     14  N   UNL     1       2.458  -2.457  -0.762  0.00  0.00    -0.328 N 
ATOM     15  H   UNL     1       2.518  -3.385  -1.037  0.00  0.00    +0.145 HD
ATOM     16  H   UNL     1       3.254  -1.902  -0.751  0.00  0.00    +0.145 HD
ENDBRANCH  12  14
BRANCH   9  17
ATOM     17  C   UNL     1      -2.374   0.046   0.014  0.00  0.00    +0.160 C 
ATOM     18  O   UNL     1      -2.358   1.260   0.021  0.00  0.00    -0.293 OA
ATOM     19  C   UNL     1      -3.688  -0.691   0.017  0.00  0.00    +0.091 C 
ENDBRANCH   9  17
BRANCH  11  20
ATOM     20  C   UNL     1       0.264  -4.084  -0.821  0.00  0.00    +0.101 C 
ATOM     21  N   UNL     1       0.357  -5.168  -1.148  0.00  0.00    -0.191 NA
ENDBRANCH  11  20
ENDBRANCH   1  10
BRANCH   5  22
ATOM     22  C   UNL     1      -4.217  -4.754   3.043  0.00  0.00    +0.101 C 
ATOM     23  C   UNL     1      -5.141  -4.060   4.006  0.00  0.00    +0.098 C 
ATOM     24  C   UNL     1      -5.245  -4.475   5.291  0.00  0.00    +0.198 C 
ATOM     25  O   UNL     1      -4.530  -5.516   5.755  0.00  0.00    -0.445 OA
ATOM     26  C   UNL     1      -3.990  -6.392   4.894  0.00  0.00    +0.112 C 
ATOM     27  C   UNL     1      -3.814  -6.094   3.597  0.00  0.00    +0.045 C 
ATOM     28  C   UNL     1      -3.569  -7.749   5.398  0.00  0.00    +0.086 C 
BRANCH  27  29
ATOM     29  C   UNL     1      -3.243  -7.053   2.741  0.00  0.00    +0.160 C 
ATOM     30  O   UNL     1      -2.914  -8.138   3.178  0.00  0.00    -0.293 OA
ATOM     31  C   UNL     1      -3.038  -6.734   1.282  0.00  0.00    +0.091 C 
ENDBRANCH  27  29
BRANCH  24  32
ATOM     32  N   UNL     1      -6.098  -3.817   6.141  0.00  0.00    -0.328 N 
ATOM     33  H   UNL     1      -6.619  -3.064   5.819  0.00  0.00    +0.145 HD
ATOM     34  H   UNL     1      -6.181  -4.104   7.064  0.00  0.00    +0.145 HD
ENDBRANCH  24  32
BRANCH  23  35
ATOM     35  C   UNL     1      -5.922  -2.946   3.557  0.00  0.00    +0.101 C 
ATOM     36  N   UNL     1      -6.541  -2.062   3.202  0.00  0.00    -0.191 NA
ENDBRANCH  23  35
ENDBRANCH   5  22
TORSDOF 8
