REMARK  Name = ZINC65384823
REMARK  8 active torsions:
REMARK  status: ('A' for Active; 'I' for Inactive)
REMARK    1  A    between atoms: C_1  and  C_2
REMARK    2  A    between atoms: C_9  and  C_11
REMARK    3  A    between atoms: C_11  and  C_12
REMARK    4  A    between atoms: C_15  and  C_29
REMARK    5  A    between atoms: N_18  and  C_19
REMARK    6  A    between atoms: C_29  and  C_30
REMARK    7  A    between atoms: C_30  and  C_31
REMARK    8  A    between atoms: C_30  and  C_32
REMARK                            x       y       z     vdW  Elec       q    Type
REMARK                         _______ _______ _______ _____ _____    ______ ____
ROOT
ATOM      1  C   UNL     1      -3.280   3.540   0.782  0.00  0.00    +0.163 C 
ATOM      2  N   UNL     1      -1.911   4.065   1.010  0.00  0.00    -0.281 NA
ATOM      3  C   UNL     1      -1.879   4.257   2.486  0.00  0.00    +0.141 C 
ATOM      4  N   UNL     1      -2.699   3.119   2.975  0.00  0.00    -0.221 NA
ATOM      5  N   UNL     1      -3.725   2.982   2.069  0.00  0.00    -0.246 N 
ATOM      6  H   UNL     1      -1.214   3.396   0.717  0.00  0.00    +0.125 HD
ATOM      7  H   UNL     1      -3.057   3.303   3.901  0.00  0.00    +0.146 HD
ENDROOT
BRANCH   5   8
ATOM      8  C   UNL     1      -4.972   2.413   2.325  0.00  0.00    +0.072 A 
ATOM      9  C   UNL     1      -5.289   1.175   1.810  0.00  0.00    +0.026 A 
ATOM     10  C   UNL     1      -6.530   0.596   2.058  0.00  0.00    +0.003 A 
ATOM     11  C   UNL     1      -7.463   1.236   2.816  0.00  0.00    +0.010 A 
ATOM     12  C   UNL     1      -7.178   2.499   3.359  0.00  0.00    +0.002 A 
ATOM     13  C   UNL     1      -5.918   3.099   3.119  0.00  0.00    +0.093 A 
ATOM     14  N   UNL     1      -5.641   4.298   3.638  0.00  0.00    -0.253 NA
ATOM     15  C   UNL     1      -6.515   4.940   4.376  0.00  0.00    +0.111 A 
ATOM     16  C   UNL     1      -7.771   4.405   4.655  0.00  0.00    +0.020 A 
ATOM     17  C   UNL     1      -8.122   3.187   4.146  0.00  0.00    +0.011 A 
ENDBRANCH   5   8
BRANCH   1  18
ATOM     18  C   UNL     1      -3.253   2.444  -0.285  0.00  0.00    +0.082 C 
BRANCH  18  27
ATOM     19  C   UNL     1      -5.351   3.286  -2.055  0.00  0.00    +0.064 C 
ATOM     20  C   UNL     1      -3.908   3.451  -2.457  0.00  0.00    +0.026 A 
ATOM     21  N   UNL     1      -3.591   4.007  -3.666  0.00  0.00    -0.311 N 
ATOM     22  C   UNL     1      -2.305   4.159  -4.034  0.00  0.00    +0.327 A 
ATOM     23  O   UNL     1      -2.046   4.656  -5.112  0.00  0.00    -0.247 OA
ATOM     24  N   UNL     1      -1.303   3.768  -3.224  0.00  0.00    -0.275 N 
ATOM     25  C   UNL     1      -1.575   3.215  -2.025  0.00  0.00    +0.257 A 
ATOM     26  O   UNL     1      -0.668   2.861  -1.292  0.00  0.00    -0.267 OA
ATOM     27  C   UNL     1      -2.923   3.054  -1.623  0.00  0.00    +0.039 A 
ATOM     28  H   UNL     1      -4.299   4.295  -4.263  0.00  0.00    +0.170 HD
ATOM     29  H   UNL     1      -0.382   3.885  -3.506  0.00  0.00    +0.173 HD
ENDBRANCH  18  27
ENDBRANCH   1  18
BRANCH   3  30
ATOM     30  C   UNL     1      -0.447   4.167   3.015  0.00  0.00    +0.039 C 
BRANCH  30  31
ATOM     31  C   UNL     1      -0.450   4.368   4.532  0.00  0.00    -0.014 C 
ATOM     32  C   UNL     1       0.964   4.155   5.077  0.00  0.00    +0.007 C 
ATOM     33  C   UNL     1      -0.912   5.790   4.857  0.00  0.00    +0.007 C 
ENDBRANCH  30  31
ENDBRANCH   3  30
TORSDOF 5
