REMARK  Name = ZINC00927081
REMARK  12 active torsions:
REMARK  status: ('A' for Active; 'I' for Inactive)
REMARK    1  A    between atoms: C_1  and  C_2
REMARK    2  A    between atoms: C_6  and  C_15
REMARK    3  A    between atoms: C_13  and  C_14
REMARK    4  A    between atoms: C_15  and  N_59
REMARK    5  A    between atoms: C_16  and  C_17
REMARK    6  A    between atoms: C_16  and  N_59
REMARK    7  A    between atoms: C_22  and  C_23
REMARK    8  A    between atoms: C_22  and  N_59
REMARK    9  A    between atoms: N_27  and  C_28
REMARK   10  A    between atoms: C_28  and  C_29
REMARK   11  A    between atoms: C_28  and  C_30
REMARK   12  A    between atoms: C_28  and  C_31
REMARK                            x       y       z     vdW  Elec       q    Type
REMARK                         _______ _______ _______ _____ _____    ______ ____
ROOT
ATOM      1  N   UNL     1      -5.012   4.130  -1.423  0.00  0.00    +0.392 N 
ATOM      2  H   UNL     1      -4.851   3.241  -1.911  0.00  0.00    -0.080 HD
ENDROOT
BRANCH   1   3
ATOM      3  C   UNL     1      -4.524   4.010  -0.033  0.00  0.00    -0.036 C 
BRANCH   3   9
ATOM      4  C   UNL     1      -3.179  -3.212   1.252  0.00  0.00    +0.044 C 
ATOM      5  C   UNL     1      -4.077  -2.005   1.347  0.00  0.00    -0.047 A 
ATOM      6  C   UNL     1      -3.655  -0.806   0.845  0.00  0.00    +0.013 A 
ATOM      7  C   UNL     1      -4.488   0.314   0.933  0.00  0.00    -0.001 A 
ATOM      8  C   UNL     1      -4.068   1.613   0.405  0.00  0.00    +0.017 A 
ATOM      9  C   UNL     1      -4.924   2.660   0.504  0.00  0.00    +0.001 A 
ATOM     10  C   UNL     1      -6.183   2.493   1.120  0.00  0.00    +0.251 A 
ATOM     11  O   UNL     1      -6.933   3.450   1.207  0.00  0.00    -0.268 OA
ATOM     12  N   UNL     1      -6.576   1.305   1.612  0.00  0.00    -0.322 N 
ATOM     13  H   UNL     1      -7.475   1.222   2.041  0.00  0.00    +0.169 HD
ATOM     14  C   UNL     1      -5.756   0.199   1.532  0.00  0.00    +0.049 A 
ATOM     15  C   UNL     1      -6.162  -1.030   2.041  0.00  0.00    +0.030 A 
ATOM     16  C   UNL     1      -5.324  -2.121   1.944  0.00  0.00    -0.046 A 
ATOM     17  C   UNL     1      -5.768  -3.453   2.490  0.00  0.00    +0.044 C 
ENDBRANCH   3   9
ENDBRANCH   1   3
BRANCH   1  18
ATOM     18  C   UNL     1      -4.278   5.203  -2.126  0.00  0.00    -0.002 C 
BRANCH  18  19
ATOM     19  C   UNL     1      -2.916   4.684  -2.511  0.00  0.00    +0.089 A 
ATOM     20  C   UNL     1      -2.595   4.117  -3.688  0.00  0.00    +0.042 A 
ATOM     21  C   UNL     1      -1.223   3.782  -3.619  0.00  0.00    +0.041 A 
ATOM     22  C   UNL     1      -0.789   4.163  -2.404  0.00  0.00    +0.195 A 
ATOM     23  O   UNL     1      -1.817   4.714  -1.740  0.00  0.00    -0.470 OA
ENDBRANCH  18  19
ENDBRANCH   1  18
BRANCH   1  24
ATOM     24  C   UNL     1      -6.461   4.423  -1.426  0.00  0.00    +0.001 C 
BRANCH  24  25
ATOM     25  C   UNL     1      -6.974   4.322  -2.840  0.00  0.00    +0.136 A 
ATOM     26  N   UNL     1      -6.952   5.265  -3.750  0.00  0.00    -0.115 NA
ATOM     27  N   UNL     1      -7.479   4.792  -4.826  0.00  0.00    -0.023 NA
ATOM     28  N   UNL     1      -7.844   3.574  -4.623  0.00  0.00    -0.043 NA
ATOM     29  N   UNL     1      -7.550   3.248  -3.410  0.00  0.00    -0.226 N 
BRANCH  29  30
ATOM     30  C   UNL     1      -7.797   1.952  -2.774  0.00  0.00    +0.059 C 
ATOM     31  C   UNL     1      -8.816   2.123  -1.646  0.00  0.00    +0.036 C 
ATOM     32  C   UNL     1      -8.344   0.970  -3.811  0.00  0.00    +0.036 C 
ATOM     33  C   UNL     1      -6.487   1.408  -2.199  0.00  0.00    +0.036 C 
ENDBRANCH  29  30
ENDBRANCH  24  25
ENDBRANCH   1  24
TORSDOF 7
