REMARK  Name = ZINC00078390
REMARK  5 active torsions:
REMARK  status: ('A' for Active; 'I' for Inactive)
REMARK    1  A    between atoms: C_1  and  C_2
REMARK    2  A    between atoms: C_5  and  C_7
REMARK    3  A    between atoms: C_5  and  O_14
REMARK    4  A    between atoms: C_15  and  C_17
REMARK    5  A    between atoms: C_20  and  O_23
REMARK                            x       y       z     vdW  Elec       q    Type
REMARK                         _______ _______ _______ _____ _____    ______ ____
ROOT
ATOM      1  C   UNL     1      -1.264   2.351  -0.068  0.00  0.00    +0.062 C 
ATOM      2  C   UNL     1      -0.019   1.503  -0.053  0.00  0.00    +0.039 C 
ATOM      3  N   UNL     1       1.169   1.950  -0.043  0.00  0.00    -0.183 NA
ATOM      4  N   UNL     1       2.157   0.967  -0.036  0.00  0.00    -0.153 N 
ATOM      5  C   UNL     1       1.507  -0.354  -0.044  0.00  0.00    +0.187 C 
ATOM      6  C   UNL     1       0.004  -0.009  -0.056  0.00  0.00    +0.114 C 
ATOM      7  C   UNL     1       3.486   1.188  -0.025  0.00  0.00    +0.269 C 
ATOM      8  O   UNL     1       4.257   0.253   0.074  0.00  0.00    -0.268 OA
ENDROOT
BRANCH   5   9
ATOM      9  C   UNL     1       1.864  -1.134   1.196  0.00  0.00    +0.004 A 
ATOM     10  C   UNL     1       2.263  -0.468   2.339  0.00  0.00    +0.009 A 
ATOM     11  C   UNL     1       2.585  -1.182   3.478  0.00  0.00    +0.020 A 
ATOM     12  C   UNL     1       2.518  -2.564   3.470  0.00  0.00    +0.041 A 
ATOM     13  C   UNL     1       2.124  -3.230   2.323  0.00  0.00    +0.020 A 
ATOM     14  C   UNL     1       1.797  -2.515   1.187  0.00  0.00    +0.009 A 
ATOM     15 CL   UNL     1       2.929  -3.462   4.898  0.00  0.00    -0.084 Cl
ENDBRANCH   5   9
BRANCH   7  16
ATOM     16  C   UNL     1       4.005   2.565  -0.134  0.00  0.00    +0.039 A 
ATOM     17  C   UNL     1       3.124   3.649  -0.126  0.00  0.00    +0.016 A 
ATOM     18  C   UNL     1       3.613   4.933  -0.222  0.00  0.00    +0.046 A 
ATOM     19  C   UNL     1       4.981   5.150  -0.339  0.00  0.00    +0.117 A 
ATOM     20  C   UNL     1       5.861   4.074  -0.354  0.00  0.00    +0.046 A 
ATOM     21  C   UNL     1       5.380   2.788  -0.252  0.00  0.00    +0.016 A 
BRANCH  19  22
ATOM     22  O   UNL     1       5.458   6.417  -0.440  0.00  0.00    -0.507 OA
ATOM     23  H   UNL     1       5.528   6.739  -1.349  0.00  0.00    +0.292 HD
ENDBRANCH  19  22
ENDBRANCH   7  16
BRANCH   5  24
ATOM     24  O   UNL     1       1.865  -1.086  -1.218  0.00  0.00    -0.366 OA
ATOM     25  H   UNL     1       2.800  -1.328  -1.260  0.00  0.00    +0.212 HD
ENDBRANCH   5  24
TORSDOF 4
