REMARK  Name = ZINC61536662
REMARK  2 active torsions:
REMARK  status: ('A' for Active; 'I' for Inactive)
REMARK    1  A    between atoms: C_1  and  C_2
REMARK    2  A    between atoms: C_8  and  N_10
REMARK                            x       y       z     vdW  Elec       q    Type
REMARK                         _______ _______ _______ _____ _____    ______ ____
ROOT
ATOM      1  N   UNL     1       0.056  -0.038   2.447  0.00  0.00    -0.310 N 
ATOM      2  C   UNL     1       0.754   0.096   3.630  0.00  0.00    +0.221 A 
ATOM      3  N   UNL     1       0.132   0.520   4.725  0.00  0.00    -0.181 NA
ATOM      4  C   UNL     1       0.807   0.648   5.862  0.00  0.00    +0.223 A 
ATOM      5  N   UNL     1       2.104   0.352   5.901  0.00  0.00    -0.184 NA
ATOM      6  C   UNL     1       2.721  -0.069   4.809  0.00  0.00    +0.229 A 
ATOM      7  N   UNL     1       2.050  -0.203   3.676  0.00  0.00    -0.184 NA
ATOM      8 CL   UNL     1       4.413  -0.454   4.864  0.00  0.00    -0.041 Cl
ATOM      9  N   UNL     1       0.164   1.087   7.001  0.00  0.00    -0.299 N 
ATOM     10  C   UNL     1      -1.259   1.441   7.099  0.00  0.00    +0.108 C 
ATOM     11  C   UNL     1      -1.518   1.900   8.550  0.00  0.00    +0.020 C 
ATOM     12  C   UNL     1      -0.107   2.317   9.040  0.00  0.00    +0.020 C 
ATOM     13  C   UNL     1       0.790   1.274   8.323  0.00  0.00    +0.108 C 
ATOM     14  H   UNL     1      -0.888   0.180   2.413  0.00  0.00    +0.149 HD
ENDROOT
BRANCH   1  21
ATOM     15  C   UNL     1      -0.019   1.526   0.010  0.00  0.00    +0.009 C 
ATOM     16  C   UNL     1       0.002  -0.004   0.002  0.00  0.00    +0.006 C 
ATOM     17  C   UNL     1      -1.433  -0.534   0.013  0.00  0.00    +0.005 C 
ATOM     18  C   UNL     1      -1.413  -2.063   0.004  0.00  0.00    +0.000 C 
ATOM     19  C   UNL     1      -0.673  -2.570   1.244  0.00  0.00    +0.002 C 
ATOM     20  C   UNL     1       0.763  -2.041   1.233  0.00  0.00    +0.022 C 
ATOM     21  C   UNL     1       0.742  -0.511   1.242  0.00  0.00    +0.076 C 
ENDBRANCH   1  21
TORSDOF 1
