REMARK  Name = ZINC39279909
REMARK  6 active torsions:
REMARK  status: ('A' for Active; 'I' for Inactive)
REMARK    1  A    between atoms: C_1  and  C_2
REMARK    2  A    between atoms: C_4  and  C_8
REMARK    3  A    between atoms: N_10  and  N_11
REMARK    4  A    between atoms: C_12  and  C_13
REMARK    5  A    between atoms: C_14  and  C_15
REMARK    6  A    between atoms: C_18  and  N_21
REMARK                            x       y       z     vdW  Elec       q    Type
REMARK                         _______ _______ _______ _____ _____    ______ ____
ROOT
ATOM      1  N   UNL     1      -2.588  -4.173   2.448  0.00  0.00    -0.188 NA
ATOM      2  C   UNL     1      -3.780  -4.693   2.516  0.00  0.00    +0.130 C 
ENDROOT
BRANCH   1   5
ATOM      3  C   UNL     1      -0.958  -2.939   1.229  0.00  0.00    +0.262 C 
ATOM      4  O   UNL     1      -0.190  -3.058   2.161  0.00  0.00    -0.271 OA
ATOM      5  N   UNL     1      -2.191  -3.477   1.299  0.00  0.00    -0.205 N 
ATOM      6  H   UNL     1      -2.805  -3.381   0.554  0.00  0.00    +0.177 HD
BRANCH   3  10
ATOM      7  C   UNL     1      -0.018   1.503   0.010  0.00  0.00    +0.067 C 
ATOM      8  C   UNL     1       0.002  -0.004   0.002  0.00  0.00    +0.059 C 
ATOM      9  C   UNL     1      -1.086  -0.777   0.003  0.00  0.00    +0.035 C 
ATOM     10  C   UNL     1      -0.531  -2.190  -0.007  0.00  0.00    +0.240 C 
ATOM     11  N   UNL     1       0.926  -1.973  -0.013  0.00  0.00    -0.170 NA
ATOM     12  N   UNL     1       1.125  -0.756  -0.013  0.00  0.00    -0.159 NA
ENDBRANCH   3  10
ENDBRANCH   1   5
BRANCH   2  13
ATOM     13  C   UNL     1      -4.181  -5.397   3.679  0.00  0.00    +0.022 C 
ATOM     14  C   UNL     1      -5.416  -5.935   3.750  0.00  0.00    +0.009 C 
BRANCH  14  15
ATOM     15  C   UNL     1      -5.832  -6.667   4.957  0.00  0.00    -0.025 A 
ATOM     16  C   UNL     1      -4.953  -6.802   6.036  0.00  0.00    +0.010 A 
ATOM     17  C   UNL     1      -5.350  -7.489   7.163  0.00  0.00    +0.033 A 
ATOM     18  C   UNL     1      -6.616  -8.044   7.229  0.00  0.00    +0.126 A 
ATOM     19  C   UNL     1      -7.492  -7.916   6.166  0.00  0.00    +0.033 A 
ATOM     20  C   UNL     1      -7.112  -7.226   5.034  0.00  0.00    +0.010 A 
BRANCH  18  21
ATOM     21  N   UNL     1      -7.035  -8.781   8.444  0.00  0.00    +0.056 N 
ATOM     22  O   UNL     1      -6.271  -8.896   9.374  0.00  0.00    -0.126 OA
ATOM     23  O   UNL     1      -8.139  -9.268   8.504  0.00  0.00    -0.126 OA
ENDBRANCH  18  21
ENDBRANCH  14  15
ENDBRANCH   2  13
TORSDOF 5
