REMARK  Name = ZINC13806198
REMARK  4 active torsions:
REMARK  status: ('A' for Active; 'I' for Inactive)
REMARK    1  A    between atoms: C_1  and  O_2
REMARK    2  A    between atoms: O_2  and  C_3
REMARK    3  A    between atoms: C_6  and  C_9
REMARK    4  A    between atoms: C_12  and  C_24
REMARK                            x       y       z     vdW  Elec       q    Type
REMARK                         _______ _______ _______ _____ _____    ______ ____
ROOT
ATOM      1  C   UNL     1       2.587  -2.550   4.310  0.00  0.00    +0.122 C 
ATOM      2  C   UNL     1       3.742  -3.407   3.781  0.00  0.00    +0.057 C 
ATOM      3  C   UNL     1       4.280  -4.301   4.905  0.00  0.00    +0.107 C 
ATOM      4  N   UNL     1       3.208  -5.223   5.324  0.00  0.00    -0.309 N 
ATOM      5  C   UNL     1       1.945  -4.672   5.479  0.00  0.00    +0.175 A 
ATOM      6  N   UNL     1       1.634  -3.414   5.013  0.00  0.00    -0.306 N 
ATOM      7  C   UNL     1       0.326  -3.176   5.332  0.00  0.00    +0.069 A 
ATOM      8  C   UNL     1      -0.515  -2.091   5.119  0.00  0.00    +0.028 A 
ATOM      9  C   UNL     1      -1.815  -2.198   5.589  0.00  0.00    +0.002 A 
ATOM     10  C   UNL     1      -2.267  -3.330   6.244  0.00  0.00    +0.002 A 
ATOM     11  C   UNL     1      -1.450  -4.423   6.469  0.00  0.00    +0.028 A 
ATOM     12  C   UNL     1      -0.133  -4.337   6.003  0.00  0.00    +0.065 A 
ATOM     13  N   UNL     1       0.901  -5.208   6.054  0.00  0.00    -0.327 N 
ATOM     14  H   UNL     1       3.378  -6.165   5.483  0.00  0.00    +0.149 HD
ATOM     15  H   UNL     1       0.873  -6.089   6.457  0.00  0.00    +0.169 HD
ENDROOT
BRANCH   3  16
ATOM     16  C   UNL     1       4.703  -3.447   6.072  0.00  0.00    -0.009 A 
ATOM     17  C   UNL     1       3.871  -3.312   7.168  0.00  0.00    +0.007 A 
ATOM     18  C   UNL     1       4.260  -2.529   8.239  0.00  0.00    +0.000 A 
ATOM     19  C   UNL     1       5.480  -1.880   8.214  0.00  0.00    +0.001 A 
ATOM     20  C   UNL     1       6.312  -2.013   7.119  0.00  0.00    +0.020 A 
ATOM     21  C   UNL     1       5.927  -2.802   6.050  0.00  0.00    +0.046 A 
ATOM     22 CL   UNL     1       6.974  -2.975   4.676  0.00  0.00    -0.083 Cl
ENDBRANCH   3  16
BRANCH   1  26
ATOM     23  C   UNL     1       0.626  -0.618   1.042  0.00  0.00    +0.120 A 
ATOM     24  C   UNL     1       1.202   0.138   2.051  0.00  0.00    +0.046 A 
ATOM     25  C   UNL     1       1.835  -0.488   3.107  0.00  0.00    +0.009 A 
ATOM     26  C   UNL     1       1.895  -1.869   3.158  0.00  0.00    -0.024 A 
ATOM     27  C   UNL     1       1.322  -2.625   2.152  0.00  0.00    +0.009 A 
ATOM     28  C   UNL     1       0.682  -2.003   1.098  0.00  0.00    +0.046 A 
BRANCH  23  30
ATOM     29  C   UNL     1      -0.017   1.425   0.010  0.00  0.00    +0.277 C 
ATOM     30  O   UNL     1       0.002  -0.004   0.002  0.00  0.00    -0.495 OA
ENDBRANCH  23  30
ENDBRANCH   1  26
TORSDOF 3
