REMARK  Name = ZINC67481930
REMARK  8 active torsions:
REMARK  status: ('A' for Active; 'I' for Inactive)
REMARK    1  A    between atoms: C_1  and  C_2
REMARK    2  A    between atoms: C_4  and  C_8
REMARK    3  A    between atoms: C_5  and  C_7
REMARK    4  A    between atoms: N_10  and  N_11
REMARK    5  A    between atoms: N_14  and  C_15
REMARK    6  A    between atoms: C_15  and  C_16
REMARK    7  A    between atoms: N_21  and  C_22
REMARK    8  A    between atoms: C_22  and  C_23
REMARK                            x       y       z     vdW  Elec       q    Type
REMARK                         _______ _______ _______ _____ _____    ______ ____
ROOT
ATOM      1  N   UNL     1      -3.464  -4.540  -0.007  0.00  0.00    -0.218 N 
ATOM      2  C   UNL     1      -4.811  -4.480  -0.001  0.00  0.00    +0.316 C 
ATOM      3  O   UNL     1      -5.465  -5.505  -0.003  0.00  0.00    -0.251 OA
ATOM      4  N   UNL     1      -5.432  -3.284   0.008  0.00  0.00    -0.300 N 
ATOM      5  H   UNL     1      -3.017  -5.400  -0.013  0.00  0.00    +0.174 HD
ATOM      6  H   UNL     1      -4.910  -2.466   0.010  0.00  0.00    +0.150 HD
ENDROOT
BRANCH   1   9
ATOM      7  C   UNL     1      -1.364  -3.418  -0.010  0.00  0.00    +0.263 C 
ATOM      8  O   UNL     1      -0.804  -4.497  -0.018  0.00  0.00    -0.269 OA
ATOM      9  N   UNL     1      -2.711  -3.358  -0.004  0.00  0.00    -0.229 N 
ATOM     10  H   UNL     1      -3.158  -2.498   0.002  0.00  0.00    +0.173 HD
BRANCH   7  14
ATOM     11  C   UNL     1      -0.018   1.503   0.010  0.00  0.00    +0.086 C 
ATOM     12  C   UNL     1       0.002  -0.004   0.002  0.00  0.00    +0.103 A 
ATOM     13  C   UNL     1      -1.081  -0.797   0.003  0.00  0.00    +0.057 A 
ATOM     14  C   UNL     1      -0.571  -2.176  -0.007  0.00  0.00    +0.079 A 
ATOM     15  C   UNL     1       0.788  -2.066  -0.013  0.00  0.00    +0.114 A 
ATOM     16  O   UNL     1       1.106  -0.767  -0.013  0.00  0.00    -0.464 OA
ATOM     17  C   UNL     1       1.766  -3.212  -0.024  0.00  0.00    +0.087 C 
ENDBRANCH   7  14
ENDBRANCH   1   9
BRANCH   4  18
ATOM     18  C   UNL     1      -6.896  -3.219   0.015  0.00  0.00    +0.090 C 
BRANCH  18  19
ATOM     19  C   UNL     1      -7.341  -1.755   0.024  0.00  0.00    -0.051 C 
ATOM     20  C   UNL     1      -8.873  -1.671  -0.139  0.00  0.00    -0.016 C 
ATOM     21  C   UNL     1      -9.060  -0.432  -1.054  0.00  0.00    -0.020 C 
ATOM     22  C   UNL     1      -7.829  -0.543  -1.986  0.00  0.00    -0.078 C 
ATOM     23  N   UNL     1      -6.737  -1.039  -1.115  0.00  0.00    +0.383 N 
ATOM     24  H   UNL     1      -6.146  -1.669  -1.636  0.00  0.00    -0.081 HD
BRANCH  23  25
ATOM     25  C   UNL     1      -5.940   0.092  -0.622  0.00  0.00    -0.075 C 
BRANCH  25  26
ATOM     26  C   UNL     1      -5.216   0.755  -1.796  0.00  0.00    -0.028 C 
ATOM     27  C   UNL     1      -4.203  -0.225  -2.390  0.00  0.00    +0.002 C 
ATOM     28  C   UNL     1      -3.479   0.438  -3.563  0.00  0.00    +0.000 C 
ATOM     29  C   UNL     1      -2.749   1.689  -3.070  0.00  0.00    +0.000 C 
ATOM     30  C   UNL     1      -3.763   2.670  -2.476  0.00  0.00    +0.000 C 
ATOM     31  C   UNL     1      -4.487   2.006  -1.303  0.00  0.00    +0.002 C 
ENDBRANCH  25  26
ENDBRANCH  23  25
ENDBRANCH  18  19
ENDBRANCH   4  18
TORSDOF 6
