REMARK  Name = ZINC40578486
REMARK  4 active torsions:
REMARK  status: ('A' for Active; 'I' for Inactive)
REMARK    1  A    between atoms: C_1  and  C_2
REMARK    2  A    between atoms: C_2  and  C_4
REMARK    3  A    between atoms: C_2  and  N_7
REMARK    4  A    between atoms: C_12  and  C_21
REMARK                            x       y       z     vdW  Elec       q    Type
REMARK                         _______ _______ _______ _____ _____    ______ ____
ROOT
ATOM      1  N   UNL     1      -1.460  -0.326  -2.314  0.00  0.00    -0.288 N 
ATOM      2  C   UNL     1      -2.051  -0.643  -1.145  0.00  0.00    +0.307 C 
ATOM      3  O   UNL     1      -1.415  -0.594  -0.109  0.00  0.00    -0.252 OA
ATOM      4  N   UNL     1      -3.346  -1.013  -1.123  0.00  0.00    -0.248 N 
ATOM      5  C   UNL     1      -4.115  -1.172  -2.370  0.00  0.00    +0.171 C 
ATOM      6  C   UNL     1      -5.504  -0.561  -2.139  0.00  0.00    +0.303 C 
ATOM      7  O   UNL     1      -6.123  -1.226  -1.036  0.00  0.00    -0.474 OA
ATOM      8  C   UNL     1      -5.401  -1.361   0.108  0.00  0.00    +0.143 A 
ATOM      9  C   UNL     1      -4.011  -1.267   0.090  0.00  0.00    +0.080 A 
ATOM     10  C   UNL     1      -3.286  -1.417   1.260  0.00  0.00    +0.027 A 
ATOM     11  C   UNL     1      -3.944  -1.663   2.452  0.00  0.00    +0.002 A 
ATOM     12  C   UNL     1      -5.323  -1.760   2.474  0.00  0.00    +0.004 A 
ATOM     13  C   UNL     1      -6.054  -1.602   1.307  0.00  0.00    +0.047 A 
ATOM     14  H   UNL     1      -1.944  -0.435  -3.147  0.00  0.00    +0.151 HD
ENDROOT
BRANCH   6  15
ATOM     15  C   UNL     1      -6.346  -0.739  -3.377  0.00  0.00    +0.397 C 
ATOM     16  O   UNL     1      -7.340  -1.444  -3.341  0.00  0.00    -0.242 OA
ATOM     17  O   UNL     1      -6.033  -0.179  -4.413  0.00  0.00    -0.242 OA
ENDBRANCH   6  15
BRANCH   1  19
ATOM     18  C   UNL     1       0.893  -0.992  -2.317  0.00  0.00    +0.038 C 
ATOM     19  C   UNL     1      -0.086   0.183  -2.326  0.00  0.00    +0.157 C 
BRANCH  19  20
ATOM     20  C   UNL     1       0.132   1.010  -3.567  0.00  0.00    +0.231 C 
ATOM     21  O   UNL     1      -0.771   1.160  -4.362  0.00  0.00    -0.274 OA
ATOM     22  N   UNL     1       1.331   1.584  -3.792  0.00  0.00    -0.328 N 
ATOM     23  H   UNL     1       2.053   1.465  -3.155  0.00  0.00    +0.145 HD
ATOM     24  H   UNL     1       1.471   2.116  -4.590  0.00  0.00    +0.145 HD
ENDBRANCH  19  20
ENDBRANCH   1  19
TORSDOF 3
