REMARK  Name = ZINC43092509
REMARK  8 active torsions:
REMARK  status: ('A' for Active; 'I' for Inactive)
REMARK    1  A    between atoms: C_1  and  C_2
REMARK    2  A    between atoms: C_2  and  C_3
REMARK    3  A    between atoms: C_3  and  C_5
REMARK    4  A    between atoms: C_3  and  N_23
REMARK    5  A    between atoms: C_5  and  C_7
REMARK    6  A    between atoms: C_5  and  N_14
REMARK    7  A    between atoms: C_19  and  C_21
REMARK    8  A    between atoms: C_21  and  O_22
REMARK                            x       y       z     vdW  Elec       q    Type
REMARK                         _______ _______ _______ _____ _____    ______ ____
ROOT
ATOM      1  C   UNL     1      -1.477  -2.301  -0.412  0.00  0.00    +0.074 C 
ENDROOT
BRANCH   1   2
ATOM      2  C   UNL     1      -2.826  -2.918  -0.675  0.00  0.00    -0.018 A 
ATOM      3  C   UNL     1      -3.290  -3.040  -1.971  0.00  0.00    +0.006 A 
ATOM      4  C   UNL     1      -4.527  -3.608  -2.213  0.00  0.00    +0.000 A 
ATOM      5  C   UNL     1      -5.301  -4.053  -1.157  0.00  0.00    +0.001 A 
ATOM      6  C   UNL     1      -4.838  -3.932   0.139  0.00  0.00    +0.015 A 
ATOM      7  C   UNL     1      -3.598  -3.369   0.381  0.00  0.00    +0.022 A 
ATOM      8 BR   UNL     1      -2.961  -3.209   2.154  0.00  0.00    -0.050 Br
ENDBRANCH   1   2
BRANCH   1   9
ATOM      9  N   UNL     1      -0.600  -2.529  -1.569  0.00  0.00    -0.292 NA
ATOM     10  C   UNL     1      -0.738  -1.450  -2.555  0.00  0.00    +0.085 C 
ATOM     11  C   UNL     1       0.076  -1.792  -3.805  0.00  0.00    +0.015 C 
ATOM     12  C   UNL     1       1.546  -1.970  -3.418  0.00  0.00    +0.003 C 
ATOM     13  C   UNL     1       1.657  -3.066  -2.354  0.00  0.00    +0.021 C 
ATOM     14  C   UNL     1       0.798  -2.687  -1.146  0.00  0.00    +0.083 C 
BRANCH  14  15
ATOM     15  C   UNL     1       0.889  -3.789  -0.089  0.00  0.00    +0.174 C 
BRANCH  15  16
ATOM     16  O   UNL     1       0.485  -5.034  -0.662  0.00  0.00    -0.393 OA
ATOM     17  H   UNL     1       0.445  -5.763  -0.029  0.00  0.00    +0.209 HD
ENDBRANCH  15  16
ENDBRANCH  14  15
ENDBRANCH   1   9
BRANCH   1  18
ATOM     18  C   UNL     1      -1.640  -0.796  -0.185  0.00  0.00    -0.053 C 
BRANCH  18  19
ATOM     19  N   UNL     1      -2.579  -0.567   0.921  0.00  0.00    +0.381 N 
ATOM     20  H   UNL     1      -2.748   0.423   1.019  0.00  0.00    -0.090 HD
ATOM     21  H   UNL     1      -3.449  -1.040   0.727  0.00  0.00    -0.090 HD
ATOM     22  H   UNL     1      -2.184  -0.927   1.777  0.00  0.00    -0.090 HD
ENDBRANCH  18  19
BRANCH  18  24
ATOM     23  C   UNL     1      -0.447   1.321   0.394  0.00  0.00    +0.002 C 
ATOM     24  C   UNL     1      -0.282  -0.182   0.162  0.00  0.00    -0.018 C 
ENDBRANCH  18  24
ENDBRANCH   1  18
TORSDOF 7
