REMARK  Name = ZINC44458820
REMARK  4 active torsions:
REMARK  status: ('A' for Active; 'I' for Inactive)
REMARK    1  A    between atoms: C_5  and  N_7
REMARK    2  A    between atoms: C_8  and  C_10
REMARK    3  A    between atoms: C_10  and  N_11
REMARK    4  A    between atoms: C_12  and  C_14
REMARK                            x       y       z     vdW  Elec       q    Type
REMARK                         _______ _______ _______ _____ _____    ______ ____
ROOT
ATOM      1  C   UNL     1       0.118  -4.276   0.191  0.00  0.00    +0.200 C 
ENDROOT
BRANCH   1   3
ATOM      2  N   UNL     1       1.237  -2.080  -0.022  0.00  0.00    -0.283 N 
ATOM      3  C   UNL     1       0.086  -2.773   0.087  0.00  0.00    +0.234 C 
ATOM      4  O   UNL     1      -0.976  -2.187   0.102  0.00  0.00    -0.274 OA
ATOM      5  H   UNL     1       2.080  -2.551  -0.115  0.00  0.00    +0.155 HD
BRANCH   2  10
ATOM      6  C   UNL     1       0.153   1.372   0.637  0.00  0.00    +0.002 A 
ATOM      7  C   UNL     1       1.173   2.086   0.035  0.00  0.00    +0.002 A 
ATOM      8  C   UNL     1       2.214   1.422  -0.586  0.00  0.00    +0.022 A 
ATOM      9  C   UNL     1       2.239   0.040  -0.607  0.00  0.00    +0.062 A 
ATOM     10  C   UNL     1       1.216  -0.681  -0.003  0.00  0.00    +0.052 A 
ATOM     11  C   UNL     1       0.172  -0.009   0.620  0.00  0.00    +0.025 A 
ATOM     12 CL   UNL     1       3.546  -0.795  -1.388  0.00  0.00    -0.082 Cl
ENDBRANCH   2  10
ENDBRANCH   1   3
BRANCH   1  13
ATOM     13  N   UNL     1      -1.250  -4.788   0.299  0.00  0.00    -0.303 N 
ATOM     14  C   UNL     1      -1.467  -6.114   0.404  0.00  0.00    +0.246 C 
ATOM     15  O   UNL     1      -0.528  -6.886   0.409  0.00  0.00    -0.270 OA
ATOM     16  H   UNL     1      -2.000  -4.172   0.295  0.00  0.00    +0.150 HD
BRANCH  14  17
ATOM     17  C   UNL     1      -2.845  -6.629   0.513  0.00  0.00    +0.053 A 
ATOM     18  C   UNL     1      -3.943  -5.736   0.502  0.00  0.00    +0.020 A 
ATOM     19  C   UNL     1      -5.203  -6.238   0.604  0.00  0.00    +0.071 A 
ATOM     20  C   UNL     1      -5.387  -7.629   0.718  0.00  0.00    +0.249 A 
ATOM     21  O   UNL     1      -6.515  -8.085   0.809  0.00  0.00    -0.268 OA
ATOM     22  N   UNL     1      -4.329  -8.460   0.726  0.00  0.00    -0.328 N 
ATOM     23  H   UNL     1      -4.473  -9.416   0.804  0.00  0.00    +0.168 HD
ATOM     24  C   UNL     1      -3.074  -7.986   0.621  0.00  0.00    +0.099 A 
ENDBRANCH  14  17
ENDBRANCH   1  13
TORSDOF 4
