REMARK  Name = ZINC41249191
REMARK  5 active torsions:
REMARK  status: ('A' for Active; 'I' for Inactive)
REMARK    1  A    between atoms: C_1  and  C_2
REMARK    2  A    between atoms: C_7  and  C_8
REMARK    3  A    between atoms: N_10  and  C_11
REMARK    4  A    between atoms: C_11  and  C_13
REMARK    5  A    between atoms: C_11  and  C_14
REMARK                            x       y       z     vdW  Elec       q    Type
REMARK                         _______ _______ _______ _____ _____    ______ ____
ROOT
ATOM      1  C   UNL     1       0.590   0.074   4.881  0.00  0.00    +0.157 C 
ATOM      2  C   UNL     1      -0.804  -0.299   5.390  0.00  0.00    +0.038 C 
ENDROOT
BRANCH   1   3
ATOM      3  C   UNL     1       1.628  -0.400   5.865  0.00  0.00    +0.240 C 
ATOM      4  O   UNL     1       2.164  -1.477   5.709  0.00  0.00    -0.273 OA
ATOM      5  N   UNL     1       1.961   0.373   6.918  0.00  0.00    -0.269 N 
ATOM      6  C   UNL     1       1.300   1.629   7.281  0.00  0.00    +0.118 C 
ATOM      7  C   UNL     1       2.034   2.123   8.538  0.00  0.00    +0.056 C 
ATOM      8  C   UNL     1       3.090   1.073   8.799  0.00  0.00    -0.024 A 
ATOM      9  C   UNL     1       2.985   0.090   7.827  0.00  0.00    +0.040 A 
ATOM     10  C   UNL     1       3.860  -0.997   7.865  0.00  0.00    +0.024 A 
ATOM     11  C   UNL     1       4.812  -1.089   8.858  0.00  0.00    +0.002 A 
ATOM     12  C   UNL     1       4.906  -0.106   9.826  0.00  0.00    +0.000 A 
ATOM     13  C   UNL     1       4.048   0.978   9.790  0.00  0.00    +0.005 A 
ENDBRANCH   1   3
BRANCH   1  16
ATOM     14  C   UNL     1       0.390   0.035   2.453  0.00  0.00    +0.245 C 
ATOM     15  O   UNL     1      -0.191   1.101   2.513  0.00  0.00    -0.270 OA
ATOM     16  N   UNL     1       0.822  -0.561   3.582  0.00  0.00    -0.300 N 
ATOM     17  H   UNL     1       1.286  -1.412   3.534  0.00  0.00    +0.150 HD
BRANCH  14  24
ATOM     18  C   UNL     1      -0.773   1.188   0.068  0.00  0.00    +0.044 C 
ATOM     19  C   UNL     1       0.068  -0.059  -0.016  0.00  0.00    -0.038 A 
ATOM     20  C   UNL     1       0.295  -0.660  -1.237  0.00  0.00    +0.004 A 
ATOM     21  C   UNL     1       1.067  -1.805  -1.315  0.00  0.00    +0.000 A 
ATOM     22  C   UNL     1       1.617  -2.356  -0.171  0.00  0.00    +0.001 A 
ATOM     23  C   UNL     1       1.398  -1.766   1.056  0.00  0.00    +0.013 A 
ATOM     24  C   UNL     1       0.624  -0.607   1.142  0.00  0.00    +0.040 A 
ENDBRANCH  14  24
ENDBRANCH   1  16
TORSDOF 3
