REMARK  Name = ZINC55941212
REMARK  11 active torsions:
REMARK  status: ('A' for Active; 'I' for Inactive)
REMARK    1  A    between atoms: C_1  and  C_2
REMARK    2  A    between atoms: C_4  and  C_28
REMARK    3  A    between atoms: C_6  and  O_8
REMARK    4  A    between atoms: O_8  and  C_9
REMARK    5  A    between atoms: C_12  and  N_15
REMARK    6  A    between atoms: C_16  and  C_18
REMARK    7  A    between atoms: C_18  and  C_20
REMARK    8  A    between atoms: C_18  and  N_24
REMARK    9  A    between atoms: C_20  and  C_21
REMARK   10  A    between atoms: C_21  and  S_22
REMARK   11  A    between atoms: S_22  and  C_23
REMARK                            x       y       z     vdW  Elec       q    Type
REMARK                         _______ _______ _______ _____ _____    ______ ____
ROOT
ATOM      1  N   UNL     1       0.460   0.111   7.056  0.00  0.00    -0.284 N 
ATOM      2  C   UNL     1       0.933   1.373   7.033  0.00  0.00    +0.238 C 
ATOM      3  O   UNL     1       1.353   1.844   5.997  0.00  0.00    -0.273 OA
ATOM      4  H   UNL     1       0.205  -0.295   7.899  0.00  0.00    +0.155 HD
ENDROOT
BRANCH   1   8
ATOM      5  C   UNL     1       0.096  -2.045   3.506  0.00  0.00    +0.129 A 
ATOM      6  C   UNL     1       0.046  -0.659   3.484  0.00  0.00    +0.048 A 
ATOM      7  C   UNL     1       0.166   0.056   4.659  0.00  0.00    +0.027 A 
ATOM      8  C   UNL     1       0.338  -0.613   5.864  0.00  0.00    +0.034 A 
ATOM      9  C   UNL     1       0.388  -2.001   5.885  0.00  0.00    +0.027 A 
ATOM     10  C   UNL     1       0.262  -2.714   4.710  0.00  0.00    +0.048 A 
BRANCH   5  11
ATOM     11  O   UNL     1      -0.023  -2.748   2.349  0.00  0.00    -0.456 OA
BRANCH  11  17
ATOM     12  C   UNL     1       2.178   0.165  -0.891  0.00  0.00    +0.044 C 
ATOM     13  C   UNL     1       0.979  -0.622  -0.429  0.00  0.00    -0.047 A 
ATOM     14  C   UNL     1      -0.174  -0.637  -1.193  0.00  0.00    +0.007 A 
ATOM     15  C   UNL     1      -1.276  -1.358  -0.771  0.00  0.00    -0.047 A 
ATOM     16  C   UNL     1      -1.228  -2.066   0.414  0.00  0.00    +0.049 A 
ATOM     17  C   UNL     1      -0.073  -2.053   1.182  0.00  0.00    +0.129 A 
ATOM     18  C   UNL     1       1.034  -1.333   0.755  0.00  0.00    +0.049 A 
ATOM     19  C   UNL     1      -2.531  -1.371  -1.606  0.00  0.00    +0.044 C 
ENDBRANCH  11  17
ENDBRANCH   5  11
ENDBRANCH   1   8
BRANCH   2  20
ATOM     20  C   UNL     1       0.940   2.199   8.293  0.00  0.00    +0.161 C 
BRANCH  20  21
ATOM     21  N   UNL     1       1.032   3.619   7.946  0.00  0.00    -0.288 N 
ATOM     22  C   UNL     1       2.093   4.076   7.252  0.00  0.00    +0.298 C 
ATOM     23  O   UNL     1       2.974   3.309   6.914  0.00  0.00    -0.253 OA
ATOM     24  N   UNL     1       2.178   5.382   6.933  0.00  0.00    -0.313 N 
ATOM     25  H   UNL     1       0.329   4.231   8.216  0.00  0.00    +0.151 HD
ATOM     26  H   UNL     1       1.475   5.994   7.203  0.00  0.00    +0.146 HD
ATOM     27  H   UNL     1       2.942   5.711   6.434  0.00  0.00    +0.146 HD
ENDBRANCH  20  21
BRANCH  20  28
ATOM     28  C   UNL     1       2.142   1.805   9.155  0.00  0.00    +0.042 C 
BRANCH  28  29
ATOM     29  C   UNL     1       2.080   2.553  10.488  0.00  0.00    +0.071 C 
BRANCH  29  30
ATOM     30  S   UNL     1       3.505   2.086  11.509  0.00  0.00    -0.164 S 
ATOM     31  C   UNL     1       3.286   3.045  13.033  0.00  0.00    +0.084 C 
ENDBRANCH  29  30
ENDBRANCH  28  29
ENDBRANCH  20  28
ENDBRANCH   2  20
TORSDOF 8
