REMARK  Name = ZINC04551067
REMARK  3 active torsions:
REMARK  status: ('A' for Active; 'I' for Inactive)
REMARK    1  A    between atoms: C_3  and  C_9
REMARK    2  A    between atoms: C_22  and  N_26
REMARK    3  A    between atoms: C_23  and  C_24
REMARK                            x       y       z     vdW  Elec       q    Type
REMARK                         _______ _______ _______ _____ _____    ______ ____
ROOT
ATOM      1  C   UNL     1       1.264   2.140   0.002  0.00  0.00    +0.106 C 
ATOM      2  C   UNL     1       2.410   1.261  -0.418  0.00  0.00    +0.090 A 
ATOM      3  C   UNL     1       3.622   1.845  -0.834  0.00  0.00    +0.262 A 
ATOM      4  O   UNL     1       3.744   3.057  -0.855  0.00  0.00    -0.267 OA
ATOM      5  N   UNL     1       4.647   1.054  -1.208  0.00  0.00    -0.275 N 
ATOM      6  H   UNL     1       5.510   1.464  -1.504  0.00  0.00    +0.173 HD
ATOM      7  C   UNL     1       4.516  -0.285  -1.186  0.00  0.00    +0.329 A 
ATOM      8  O   UNL     1       5.451  -0.984  -1.526  0.00  0.00    -0.247 OA
ATOM      9  N   UNL     1       3.367  -0.863  -0.793  0.00  0.00    -0.278 N 
ATOM     10  H   UNL     1       3.290  -1.860  -0.785  0.00  0.00    +0.173 HD
ATOM     11  C   UNL     1       2.296  -0.093  -0.403  0.00  0.00    +0.214 A 
ATOM     12  O   UNL     1       1.156  -0.694  -0.012  0.00  0.00    -0.425 OA
ATOM     13  C   UNL     1       0.002  -0.004   0.002  0.00  0.00    +0.200 C 
ATOM     14  C   UNL     1      -0.016   1.350   0.009  0.00  0.00    +0.098 C 
ENDROOT
BRANCH   1  17
ATOM     15  C   UNL     1       1.917   2.302   3.717  0.00  0.00    +0.002 A 
ATOM     16  C   UNL     1       1.670   1.809   2.449  0.00  0.00    +0.006 A 
ATOM     17  C   UNL     1       1.527   2.678   1.384  0.00  0.00    -0.015 A 
ATOM     18  C   UNL     1       1.621   4.043   1.588  0.00  0.00    +0.063 A 
ATOM     19  C   UNL     1       1.862   4.537   2.859  0.00  0.00    +0.060 A 
ATOM     20  C   UNL     1       2.010   3.666   3.923  0.00  0.00    +0.021 A 
ATOM     21 CL   UNL     1       1.980   6.250   3.117  0.00  0.00    -0.082 Cl
ATOM     22 CL   UNL     1       1.435   5.136   0.252  0.00  0.00    -0.082 Cl
ENDBRANCH   1  17
BRANCH  13  23
ATOM     23  N   UNL     1      -1.187  -0.690   0.010  0.00  0.00    -0.328 N 
ATOM     24  H   UNL     1      -2.027  -0.204   0.020  0.00  0.00    +0.145 HD
ATOM     25  H   UNL     1      -1.188  -1.660   0.004  0.00  0.00    +0.145 HD
ENDBRANCH  13  23
BRANCH  14  26
ATOM     26  C   UNL     1      -1.271   2.040   0.019  0.00  0.00    +0.101 C 
ATOM     27  N   UNL     1      -2.267   2.587   0.027  0.00  0.00    -0.191 NA
ENDBRANCH  14  26
TORSDOF 3
