REMARK  Name = ZINC49590282
REMARK  6 active torsions:
REMARK  status: ('A' for Active; 'I' for Inactive)
REMARK    1  A    between atoms: C_1  and  C_2
REMARK    2  A    between atoms: C_5  and  N_8
REMARK    3  A    between atoms: C_10  and  C_15
REMARK    4  A    between atoms: C_15  and  N_17
REMARK    5  A    between atoms: N_24  and  C_27
REMARK    6  A    between atoms: C_27  and  C_28
REMARK                            x       y       z     vdW  Elec       q    Type
REMARK                         _______ _______ _______ _____ _____    ______ ____
ROOT
ATOM      1  N   UNL     1       0.291  -8.760   1.201  0.00  0.00    -0.156 NA
ATOM      2  C   UNL     1       1.011  -9.703   1.813  0.00  0.00    +0.163 A 
ATOM      3  N   UNL     1       2.021  -9.544   2.710  0.00  0.00    -0.339 N 
ATOM      4  C   UNL     1       2.641 -10.646   3.229  0.00  0.00    +0.024 A 
ATOM      5  C   UNL     1       2.178 -11.827   2.787  0.00  0.00    -0.004 A 
ATOM      6  S   UNL     1       0.885 -11.375   1.667  0.00  0.00    -0.059 S 
ATOM      7  C   UNL     1       2.668 -13.183   3.177  0.00  0.00    -0.033 C 
ATOM      8  N   UNL     1       3.979 -13.032   3.835  0.00  0.00    +0.386 N 
ATOM      9  C   UNL     1       3.887 -12.002   4.878  0.00  0.00    -0.072 C 
ATOM     10  C   UNL     1       3.779 -10.612   4.242  0.00  0.00    +0.035 C 
ATOM     11  H   UNL     1       2.299  -8.655   2.979  0.00  0.00    +0.167 HD
ATOM     12  H   UNL     1       4.669 -12.758   3.152  0.00  0.00    -0.081 HD
ENDROOT
BRANCH   1  13
ATOM     13  C   UNL     1       0.533  -7.479   1.442  0.00  0.00    +0.243 C 
ATOM     14  O   UNL     1       1.413  -7.162   2.220  0.00  0.00    -0.273 OA
BRANCH  13  17
ATOM     15  N   UNL     1       0.059  -4.170  -0.021  0.00  0.00    -0.271 N 
ATOM     16  C   UNL     1       0.176  -5.003   1.182  0.00  0.00    +0.127 C 
ATOM     17  C   UNL     1      -0.280  -6.415   0.751  0.00  0.00    +0.103 C 
ATOM     18  C   UNL     1       0.013  -6.391  -0.767  0.00  0.00    +0.110 C 
ATOM     19  C   UNL     1      -0.034  -4.923  -1.130  0.00  0.00    +0.221 C 
ATOM     20  O   UNL     1      -0.139  -4.490  -2.258  0.00  0.00    -0.275 OA
BRANCH  15  25
ATOM     21  C   UNL     1      -0.018   1.503   0.010  0.00  0.00    +0.044 C 
ATOM     22  C   UNL     1       0.002  -0.004   0.002  0.00  0.00    -0.050 A 
ATOM     23  C   UNL     1       0.020  -0.687  -1.200  0.00  0.00    +0.005 A 
ATOM     24  C   UNL     1       0.039  -2.068  -1.211  0.00  0.00    +0.024 A 
ATOM     25  C   UNL     1       0.040  -2.771  -0.013  0.00  0.00    +0.036 A 
ATOM     26  C   UNL     1       0.022  -2.082   1.192  0.00  0.00    +0.024 A 
ATOM     27  C   UNL     1       0.009  -0.701   1.197  0.00  0.00    +0.005 A 
ENDBRANCH  15  25
ENDBRANCH  13  17
ENDBRANCH   1  13
BRANCH   8  28
ATOM     28  C   UNL     1       4.373 -14.310   4.443  0.00  0.00    -0.043 C 
BRANCH  28  29
ATOM     29  C   UNL     1       4.586 -15.336   3.360  0.00  0.00    -0.064 A 
ATOM     30  C   UNL     1       3.531 -16.122   2.934  0.00  0.00    +0.002 A 
ATOM     31  C   UNL     1       3.727 -17.063   1.941  0.00  0.00    +0.000 A 
ATOM     32  C   UNL     1       4.977 -17.218   1.373  0.00  0.00    +0.000 A 
ATOM     33  C   UNL     1       6.032 -16.432   1.798  0.00  0.00    +0.000 A 
ATOM     34  C   UNL     1       5.835 -15.488   2.788  0.00  0.00    +0.002 A 
ENDBRANCH  28  29
ENDBRANCH   8  28
TORSDOF 5
