REMARK  Name = ZINC40334462
REMARK  5 active torsions:
REMARK  status: ('A' for Active; 'I' for Inactive)
REMARK    1  A    between atoms: C_1  and  C_2
REMARK    2  A    between atoms: C_6  and  C_21
REMARK    3  A    between atoms: N_9  and  S_10
REMARK    4  A    between atoms: S_10  and  C_13
REMARK    5  A    between atoms: C_18  and  N_19
REMARK                            x       y       z     vdW  Elec       q    Type
REMARK                         _______ _______ _______ _____ _____    ______ ____
ROOT
ATOM      1  S   UNL     1       1.410   0.716   2.312  0.00  0.00    +0.063 S 
ATOM      2  O   UNL     1       2.830   0.758   2.355  0.00  0.00    -0.153 OA
ATOM      3  O   UNL     1       0.621   1.873   2.072  0.00  0.00    -0.153 OA
ENDROOT
BRANCH   1  10
ATOM      4  C   UNL     1      -0.276   1.462   0.164  0.00  0.00    +0.026 C 
ATOM      5  C   UNL     1       0.062  -0.027   0.074  0.00  0.00    +0.077 C 
ATOM      6  C   UNL     1       0.713  -0.325  -1.280  0.00  0.00    +0.021 C 
ATOM      7  C   UNL     1       1.174  -1.784  -1.310  0.00  0.00    +0.015 C 
ATOM      8  C   UNL     1       2.215  -2.014  -0.213  0.00  0.00    +0.090 C 
ATOM      9  C   UNL     1       1.581  -1.736   1.154  0.00  0.00    +0.122 C 
ATOM     10  N   UNL     1       1.004  -0.384   1.143  0.00  0.00    -0.173 NA
BRANCH   8  11
ATOM     11  C   UNL     1       3.384  -1.086  -0.424  0.00  0.00    +0.215 C 
ATOM     12  O   UNL     1       3.682  -0.282   0.433  0.00  0.00    -0.276 OA
ATOM     13  N   UNL     1       4.096  -1.149  -1.567  0.00  0.00    -0.329 N 
ATOM     14  H   UNL     1       3.857  -1.792  -2.253  0.00  0.00    +0.145 HD
ATOM     15  H   UNL     1       4.848  -0.552  -1.703  0.00  0.00    +0.145 HD
ENDBRANCH   8  11
ENDBRANCH   1  10
BRANCH   1  16
ATOM     16  C   UNL     1       0.879   0.056   3.857  0.00  0.00    +0.126 A 
ATOM     17  C   UNL     1       1.809  -0.280   4.822  0.00  0.00    +0.031 A 
ATOM     18  C   UNL     1       1.393  -0.798   6.034  0.00  0.00    +0.017 A 
ATOM     19  C   UNL     1       0.045  -0.982   6.286  0.00  0.00    +0.020 A 
ATOM     20  C   UNL     1      -0.890  -0.649   5.325  0.00  0.00    +0.040 A 
ATOM     21  C   UNL     1      -0.475  -0.123   4.108  0.00  0.00    +0.052 A 
ATOM     22 BR   UNL     1      -0.518  -1.692   7.946  0.00  0.00    -0.050 Br
BRANCH  21  23
ATOM     23  N   UNL     1      -1.418   0.221   3.136  0.00  0.00    -0.356 N 
ATOM     24  H   UNL     1      -1.129   0.604   2.294  0.00  0.00    +0.142 HD
ATOM     25  H   UNL     1      -2.363   0.075   3.304  0.00  0.00    +0.142 HD
ENDBRANCH  21  23
ENDBRANCH   1  16
TORSDOF 4
