REMARK  Name = ZINC41531298
REMARK  6 active torsions:
REMARK  status: ('A' for Active; 'I' for Inactive)
REMARK    1  A    between atoms: C_1  and  C_2
REMARK    2  A    between atoms: C_2  and  N_3
REMARK    3  A    between atoms: N_8  and  C_9
REMARK    4  A    between atoms: C_17  and  S_21
REMARK    5  A    between atoms: C_18  and  C_19
REMARK    6  A    between atoms: S_21  and  C_22
REMARK                            x       y       z     vdW  Elec       q    Type
REMARK                         _______ _______ _______ _____ _____    ______ ____
ROOT
ATOM      1  C   UNL     1       3.629  -1.329   4.610  0.00  0.00    +0.062 A 
ATOM      2  C   UNL     1       4.624  -0.940   5.541  0.00  0.00    +0.023 A 
ATOM      3  C   UNL     1       5.505   0.114   5.260  0.00  0.00    +0.012 A 
ATOM      4  C   UNL     1       6.451   0.465   6.176  0.00  0.00    +0.001 A 
ATOM      5  C   UNL     1       6.553  -0.211   7.388  0.00  0.00    +0.002 A 
ATOM      6  C   UNL     1       5.713  -1.239   7.692  0.00  0.00    +0.028 A 
ATOM      7  C   UNL     1       4.725  -1.628   6.773  0.00  0.00    +0.074 A 
ATOM      8  N   UNL     1       3.889  -2.637   7.055  0.00  0.00    -0.239 NA
ATOM      9  C   UNL     1       2.954  -3.023   6.212  0.00  0.00    +0.117 A 
ATOM     10  C   UNL     1       2.781  -2.386   4.962  0.00  0.00    +0.105 A 
ENDROOT
BRANCH   1  16
ATOM     11  N   UNL     1       1.057   1.668   2.301  0.00  0.00    -0.270 N 
ATOM     12  C   UNL     1       0.530   1.323   3.495  0.00  0.00    +0.110 A 
ATOM     13  C   UNL     1       1.352   0.412   4.064  0.00  0.00    +0.065 A 
ATOM     14  C   UNL     1       2.424   0.190   3.184  0.00  0.00    +0.145 A 
ATOM     15  N   UNL     1       2.242   0.942   2.124  0.00  0.00    -0.156 NA
ATOM     16  N   UNL     1       3.497  -0.683   3.398  0.00  0.00    -0.296 N 
ATOM     17  H   UNL     1       4.147  -0.835   2.695  0.00  0.00    +0.154 HD
BRANCH  11  19
ATOM     18  C   UNL     1       1.529   3.699   1.023  0.00  0.00    +0.029 C 
ATOM     19  C   UNL     1       0.486   2.629   1.354  0.00  0.00    +0.140 C 
ENDBRANCH  11  19
ENDBRANCH   1  16
BRANCH  10  20
ATOM     20  C   UNL     1       1.753  -2.820   4.064  0.00  0.00    +0.104 C 
ATOM     21  N   UNL     1       0.938  -3.164   3.351  0.00  0.00    -0.191 NA
ENDBRANCH  10  20
BRANCH   9  22
ATOM     22  S   UNL     1       1.892  -4.359   6.653  0.00  0.00    -0.108 S 
ATOM     23  C   UNL     1       2.466  -4.848   8.303  0.00  0.00    +0.091 C 
ENDBRANCH   9  22
TORSDOF 4
