REMARK  Name = ZINC18199690
REMARK  6 active torsions:
REMARK  status: ('A' for Active; 'I' for Inactive)
REMARK    1  A    between atoms: C_1  and  O_2
REMARK    2  A    between atoms: O_2  and  C_3
REMARK    3  A    between atoms: C_5  and  C_10
REMARK    4  A    between atoms: C_8  and  O_9
REMARK    5  A    between atoms: C_12  and  C_25
REMARK    6  A    between atoms: C_13  and  N_24
REMARK                            x       y       z     vdW  Elec       q    Type
REMARK                         _______ _______ _______ _____ _____    ______ ____
ROOT
ATOM      1  C   UNL     1      -3.724   1.562   0.016  0.00  0.00    +0.164 C 
ATOM      2  C   UNL     1      -2.362   0.923   0.018  0.00  0.00    +0.092 C 
ATOM      3  C   UNL     1      -1.210   1.637   0.017  0.00  0.00    +0.104 C 
ATOM      4  N   UNL     1      -1.205   3.016   0.030  0.00  0.00    -0.273 N 
ATOM      5  C   UNL     1      -2.399   3.661   0.311  0.00  0.00    +0.203 A 
ATOM      6  N   UNL     1      -3.600   2.989   0.319  0.00  0.00    -0.299 N 
ATOM      7  C   UNL     1      -4.568   3.895   0.646  0.00  0.00    +0.071 A 
ATOM      8  C   UNL     1      -5.944   3.792   0.807  0.00  0.00    +0.028 A 
ATOM      9  C   UNL     1      -6.628   4.947   1.150  0.00  0.00    +0.002 A 
ATOM     10  C   UNL     1      -5.981   6.158   1.327  0.00  0.00    +0.002 A 
ATOM     11  C   UNL     1      -4.613   6.287   1.173  0.00  0.00    +0.030 A 
ATOM     12  C   UNL     1      -3.901   5.133   0.828  0.00  0.00    +0.091 A 
ATOM     13  N   UNL     1      -2.589   4.919   0.608  0.00  0.00    -0.214 NA
ATOM     14  H   UNL     1      -0.395   3.518  -0.155  0.00  0.00    +0.156 HD
ENDROOT
BRANCH   1  17
ATOM     15  C   UNL     1      -6.134   0.553  -2.713  0.00  0.00    +0.162 A 
ATOM     16  C   UNL     1      -5.549   0.706  -1.466  0.00  0.00    +0.055 A 
ATOM     17  C   UNL     1      -4.355   1.392  -1.342  0.00  0.00    -0.016 A 
ATOM     18  C   UNL     1      -3.736   1.917  -2.461  0.00  0.00    +0.010 A 
ATOM     19  C   UNL     1      -4.312   1.763  -3.708  0.00  0.00    +0.049 A 
ATOM     20  C   UNL     1      -5.511   1.081  -3.839  0.00  0.00    +0.158 A 
BRANCH  15  22
ATOM     21  C   UNL     1      -7.893  -0.632  -1.637  0.00  0.00    +0.277 C 
ATOM     22  O   UNL     1      -7.311  -0.117  -2.836  0.00  0.00    -0.491 OA
ENDBRANCH  15  22
BRANCH  20  23
ATOM     23  O   UNL     1      -6.078   0.930  -5.066  0.00  0.00    -0.503 OA
ATOM     24  H   UNL     1      -5.800   0.129  -5.532  0.00  0.00    +0.292 HD
ENDBRANCH  20  23
ENDBRANCH   1  17
BRANCH   3  25
ATOM     25  N   UNL     1      -0.011   0.966   0.007  0.00  0.00    -0.345 N 
ATOM     26  H   UNL     1       0.002  -0.004   0.002  0.00  0.00    +0.144 HD
ATOM     27  H   UNL     1       0.822   1.462   0.002  0.00  0.00    +0.144 HD
ENDBRANCH   3  25
BRANCH   2  28
ATOM     28  C   UNL     1      -2.280  -0.507   0.023  0.00  0.00    +0.100 C 
ATOM     29  N   UNL     1      -2.214  -1.641   0.026  0.00  0.00    -0.191 NA
ENDBRANCH   2  28
TORSDOF 5
