REMARK  Name = ZINC63407625
REMARK  10 active torsions:
REMARK  status: ('A' for Active; 'I' for Inactive)
REMARK    1  A    between atoms: C_1  and  C_2
REMARK    2  A    between atoms: C_2  and  C_3
REMARK    3  A    between atoms: C_3  and  C_4
REMARK    4  A    between atoms: C_3  and  N_5
REMARK    5  A    between atoms: C_6  and  C_8
REMARK    6  A    between atoms: C_8  and  C_9
REMARK    7  A    between atoms: C_9  and  N_10
REMARK    8  A    between atoms: N_13  and  C_14
REMARK    9  A    between atoms: N_17  and  C_20
REMARK   10  A    between atoms: C_20  and  C_21
REMARK                            x       y       z     vdW  Elec       q    Type
REMARK                         _______ _______ _______ _____ _____    ______ ____
ROOT
ATOM      1  N   UNL     1       5.958   0.939   3.997  0.00  0.00    -0.299 N 
ATOM      2  C   UNL     1       6.745   1.088   5.081  0.00  0.00    +0.300 C 
ATOM      3  O   UNL     1       6.283   0.932   6.194  0.00  0.00    -0.253 OA
ATOM      4  N   UNL     1       8.045   1.411   4.930  0.00  0.00    -0.297 N 
ATOM      5  H   UNL     1       6.326   1.063   3.109  0.00  0.00    +0.150 HD
ATOM      6  H   UNL     1       8.413   1.536   4.041  0.00  0.00    +0.151 HD
ENDROOT
BRANCH   4   7
ATOM      7  C   UNL     1       8.900   1.574   6.108  0.00  0.00    +0.071 C 
ATOM      8  C   UNL     1       8.769   3.003   6.643  0.00  0.00    +0.004 C 
ATOM      9  C   UNL     1       9.724   3.189   7.824  0.00  0.00    -0.077 C 
ATOM     10  N   UNL     1      11.104   2.956   7.383  0.00  0.00    +0.380 N 
ATOM     11  C   UNL     1      11.256   1.566   6.935  0.00  0.00    -0.077 C 
ATOM     12  C   UNL     1      10.360   1.317   5.720  0.00  0.00    +0.004 C 
ATOM     13  H   UNL     1      11.323   3.580   6.620  0.00  0.00    -0.082 HD
BRANCH  10  14
ATOM     14  C   UNL     1      12.024   3.212   8.499  0.00  0.00    -0.075 C 
BRANCH  14  15
ATOM     15  C   UNL     1      11.986   4.698   8.860  0.00  0.00    -0.028 C 
ATOM     16  C   UNL     1      12.574   5.537   7.707  0.00  0.00    +0.002 C 
ATOM     17  C   UNL     1      13.345   6.676   8.420  0.00  0.00    +0.000 C 
ATOM     18  C   UNL     1      13.963   5.955   9.644  0.00  0.00    +0.000 C 
ATOM     19  C   UNL     1      12.870   4.964  10.092  0.00  0.00    +0.002 C 
ENDBRANCH  14  15
ENDBRANCH  10  14
ENDBRANCH   4   7
BRANCH   1  20
ATOM     20  C   UNL     1       4.545   0.587   4.161  0.00  0.00    +0.115 C 
BRANCH  20  21
ATOM     21  C   UNL     1       3.883   0.480   2.786  0.00  0.00    +0.114 C 
BRANCH  21  23
ATOM     22  N   UNL     1       1.643  -0.031   1.871  0.00  0.00    -0.313 N 
ATOM     23  C   UNL     1       2.430   0.118   2.954  0.00  0.00    +0.215 C 
ATOM     24  O   UNL     1       1.969  -0.038   4.065  0.00  0.00    -0.276 OA
ATOM     25  H   UNL     1       2.011   0.094   0.982  0.00  0.00    +0.149 HD
BRANCH  22  26
ATOM     26  C   UNL     1       0.230  -0.383   2.034  0.00  0.00    +0.070 C 
ATOM     27  C   UNL     1       0.093  -1.901   2.162  0.00  0.00    +0.028 C 
BRANCH  26  29
ATOM     28  C   UNL     1      -0.527   1.629   0.761  0.00  0.00    +0.005 C 
ATOM     29  C   UNL     1      -0.560   0.100   0.817  0.00  0.00    +0.018 C 
ENDBRANCH  26  29
ENDBRANCH  22  26
ENDBRANCH  21  23
ENDBRANCH  20  21
ENDBRANCH   1  20
TORSDOF 8
