REMARK  Name = ZINC51296507
REMARK  5 active torsions:
REMARK  status: ('A' for Active; 'I' for Inactive)
REMARK    1  A    between atoms: C_1  and  C_2
REMARK    2  A    between atoms: C_4  and  C_7
REMARK    3  A    between atoms: C_7  and  S_8
REMARK    4  A    between atoms: S_8  and  N_11
REMARK    5  A    between atoms: C_18  and  N_21
REMARK                            x       y       z     vdW  Elec       q    Type
REMARK                         _______ _______ _______ _____ _____    ______ ____
ROOT
ATOM      1  N   UNL     1      -2.813  -5.202  -1.591  0.00  0.00    -0.207 N 
ATOM      2  C   UNL     1      -2.221  -6.545  -1.646  0.00  0.00    +0.131 C 
ATOM      3  C   UNL     1      -3.097  -7.406  -2.566  0.00  0.00    +0.025 C 
ATOM      4  C   UNL     1      -4.489  -7.532  -1.946  0.00  0.00    +0.038 C 
ATOM      5  C   UNL     1      -5.034  -6.173  -1.592  0.00  0.00    -0.025 A 
ATOM      6  C   UNL     1      -4.197  -5.078  -1.422  0.00  0.00    +0.056 A 
ATOM      7  C   UNL     1      -4.728  -3.840  -1.086  0.00  0.00    +0.047 A 
ATOM      8  C   UNL     1      -6.098  -3.695  -0.917  0.00  0.00    +0.026 A 
ATOM      9  C   UNL     1      -6.933  -4.793  -1.085  0.00  0.00    +0.023 A 
ATOM     10  C   UNL     1      -6.401  -6.023  -1.428  0.00  0.00    +0.007 A 
ENDROOT
BRANCH   1  11
ATOM     11  S   UNL     1      -1.858  -3.855  -1.721  0.00  0.00    +0.051 S 
ATOM     12  O   UNL     1      -2.666  -2.902  -2.399  0.00  0.00    -0.155 OA
ATOM     13  O   UNL     1      -0.649  -4.323  -2.301  0.00  0.00    -0.155 OA
BRANCH  11  14
ATOM     14  C   UNL     1      -1.567  -3.324  -0.011  0.00  0.00    +0.247 C 
BRANCH  14  18
ATOM     15  C   UNL     1      -0.103   1.556  -0.067  0.00  0.00    +0.089 C 
ATOM     16  C   UNL     1      -0.078   0.049  -0.034  0.00  0.00    +0.135 A 
ATOM     17  C   UNL     1      -1.153  -0.761  -0.052  0.00  0.00    +0.072 A 
ATOM     18  C   UNL     1      -0.699  -2.092  -0.009  0.00  0.00    +0.107 A 
ATOM     19  N   UNL     1       0.603  -2.073   0.035  0.00  0.00    -0.081 NA
ATOM     20  O   UNL     1       1.021  -0.720   0.014  0.00  0.00    -0.360 OA
ENDBRANCH  14  18
ENDBRANCH  11  14
ENDBRANCH   1  11
BRANCH   8  21
ATOM     21  N   UNL     1      -6.635  -2.451  -0.579  0.00  0.00    -0.358 N 
ATOM     22  H   UNL     1      -6.050  -1.686  -0.461  0.00  0.00    +0.142 HD
ATOM     23  H   UNL     1      -7.593  -2.352  -0.461  0.00  0.00    +0.142 HD
ENDBRANCH   8  21
TORSDOF 4
