REMARK  Name = ZINC63386421
REMARK  2 active torsions:
REMARK  status: ('A' for Active; 'I' for Inactive)
REMARK    1  A    between atoms: C_7  and  O_30
REMARK    2  A    between atoms: C_9  and  C_14
REMARK                            x       y       z     vdW  Elec       q    Type
REMARK                         _______ _______ _______ _____ _____    ______ ____
ROOT
ATOM      1  C   UNL     1       2.632  -2.623   1.951  0.00  0.00    +0.097 C 
ATOM      2  C   UNL     1       3.973  -3.192   2.422  0.00  0.00    +0.124 C 
ATOM      3  C   UNL     1       3.928  -3.183   3.946  0.00  0.00    -0.036 C 
ATOM      4  C   UNL     1       5.005  -2.523   4.349  0.00  0.00    +0.001 A 
ATOM      5  C   UNL     1       5.550  -2.260   5.691  0.00  0.00    +0.030 A 
ATOM      6  C   UNL     1       6.691  -1.521   5.741  0.00  0.00    +0.042 A 
ATOM      7  C   UNL     1       7.335  -1.023   4.603  0.00  0.00    +0.022 A 
ATOM      8  C   UNL     1       6.907  -1.222   3.331  0.00  0.00    +0.027 A 
ATOM      9  C   UNL     1       5.720  -1.989   3.150  0.00  0.00    +0.043 A 
ATOM     10  N   UNL     1       5.107  -2.352   2.040  0.00  0.00    -0.376 N 
ATOM     11 CL   UNL     1       7.382  -1.177   7.295  0.00  0.00    -0.084 Cl
ATOM     12  C   UNL     1       2.761  -3.764   4.708  0.00  0.00    +0.048 C 
ATOM     13  C   UNL     1       1.491  -3.200   4.045  0.00  0.00    +0.085 C 
ATOM     14  N   UNL     1       1.552  -3.390   2.593  0.00  0.00    -0.310 NA
ATOM     15  H   UNL     1       0.662  -3.188   2.164  0.00  0.00    +0.122 HD
ATOM     16  H   UNL     1       5.352  -2.108   1.133  0.00  0.00    +0.160 HD
ENDROOT
BRANCH   1  24
ATOM     17  C   UNL     1      -0.017   1.377   0.010  0.00  0.00    +0.001 A 
ATOM     18  C   UNL     1       1.171   2.084   0.002  0.00  0.00    +0.004 A 
ATOM     19  C   UNL     1       2.374   1.409  -0.009  0.00  0.00    +0.047 A 
ATOM     20  C   UNL     1       2.396   0.018  -0.015  0.00  0.00    +0.137 A 
ATOM     21  C   UNL     1       1.207  -0.689  -0.014  0.00  0.00    +0.024 A 
ATOM     22  C   UNL     1       0.002  -0.004   0.002  0.00  0.00    +0.010 A 
ATOM     23  C   UNL     1       1.177  -2.196  -0.043  0.00  0.00    +0.163 C 
ATOM     24  C   UNL     1       2.523  -2.752   0.431  0.00  0.00    +0.150 C 
ATOM     25  C   UNL     1       3.615  -1.939  -0.235  0.00  0.00    +0.320 C 
ATOM     26  O   UNL     1       4.456  -2.458  -0.931  0.00  0.00    -0.250 OA
ATOM     27  O   UNL     1       3.604  -0.609  -0.015  0.00  0.00    -0.425 OA
BRANCH  23  28
ATOM     28  O   UNL     1       0.924  -2.641  -1.377  0.00  0.00    -0.386 OA
ATOM     29  H   UNL     1       0.084  -2.331  -1.742  0.00  0.00    +0.210 HD
ENDBRANCH  23  28
ENDBRANCH   1  24
TORSDOF 2
