REMARK  Name = ZINC12874099
REMARK  9 active torsions:
REMARK  status: ('A' for Active; 'I' for Inactive)
REMARK    1  A    between atoms: C_1  and  O_2
REMARK    2  A    between atoms: O_2  and  C_3
REMARK    3  A    between atoms: C_6  and  O_34
REMARK    4  A    between atoms: C_7  and  N_9
REMARK    5  A    between atoms: C_14  and  C_30
REMARK    6  A    between atoms: C_30  and  C_31
REMARK    7  A    between atoms: C_31  and  S_32
REMARK    8  A    between atoms: S_32  and  C_33
REMARK    9  A    between atoms: O_34  and  C_35
REMARK                            x       y       z     vdW  Elec       q    Type
REMARK                         _______ _______ _______ _____ _____    ______ ____
ROOT
ATOM      1  N   UNL     1      -1.799   2.446  -0.611  0.00  0.00    -0.206 N 
ATOM      2  C   UNL     1      -1.802   2.525   0.725  0.00  0.00    +0.229 C 
ATOM      3  O   UNL     1      -2.581   3.178   1.386  0.00  0.00    -0.275 OA
ATOM      4  C   UNL     1      -0.684   1.674   1.281  0.00  0.00    +0.073 C 
ATOM      5  C   UNL     1       0.395   2.575   1.917  0.00  0.00    -0.057 C 
ATOM      6  C   UNL     1       1.395   1.695  -0.002  0.00  0.00    +0.050 C 
ATOM      7  C   UNL     1      -0.013   1.086   0.008  0.00  0.00    +0.088 C 
ATOM      8  C   UNL     1      -0.824   1.664  -1.130  0.00  0.00    +0.229 C 
ATOM      9  O   UNL     1      -0.629   1.453  -2.307  0.00  0.00    -0.275 OA
ATOM     10  C   UNL     1       2.410   0.745   0.565  0.00  0.00    -0.028 A 
ATOM     11  C   UNL     1       2.549   0.124   1.786  0.00  0.00    +0.004 A 
ATOM     12  C   UNL     1       3.622  -0.720   2.016  0.00  0.00    +0.000 A 
ATOM     13  C   UNL     1       4.552  -0.938   1.016  0.00  0.00    +0.002 A 
ATOM     14  C   UNL     1       4.417  -0.318  -0.208  0.00  0.00    +0.023 A 
ATOM     15  C   UNL     1       3.341   0.534  -0.448  0.00  0.00    +0.036 A 
ATOM     16  N   UNL     1       2.992   1.267  -1.584  0.00  0.00    -0.286 N 
ATOM     17  C   UNL     1       1.862   1.977  -1.403  0.00  0.00    +0.211 C 
ATOM     18  O   UNL     1       1.325   2.703  -2.214  0.00  0.00    -0.277 OA
ATOM     19  H   UNL     1       3.505   1.265  -2.408  0.00  0.00    +0.155 HD
ATOM     20  N   UNL     1       1.288   2.899   0.803  0.00  0.00    +0.394 N 
ATOM     21  H   UNL     1       2.213   3.172   1.157  0.00  0.00    -0.083 HD
ATOM     22  H   UNL     1       0.896   3.666   0.245  0.00  0.00    -0.083 HD
ENDROOT
BRANCH   1  27
ATOM     23  C   UNL     1      -3.362   5.080  -2.658  0.00  0.00    +0.122 A 
ATOM     24  C   UNL     1      -4.561   4.471  -3.000  0.00  0.00    +0.049 A 
ATOM     25  C   UNL     1      -4.844   3.195  -2.552  0.00  0.00    +0.051 A 
ATOM     26  C   UNL     1      -3.930   2.519  -1.759  0.00  0.00    +0.142 A 
ATOM     27  C   UNL     1      -2.726   3.128  -1.414  0.00  0.00    +0.089 A 
ATOM     28  C   UNL     1      -2.447   4.411  -1.860  0.00  0.00    +0.073 A 
BRANCH  23  30
ATOM     29  C   UNL     1      -4.077   6.968  -3.914  0.00  0.00    +0.277 C 
ATOM     30  O   UNL     1      -3.087   6.335  -3.102  0.00  0.00    -0.495 OA
ENDBRANCH  23  30
BRANCH  26  31
ATOM     31  O   UNL     1      -4.210   1.263  -1.318  0.00  0.00    -0.493 OA
ATOM     32  C   UNL     1      -5.463   0.702  -1.710  0.00  0.00    +0.277 C 
ENDBRANCH  26  31
ENDBRANCH   1  27
BRANCH   5  33
ATOM     33  C   UNL     1      -0.243   3.834   2.506  0.00  0.00    -0.004 C 
BRANCH  33  34
ATOM     34  C   UNL     1       0.837   4.689   3.173  0.00  0.00    +0.067 C 
BRANCH  34  35
ATOM     35  S   UNL     1       0.080   6.183   3.872  0.00  0.00    -0.164 S 
ATOM     36  C   UNL     1       1.474   7.074   4.615  0.00  0.00    +0.084 C 
ENDBRANCH  34  35
ENDBRANCH  33  34
ENDBRANCH   5  33
TORSDOF 6
