REMARK  Name = ZINC04019916
REMARK  10 active torsions:
REMARK  status: ('A' for Active; 'I' for Inactive)
REMARK    1  A    between atoms: C_1  and  C_2
REMARK    2  A    between atoms: C_3  and  C_23
REMARK    3  A    between atoms: C_4  and  C_16
REMARK    4  A    between atoms: C_6  and  C_14
REMARK    5  A    between atoms: C_7  and  S_9
REMARK    6  A    between atoms: S_9  and  C_10
REMARK    7  A    between atoms: C_10  and  C_11
REMARK    8  A    between atoms: N_25  and  C_26
REMARK    9  A    between atoms: C_31  and  O_32
REMARK   10  A    between atoms: O_32  and  C_33
REMARK                            x       y       z     vdW  Elec       q    Type
REMARK                         _______ _______ _______ _____ _____    ______ ____
ROOT
ATOM      1  C   UNL     1       3.844  -3.614   2.449  0.00  0.00    +0.061 C 
ATOM      2  C   UNL     1       3.191  -3.136   1.177  0.00  0.00    +0.014 C 
ATOM      3  C   UNL     1       1.935  -2.662   1.217  0.00  0.00    +0.044 C 
ATOM      4  C   UNL     1       1.240  -2.165  -0.018  0.00  0.00    +0.100 C 
ATOM      5  C   UNL     1       1.950  -2.631  -1.256  0.00  0.00    +0.069 C 
ATOM      6  C   UNL     1       3.221  -3.113  -1.202  0.00  0.00    +0.080 C 
ATOM      7  N   UNL     1       3.887  -3.192   0.001  0.00  0.00    -0.312 N 
ATOM      8  H   UNL     1       4.982  -3.299   0.014  0.00  0.00    +0.152 HD
ENDROOT
BRANCH   4   9
ATOM      9  C   UNL     1       1.214  -0.658   0.001  0.00  0.00    -0.016 A 
ATOM     10  C   UNL     1       2.398   0.054   0.002  0.00  0.00    +0.006 A 
ATOM     11  C   UNL     1       2.375   1.436   0.019  0.00  0.00    +0.000 A 
ATOM     12  C   UNL     1       1.166   2.107   0.034  0.00  0.00    +0.001 A 
ATOM     13  C   UNL     1      -0.019   1.396   0.033  0.00  0.00    +0.020 A 
ATOM     14  C   UNL     1       0.004   0.013   0.016  0.00  0.00    +0.045 A 
ATOM     15 CL   UNL     1      -1.485  -0.881   0.015  0.00  0.00    -0.083 Cl
ENDBRANCH   4   9
BRANCH   3  16
ATOM     16  C   UNL     1       1.249  -2.631   2.454  0.00  0.00    +0.247 C 
ATOM     17  O   UNL     1       1.798  -3.030   3.465  0.00  0.00    -0.270 OA
ATOM     18  N   UNL     1      -0.012  -2.159   2.514  0.00  0.00    -0.279 N 
ATOM     19  H   UNL     1      -0.482  -1.731   1.617  0.00  0.00    +0.155 HD
BRANCH  18  20
ATOM     20  C   UNL     1      -0.724  -2.215   3.719  0.00  0.00    +0.076 A 
ATOM     21  C   UNL     1      -0.063  -2.045   4.926  0.00  0.00    +0.027 A 
ATOM     22  C   UNL     1      -0.767  -2.100   6.114  0.00  0.00    +0.002 A 
ATOM     23  C   UNL     1      -2.132  -2.324   6.102  0.00  0.00    +0.004 A 
ATOM     24  C   UNL     1      -2.798  -2.494   4.903  0.00  0.00    +0.047 A 
ATOM     25  C   UNL     1      -2.100  -2.435   3.708  0.00  0.00    +0.141 A 
BRANCH  25  26
ATOM     26  O   UNL     1      -2.755  -2.596   2.527  0.00  0.00    -0.493 OA
ATOM     27  C   UNL     1      -4.165  -2.818   2.592  0.00  0.00    +0.277 C 
ENDBRANCH  25  26
ENDBRANCH  18  20
ENDBRANCH   3  16
BRANCH   5  28
ATOM     28  C   UNL     1       1.277  -2.568  -2.519  0.00  0.00    +0.098 C 
ATOM     29  N   UNL     1       0.742  -2.518  -3.520  0.00  0.00    -0.191 NA
ENDBRANCH   5  28
BRANCH   6  30
ATOM     30  S   UNL     1       4.021  -3.641  -2.681  0.00  0.00    -0.100 S 
BRANCH  30  31
ATOM     31  C   UNL     1       5.619  -4.157  -2.007  0.00  0.00    +0.171 C 
BRANCH  31  32
ATOM     32  C   UNL     1       6.496  -4.660  -3.124  0.00  0.00    +0.221 C 
ATOM     33  O   UNL     1       6.081  -4.670  -4.264  0.00  0.00    -0.275 OA
ATOM     34  N   UNL     1       7.742  -5.101  -2.857  0.00  0.00    -0.329 N 
ATOM     35  H   UNL     1       8.382  -5.468  -3.672  0.00  0.00    +0.145 HD
ATOM     36  H   UNL     1       8.118  -5.092  -1.823  0.00  0.00    +0.145 HD
ENDBRANCH  31  32
ENDBRANCH  30  31
ENDBRANCH   6  30
TORSDOF 8
