REMARK  Name = ZINC05750145
REMARK  5 active torsions:
REMARK  status: ('A' for Active; 'I' for Inactive)
REMARK    1  A    between atoms: C_6  and  C_7
REMARK    2  A    between atoms: C_8  and  C_9
REMARK    3  A    between atoms: C_8  and  C_11
REMARK    4  A    between atoms: N_13  and  C_14
REMARK    5  A    between atoms: C_15  and  C_22
REMARK                            x       y       z     vdW  Elec       q    Type
REMARK                         _______ _______ _______ _____ _____    ______ ____
ROOT
ATOM      1  C   UNL     1      -2.465   1.342   0.057  0.00  0.00    +0.259 C 
ATOM      2  O   UNL     1      -2.616   0.143   0.197  0.00  0.00    -0.269 OA
ATOM      3  N   UNL     1      -3.538   2.155  -0.001  0.00  0.00    -0.275 N 
ATOM      4  H   UNL     1      -3.418   3.111  -0.112  0.00  0.00    +0.156 HD
ENDROOT
BRANCH   3   5
ATOM      5  C   UNL     1      -4.814   1.625   0.100  0.00  0.00    +0.085 A 
ATOM      6  C   UNL     1      -6.028   2.291   0.070  0.00  0.00    +0.068 A 
ATOM      7  C   UNL     1      -7.244   1.488   0.195  0.00  0.00    -0.023 A 
ATOM      8  C   UNL     1      -7.043   0.165   0.337  0.00  0.00    -0.004 A 
ATOM      9  S   UNL     1      -5.278  -0.030   0.302  0.00  0.00    -0.077 S 
ATOM     10  C   UNL     1      -8.338  -0.591   0.462  0.00  0.00    +0.043 C 
ATOM     11  C   UNL     1      -9.413   0.390  -0.054  0.00  0.00    +0.010 C 
ATOM     12  C   UNL     1      -8.750   1.754   0.216  0.00  0.00    +0.037 C 
BRANCH   6  13
ATOM     13  C   UNL     1      -6.091   3.747  -0.086  0.00  0.00    +0.244 C 
ATOM     14  O   UNL     1      -6.154   4.238  -1.198  0.00  0.00    -0.270 OA
ATOM     15  N   UNL     1      -6.080   4.542   1.002  0.00  0.00    -0.325 N 
ATOM     16  H   UNL     1      -6.030   4.151   1.888  0.00  0.00    +0.145 HD
ATOM     17  H   UNL     1      -6.122   5.506   0.899  0.00  0.00    +0.145 HD
ENDBRANCH   6  13
ENDBRANCH   3   5
BRANCH   1  19
ATOM     18  C   UNL     1      -0.013   1.076   0.008  0.00  0.00    +0.032 C 
ATOM     19  C   UNL     1      -1.109   1.905  -0.050  0.00  0.00    +0.114 C 
BRANCH  18  25
ATOM     20  C   UNL     1       1.492   2.631  -1.216  0.00  0.00    +0.009 A 
ATOM     21  C   UNL     1       2.752   3.128  -1.470  0.00  0.00    +0.020 A 
ATOM     22  C   UNL     1       3.853   2.611  -0.805  0.00  0.00    +0.041 A 
ATOM     23  C   UNL     1       3.696   1.596   0.126  0.00  0.00    +0.020 A 
ATOM     24  C   UNL     1       2.443   1.091   0.396  0.00  0.00    +0.009 A 
ATOM     25  C   UNL     1       1.325   1.607  -0.273  0.00  0.00    -0.024 A 
ATOM     26 CL   UNL     1       5.436   3.240  -1.138  0.00  0.00    -0.084 Cl
ENDBRANCH  18  25
BRANCH  19  27
ATOM     27  C   UNL     1      -0.931   3.317  -0.215  0.00  0.00    +0.104 C 
ATOM     28  N   UNL     1      -0.790   4.436  -0.346  0.00  0.00    -0.191 NA
ENDBRANCH  19  27
ENDBRANCH   1  19
TORSDOF 5
