REMARK  Name = ZINC63007430
REMARK  5 active torsions:
REMARK  status: ('A' for Active; 'I' for Inactive)
REMARK    1  A    between atoms: C_1  and  C_2
REMARK    2  A    between atoms: C_4  and  N_7
REMARK    3  A    between atoms: C_8  and  C_10
REMARK    4  A    between atoms: C_13  and  N_17
REMARK    5  A    between atoms: N_17  and  N_18
REMARK                            x       y       z     vdW  Elec       q    Type
REMARK                         _______ _______ _______ _____ _____    ______ ____
ROOT
ATOM      1  C   UNL     1       0.069  -5.653  -1.885  0.00  0.00    +0.043 A 
ATOM      2  C   UNL     1       0.066  -5.499  -3.274  0.00  0.00    +0.053 A 
ATOM      3  C   UNL     1       0.076  -6.611  -4.089  0.00  0.00    +0.149 A 
ATOM      4  C   UNL     1       0.090  -7.886  -3.529  0.00  0.00    +0.112 A 
ATOM      5  C   UNL     1       0.093  -8.042  -2.145  0.00  0.00    +0.149 A 
ATOM      6  C   UNL     1       0.089  -6.934  -1.325  0.00  0.00    +0.053 A 
ATOM      7  F   UNL     1       0.106  -9.281  -1.605  0.00  0.00    -0.203 F 
ATOM      8  F   UNL     1       0.073  -6.463  -5.432  0.00  0.00    -0.203 F 
ENDROOT
BRANCH   1  10
ATOM      9  N   UNL     1       0.038  -3.231  -1.551  0.00  0.00    -0.250 N 
ATOM     10  C   UNL     1       0.058  -4.465  -1.010  0.00  0.00    +0.251 C 
ATOM     11  O   UNL     1       0.066  -4.600   0.198  0.00  0.00    -0.270 OA
ATOM     12  H   UNL     1       0.032  -3.123  -2.515  0.00  0.00    +0.158 HD
BRANCH   9  16
ATOM     13  C   UNL     1      -0.018   1.503   0.010  0.00  0.00    +0.069 C 
ATOM     14  C   UNL     1       0.002  -0.004   0.002  0.00  0.00    +0.082 A 
ATOM     15  C   UNL     1       0.008  -0.820  -1.138  0.00  0.00    +0.092 A 
ATOM     16  C   UNL     1       0.027  -2.114  -0.729  0.00  0.00    +0.224 A 
ATOM     17  O   UNL     1       0.034  -2.120   0.615  0.00  0.00    -0.339 OA
ATOM     18  N   UNL     1       0.023  -0.774   1.055  0.00  0.00    -0.081 NA
ENDBRANCH   9  16
ENDBRANCH   1  10
BRANCH   4  19
ATOM     19  N   UNL     1       0.100  -9.008  -4.355  0.00  0.00    -0.278 N 
ATOM     20  H   UNL     1      -0.119  -8.920  -5.296  0.00  0.00    +0.166 HD
BRANCH  19  21
ATOM     21  N   UNL     1       0.419 -10.233  -3.841  0.00  0.00    -0.256 NA
ATOM     22  H   UNL     1      -0.183 -10.467  -3.066  0.00  0.00    +0.140 HD
ATOM     23  H   UNL     1       0.385 -10.945  -4.554  0.00  0.00    +0.140 HD
ENDBRANCH  19  21
ENDBRANCH   4  19
TORSDOF 4
