REMARK  Name = ZINC06667729
REMARK  8 active torsions:
REMARK  status: ('A' for Active; 'I' for Inactive)
REMARK    1  A    between atoms: C_1  and  C_2
REMARK    2  A    between atoms: C_2  and  C_3
REMARK    3  A    between atoms: C_3  and  O_31
REMARK    4  A    between atoms: C_5  and  O_30
REMARK    5  A    between atoms: C_12  and  O_13
REMARK    6  A    between atoms: C_24  and  C_26
REMARK    7  A    between atoms: C_26  and  O_28
REMARK    8  A    between atoms: O_28  and  C_29
REMARK                            x       y       z     vdW  Elec       q    Type
REMARK                         _______ _______ _______ _____ _____    ______ ____
ROOT
ATOM      1  C   UNL     1      -0.105   0.016  -0.037  0.00  0.00    +0.085 C 
ATOM      2  C   UNL     1       0.614  -0.463  -1.304  0.00  0.00    +0.072 C 
ATOM      3  C   UNL     1      -0.029   0.224  -2.508  0.00  0.00    +0.151 C 
ATOM      4  C   UNL     1      -1.526   0.058  -2.479  0.00  0.00    +0.027 A 
ATOM      5  C   UNL     1      -2.209  -0.300  -1.340  0.00  0.00    -0.021 A 
ATOM      6  C   UNL     1      -3.596  -0.425  -1.367  0.00  0.00    +0.017 A 
ATOM      7  C   UNL     1      -4.306  -0.196  -2.537  0.00  0.00    +0.037 A 
ATOM      8  C   UNL     1      -3.614   0.167  -3.708  0.00  0.00    +0.075 A 
ATOM      9  C   UNL     1      -2.224   0.291  -3.669  0.00  0.00    +0.134 A 
ATOM     10  C   UNL     1      -4.354   0.412  -4.958  0.00  0.00    +0.198 C 
ATOM     11  O   UNL     1      -3.754   0.726  -5.968  0.00  0.00    -0.286 OA
ATOM     12  C   UNL     1      -5.825   0.277  -4.983  0.00  0.00    +0.033 A 
ATOM     13  C   UNL     1      -6.532   0.508  -6.160  0.00  0.00    +0.012 A 
ATOM     14  C   UNL     1      -7.909   0.378  -6.175  0.00  0.00    +0.001 A 
ATOM     15  C   UNL     1      -8.591   0.020  -5.026  0.00  0.00    +0.001 A 
ATOM     16  C   UNL     1      -7.905  -0.212  -3.847  0.00  0.00    +0.012 A 
ATOM     17  C   UNL     1      -6.519  -0.086  -3.815  0.00  0.00    +0.033 A 
ATOM     18  C   UNL     1      -5.777  -0.331  -2.561  0.00  0.00    +0.195 C 
ATOM     19  O   UNL     1      -6.376  -0.643  -1.550  0.00  0.00    -0.287 OA
ATOM     20  C   UNL     1      -1.514  -0.572  -0.031  0.00  0.00    +0.160 C 
ENDROOT
BRANCH   1  22
ATOM     21  C   UNL     1       2.074   0.120   1.182  0.00  0.00    +0.007 C 
ATOM     22  C   UNL     1       0.659  -0.462   1.200  0.00  0.00    +0.032 C 
ENDBRANCH   1  22
BRANCH   9  23
ATOM     23  O   UNL     1      -1.547   0.639  -4.791  0.00  0.00    -0.506 OA
ATOM     24  H   UNL     1      -1.340  -0.106  -5.372  0.00  0.00    +0.292 HD
ENDBRANCH   9  23
BRANCH  20  25
ATOM     25  C   UNL     1      -2.306   0.049   1.090  0.00  0.00    +0.317 C 
ATOM     26  O   UNL     1      -2.839   1.121   0.932  0.00  0.00    -0.250 OA
BRANCH  25  27
ATOM     27  O   UNL     1      -2.420  -0.590   2.266  0.00  0.00    -0.467 OA
ATOM     28  C   UNL     1      -3.198   0.067   3.300  0.00  0.00    +0.280 C 
ENDBRANCH  25  27
ENDBRANCH  20  25
BRANCH   3  29
ATOM     29  O   UNL     1       0.486  -0.355  -3.709  0.00  0.00    -0.387 OA
ATOM     30  H   UNL     1       1.451  -0.350  -3.766  0.00  0.00    +0.210 HD
ENDBRANCH   3  29
BRANCH   1  31
ATOM     31  O   UNL     1      -0.179   1.443  -0.036  0.00  0.00    -0.387 OA
ATOM     32  H   UNL     1       0.683   1.882  -0.048  0.00  0.00    +0.210 HD
ENDBRANCH   1  31
TORSDOF 6
