REMARK  Name = ZINC13985496
REMARK  9 active torsions:
REMARK  status: ('A' for Active; 'I' for Inactive)
REMARK    1  A    between atoms: C_1  and  C_2
REMARK    2  A    between atoms: C_5  and  C_8
REMARK    3  A    between atoms: C_9  and  C_10
REMARK    4  A    between atoms: N_12  and  C_13
REMARK    5  A    between atoms: C_13  and  N_15
REMARK    6  A    between atoms: N_15  and  N_16
REMARK    7  A    between atoms: C_17  and  C_19
REMARK    8  A    between atoms: C_19  and  N_20
REMARK    9  A    between atoms: C_21  and  C_23
REMARK                            x       y       z     vdW  Elec       q    Type
REMARK                         _______ _______ _______ _____ _____    ______ ____
ROOT
ATOM      1  N   UNL     1       3.478   1.934  -0.021  0.00  0.00    -0.245 N 
ATOM      2  H   UNL     1       4.324   1.460  -0.031  0.00  0.00    +0.172 HD
ENDROOT
BRANCH   1   3
ATOM      3  N   UNL     1       3.458   3.335  -0.013  0.00  0.00    -0.234 N 
ATOM      4  C   UNL     1       4.616   4.025  -0.020  0.00  0.00    +0.246 C 
ATOM      5  O   UNL     1       5.675   3.433  -0.034  0.00  0.00    -0.273 OA
ATOM      6  H   UNL     1       2.612   3.808  -0.002  0.00  0.00    +0.173 HD
BRANCH   4   7
ATOM      7  C   UNL     1       4.596   5.531  -0.012  0.00  0.00    +0.201 C 
BRANCH   7   8
ATOM      8  N   UNL     1       5.970   6.038  -0.022  0.00  0.00    -0.306 N 
ATOM      9  C   UNL     1       6.199   7.367  -0.018  0.00  0.00    +0.217 C 
ATOM     10  O   UNL     1       5.266   8.142  -0.004  0.00  0.00    -0.276 OA
ATOM     11  H   UNL     1       6.716   5.418  -0.033  0.00  0.00    +0.149 HD
BRANCH   9  12
ATOM     12  C   UNL     1       7.612   7.888  -0.028  0.00  0.00    +0.075 C 
ATOM     13  C   UNL     1       8.352   7.381   1.211  0.00  0.00    +0.013 C 
ATOM     14  C   UNL     1       9.788   7.911   1.200  0.00  0.00    +0.001 C 
ATOM     15  C   UNL     1       9.767   9.441   1.209  0.00  0.00    +0.000 C 
ATOM     16  C   UNL     1       9.027   9.948  -0.031  0.00  0.00    +0.001 C 
ATOM     17  C   UNL     1       7.592   9.418  -0.020  0.00  0.00    +0.013 C 
ENDBRANCH   9  12
ENDBRANCH   7   8
ENDBRANCH   4   7
ENDBRANCH   1   3
BRANCH   1  18
ATOM     18  C   UNL     1       2.320   1.244  -0.013  0.00  0.00    +0.153 C 
ATOM     19  S   UNL     1       2.343  -0.468  -0.023  0.00  0.00    -0.017 S 
BRANCH  18  22
ATOM     20  C   UNL     1      -0.014   1.212   0.009  0.00  0.00    +0.242 C 
ATOM     21  O   UNL     1       0.002  -0.004   0.002  0.00  0.00    -0.270 OA
ATOM     22  N   UNL     1       1.143   1.902   0.001  0.00  0.00    -0.263 N 
ATOM     23  H   UNL     1       1.130   2.872   0.007  0.00  0.00    +0.157 HD
BRANCH  20  25
ATOM     24  C   UNL     1      -2.450   1.236   0.020  0.00  0.00    +0.013 C 
ATOM     25  C   UNL     1      -1.291   1.927   0.019  0.00  0.00    +0.068 C 
BRANCH  24  30
ATOM     26  C   UNL     1      -7.467   4.043   0.060  0.00  0.00    +0.044 C 
ATOM     27  C   UNL     1      -6.152   3.307   0.050  0.00  0.00    -0.050 A 
ATOM     28  C   UNL     1      -6.138   1.923   0.042  0.00  0.00    +0.004 A 
ATOM     29  C   UNL     1      -4.938   1.243   0.032  0.00  0.00    +0.008 A 
ATOM     30  C   UNL     1      -3.735   1.955   0.030  0.00  0.00    -0.025 A 
ATOM     31  C   UNL     1      -3.758   3.353   0.044  0.00  0.00    +0.008 A 
ATOM     32  C   UNL     1      -4.965   4.019   0.048  0.00  0.00    +0.004 A 
ENDBRANCH  24  30
ENDBRANCH  20  25
ENDBRANCH  18  22
ENDBRANCH   1  18
TORSDOF 8
