REMARK  Name = ZINC15972121
REMARK  9 active torsions:
REMARK  status: ('A' for Active; 'I' for Inactive)
REMARK    1  A    between atoms: C_1  and  C_2
REMARK    2  A    between atoms: C_2  and  C_4
REMARK    3  A    between atoms: C_2  and  O_34
REMARK    4  A    between atoms: C_7  and  C_21
REMARK    5  A    between atoms: N_23  and  C_24
REMARK    6  A    between atoms: C_26  and  O_32
REMARK    7  A    between atoms: C_29  and  O_30
REMARK    8  A    between atoms: O_30  and  C_31
REMARK    9  A    between atoms: O_32  and  C_33
REMARK                            x       y       z     vdW  Elec       q    Type
REMARK                         _______ _______ _______ _____ _____    ______ ____
ROOT
ATOM      1  C   UNL     1       0.727  -0.526   1.253  0.00  0.00    +0.084 C 
ATOM      2  C   UNL     1       0.915  -2.057   1.163  0.00  0.00    +0.036 C 
ATOM      3  C   UNL     1       2.310  -2.326   1.768  0.00  0.00    +0.110 C 
ATOM      4  C   UNL     1       2.845  -0.940   2.151  0.00  0.00    +0.135 C 
ATOM      5  N   UNL     1       2.108   0.024   1.311  0.00  0.00    -0.294 NA
ATOM      6  C   UNL     1       4.328  -0.841   1.935  0.00  0.00    +0.005 A 
ATOM      7  C   UNL     1       5.138  -0.991   0.831  0.00  0.00    +0.027 A 
ATOM      8  C   UNL     1       6.508  -0.834   0.951  0.00  0.00    +0.041 A 
ATOM      9  C   UNL     1       7.061  -0.526   2.182  0.00  0.00    +0.022 A 
ATOM     10  C   UNL     1       6.253  -0.375   3.289  0.00  0.00    +0.025 A 
ATOM     11  C   UNL     1       4.873  -0.532   3.178  0.00  0.00    +0.039 A 
ATOM     12  N   UNL     1       3.863  -0.431   4.137  0.00  0.00    -0.283 N 
ATOM     13  C   UNL     1       2.642  -0.658   3.614  0.00  0.00    +0.243 C 
ATOM     14  O   UNL     1       1.585  -0.637   4.208  0.00  0.00    -0.273 OA
ATOM     15 CL   UNL     1       7.531  -1.023  -0.439  0.00  0.00    -0.084 Cl
ATOM     16  H   UNL     1       2.513   0.083   0.389  0.00  0.00    +0.124 HD
ATOM     17  H   UNL     1       4.022  -0.223   5.071  0.00  0.00    +0.155 HD
ENDROOT
BRANCH   3  18
ATOM     18  C   UNL     1       3.209  -2.974   0.747  0.00  0.00    +0.223 C 
ATOM     19  O   UNL     1       3.004  -2.803  -0.437  0.00  0.00    -0.275 OA
ATOM     20  N   UNL     1       4.240  -3.743   1.147  0.00  0.00    -0.282 N 
ATOM     21  H   UNL     1       4.371  -3.926   2.091  0.00  0.00    +0.155 HD
BRANCH  20  22
ATOM     22  C   UNL     1       5.124  -4.279   0.201  0.00  0.00    +0.079 A 
ATOM     23  C   UNL     1       4.702  -4.488  -1.103  0.00  0.00    +0.072 A 
ATOM     24  C   UNL     1       5.579  -5.018  -2.037  0.00  0.00    +0.122 A 
ATOM     25  C   UNL     1       6.877  -5.339  -1.668  0.00  0.00    +0.049 A 
ATOM     26  C   UNL     1       7.300  -5.132  -0.368  0.00  0.00    +0.051 A 
ATOM     27  C   UNL     1       6.430  -4.597   0.568  0.00  0.00    +0.141 A 
BRANCH  27  28
ATOM     28  O   UNL     1       6.848  -4.388   1.845  0.00  0.00    -0.493 OA
ATOM     29  C   UNL     1       8.200  -4.737   2.150  0.00  0.00    +0.277 C 
ENDBRANCH  27  28
BRANCH  24  30
ATOM     30  O   UNL     1       5.166  -5.224  -3.316  0.00  0.00    -0.495 OA
ATOM     31  C   UNL     1       6.121  -5.773  -4.226  0.00  0.00    +0.277 C 
ENDBRANCH  24  30
ENDBRANCH  20  22
ENDBRANCH   3  18
BRANCH   1  33
ATOM     32  C   UNL     1      -0.033   1.524   0.045  0.00  0.00    +0.039 C 
ATOM     33  C   UNL     1      -0.003  -0.005   0.013  0.00  0.00    +0.128 C 
BRANCH  33  34
ATOM     34  O   UNL     1       0.681  -0.444  -1.162  0.00  0.00    -0.391 OA
ATOM     35  H   UNL     1       1.597  -0.140  -1.221  0.00  0.00    +0.210 HD
ENDBRANCH  33  34
ENDBRANCH   1  33
TORSDOF 6
