REMARK  Name = ZINC51054692
REMARK  8 active torsions:
REMARK  status: ('A' for Active; 'I' for Inactive)
REMARK    1  A    between atoms: C_1  and  C_2
REMARK    2  A    between atoms: C_2  and  C_3
REMARK    3  A    between atoms: C_3  and  C_4
REMARK    4  A    between atoms: C_4  and  C_6
REMARK    5  A    between atoms: C_4  and  N_7
REMARK    6  A    between atoms: C_8  and  C_10
REMARK    7  A    between atoms: N_15  and  C_17
REMARK    8  A    between atoms: C_17  and  C_18
REMARK                            x       y       z     vdW  Elec       q    Type
REMARK                         _______ _______ _______ _____ _____    ______ ____
ROOT
ATOM      1  C   UNL     1      -2.325  -4.294   1.028  0.00  0.00    +0.058 C 
ATOM      2  C   UNL     1      -2.706  -4.362   2.510  0.00  0.00    +0.009 C 
ATOM      3  C   UNL     1      -4.107  -4.966   2.639  0.00  0.00    -0.018 C 
ATOM      4  C   UNL     1      -4.126  -6.343   1.973  0.00  0.00    -0.078 C 
ATOM      5  N   UNL     1      -3.779  -6.208   0.553  0.00  0.00    +0.385 N 
ATOM      6  C   UNL     1      -2.410  -5.696   0.420  0.00  0.00    -0.066 C 
ATOM      7  H   UNL     1      -4.421  -5.568   0.110  0.00  0.00    -0.081 HD
ENDROOT
BRANCH   1   9
ATOM      8  N   UNL     1      -0.605  -2.548   1.364  0.00  0.00    -0.313 N 
ATOM      9  C   UNL     1      -0.918  -3.772   0.893  0.00  0.00    +0.215 C 
ATOM     10  O   UNL     1      -0.066  -4.453   0.362  0.00  0.00    -0.276 OA
ATOM     11  H   UNL     1      -1.286  -2.004   1.789  0.00  0.00    +0.149 HD
BRANCH   8  12
ATOM     12  C   UNL     1       0.763  -2.041   1.233  0.00  0.00    +0.070 C 
ATOM     13  C   UNL     1       1.608  -2.546   2.404  0.00  0.00    +0.028 C 
BRANCH  12  14
ATOM     14  C   UNL     1       0.742  -0.511   1.242  0.00  0.00    +0.022 C 
BRANCH  14  16
ATOM     15  C   UNL     1      -0.019   1.526   0.010  0.00  0.00    +0.004 C 
ATOM     16  C   UNL     1       0.002  -0.004   0.002  0.00  0.00    -0.002 C 
ENDBRANCH  14  16
ENDBRANCH  12  14
ENDBRANCH   8  12
ENDBRANCH   1   9
BRANCH   5  17
ATOM     17  C   UNL     1      -3.874  -7.521  -0.100  0.00  0.00    -0.001 C 
BRANCH  17  18
ATOM     18  C   UNL     1      -5.307  -7.989  -0.081  0.00  0.00    +0.120 A 
ATOM     19  N   UNL     1      -5.754  -8.702   0.937  0.00  0.00    -0.202 NA
ATOM     20  C   UNL     1      -7.019  -9.117   0.957  0.00  0.00    +0.217 A 
ATOM     21  N   UNL     1      -7.832  -8.812  -0.048  0.00  0.00    -0.181 NA
ATOM     22  C   UNL     1      -7.379  -8.094  -1.070  0.00  0.00    +0.217 A 
ATOM     23  N   UNL     1      -6.114  -7.679  -1.081  0.00  0.00    -0.202 NA
ATOM     24  N   UNL     1      -8.220  -7.774  -2.117  0.00  0.00    -0.327 N 
ATOM     25  N   UNL     1      -7.485  -9.863   2.021  0.00  0.00    -0.327 N 
ATOM     26  H   UNL     1      -9.142  -8.074  -2.107  0.00  0.00    +0.145 HD
ATOM     27  H   UNL     1      -7.888  -7.250  -2.862  0.00  0.00    +0.145 HD
ATOM     28  H   UNL     1      -6.890 -10.085   2.754  0.00  0.00    +0.145 HD
ATOM     29  H   UNL     1      -8.406 -10.164   2.035  0.00  0.00    +0.145 HD
ENDBRANCH  17  18
ENDBRANCH   5  17
TORSDOF 6
