REMARK  Name = ZINC66664645
REMARK  14 active torsions:
REMARK  status: ('A' for Active; 'I' for Inactive)
REMARK    1  A    between atoms: C_1  and  C_2
REMARK    2  A    between atoms: C_7  and  C_8
REMARK    3  A    between atoms: C_8  and  C_10
REMARK    4  A    between atoms: C_8  and  N_27
REMARK    5  A    between atoms: C_10  and  C_11
REMARK    6  A    between atoms: N_13  and  C_14
REMARK    7  A    between atoms: C_16  and  C_23
REMARK    8  A    between atoms: N_18  and  C_19
REMARK    9  A    between atoms: C_19  and  C_20
REMARK   10  A    between atoms: C_19  and  C_21
REMARK   11  A    between atoms: C_19  and  C_22
REMARK   12  A    between atoms: C_23  and  C_24
REMARK   13  A    between atoms: C_23  and  C_25
REMARK   14  A    between atoms: C_23  and  C_26
REMARK                            x       y       z     vdW  Elec       q    Type
REMARK                         _______ _______ _______ _____ _____    ______ ____
ROOT
ATOM      1  C   UNL     1      -1.441   1.293   4.069  0.00  0.00    +0.220 C 
ATOM      2  O   UNL     1      -0.408   1.535   4.657  0.00  0.00    -0.275 OA
ATOM      3  N   UNL     1      -2.610   1.772   4.537  0.00  0.00    -0.271 N 
ATOM      4  H   UNL     1      -3.437   1.578   4.067  0.00  0.00    +0.156 HD
ENDROOT
BRANCH   3   5
ATOM      5  C   UNL     1      -2.633   2.545   5.698  0.00  0.00    +0.124 A 
ATOM      6  C   UNL     1      -1.555   2.897   6.451  0.00  0.00    +0.069 A 
ATOM      7  C   UNL     1      -2.015   3.671   7.520  0.00  0.00    +0.070 A 
ATOM      8  N   UNL     1      -3.314   3.782   7.419  0.00  0.00    -0.174 NA
ATOM      9  N   UNL     1      -3.729   3.086   6.277  0.00  0.00    -0.245 N 
BRANCH   9  10
ATOM     10  C   UNL     1      -5.108   2.963   5.795  0.00  0.00    +0.057 C 
ATOM     11  C   UNL     1      -5.506   1.486   5.760  0.00  0.00    +0.036 C 
ATOM     12  C   UNL     1      -6.046   3.722   6.735  0.00  0.00    +0.036 C 
ATOM     13  C   UNL     1      -5.210   3.553   4.387  0.00  0.00    +0.036 C 
ENDBRANCH   9  10
BRANCH   7  14
ATOM     14  C   UNL     1      -1.159   4.273   8.605  0.00  0.00    +0.006 C 
ATOM     15  C   UNL     1      -0.407   5.483   8.048  0.00  0.00    +0.017 C 
ATOM     16  C   UNL     1      -2.049   4.717   9.768  0.00  0.00    +0.017 C 
ATOM     17  C   UNL     1      -0.155   3.231   9.100  0.00  0.00    +0.017 C 
ENDBRANCH   7  14
ENDBRANCH   3   5
BRANCH   1  18
ATOM     18  C   UNL     1      -1.416   0.458   2.815  0.00  0.00    +0.123 C 
BRANCH  18  19
ATOM     19  C   UNL     1       0.024   0.045   2.505  0.00  0.00    +0.114 C 
BRANCH  19  26
ATOM     20  C   UNL     1       2.552  -0.399   1.178  0.00  0.00    +0.044 C 
ATOM     21  C   UNL     1       1.274  -0.898   0.553  0.00  0.00    -0.045 A 
ATOM     22  C   UNL     1       1.312  -1.573  -0.653  0.00  0.00    +0.004 A 
ATOM     23  C   UNL     1       0.141  -2.030  -1.227  0.00  0.00    +0.000 A 
ATOM     24  C   UNL     1      -1.069  -1.812  -0.594  0.00  0.00    +0.000 A 
ATOM     25  C   UNL     1      -1.107  -1.138   0.612  0.00  0.00    +0.006 A 
ATOM     26  C   UNL     1       0.065  -0.685   1.188  0.00  0.00    -0.024 A 
ENDBRANCH  19  26
BRANCH  19  27
ATOM     27  N   UNL     1       0.520  -0.834   3.567  0.00  0.00    -0.292 N 
ATOM     28  C   UNL     1      -0.067  -2.029   3.781  0.00  0.00    +0.298 C 
ATOM     29  O   UNL     1      -0.946  -2.416   3.036  0.00  0.00    -0.253 OA
ATOM     30  N   UNL     1       0.321  -2.793   4.821  0.00  0.00    -0.313 N 
ATOM     31  H   UNL     1       1.270  -0.557   4.116  0.00  0.00    +0.151 HD
ATOM     32  H   UNL     1       1.022  -2.484   5.415  0.00  0.00    +0.146 HD
ATOM     33  H   UNL     1      -0.102  -3.653   4.975  0.00  0.00    +0.146 HD
ENDBRANCH  19  27
ENDBRANCH  18  19
ENDBRANCH   1  18
TORSDOF 7
