REMARK  Name = ZINC04993307
REMARK  7 active torsions:
REMARK  status: ('A' for Active; 'I' for Inactive)
REMARK    1  A    between atoms: C_1  and  C_2
REMARK    2  A    between atoms: C_3  and  C_21
REMARK    3  A    between atoms: C_4  and  C_14
REMARK    4  A    between atoms: C_17  and  O_20
REMARK    5  A    between atoms: N_23  and  C_24
REMARK    6  A    between atoms: C_29  and  O_30
REMARK    7  A    between atoms: O_30  and  C_31
REMARK                            x       y       z     vdW  Elec       q    Type
REMARK                         _______ _______ _______ _____ _____    ______ ____
ROOT
ATOM      1  C   UNL     1       2.103  -3.102  -0.157  0.00  0.00    +0.061 C 
ATOM      2  C   UNL     1       3.461  -2.450  -0.124  0.00  0.00    +0.014 C 
ATOM      3  C   UNL     1       3.556  -1.111  -0.062  0.00  0.00    +0.043 C 
ATOM      4  C   UNL     1       4.891  -0.427  -0.027  0.00  0.00    +0.090 C 
ATOM      5  C   UNL     1       5.988  -1.353  -0.483  0.00  0.00    +0.024 C 
ATOM      6  C   UNL     1       5.793  -2.688  -0.520  0.00  0.00    +0.015 C 
ATOM      7  N   UNL     1       4.588  -3.225  -0.156  0.00  0.00    -0.321 N 
ATOM      8  C   UNL     1       6.894  -3.622  -0.959  0.00  0.00    +0.051 C 
ATOM      9  C   UNL     1       7.785  -2.919  -1.986  0.00  0.00    +0.014 C 
ATOM     10  C   UNL     1       8.354  -1.648  -1.347  0.00  0.00    +0.080 C 
ATOM     11  C   UNL     1       7.216  -0.788  -0.870  0.00  0.00    +0.162 C 
ATOM     12  O   UNL     1       7.361   0.417  -0.816  0.00  0.00    -0.292 OA
ATOM     13  H   UNL     1       4.531  -4.290   0.112  0.00  0.00    +0.152 HD
ENDROOT
BRANCH   4  14
ATOM     14  C   UNL     1       5.181   0.020   1.383  0.00  0.00    -0.035 A 
ATOM     15  C   UNL     1       5.245  -0.912   2.402  0.00  0.00    +0.008 A 
ATOM     16  C   UNL     1       5.517  -0.506   3.694  0.00  0.00    +0.046 A 
ATOM     17  C   UNL     1       5.713   0.839   3.971  0.00  0.00    +0.117 A 
ATOM     18  C   UNL     1       5.642   1.773   2.947  0.00  0.00    +0.046 A 
ATOM     19  C   UNL     1       5.376   1.361   1.655  0.00  0.00    +0.008 A 
BRANCH  17  20
ATOM     20  O   UNL     1       5.973   1.242   5.242  0.00  0.00    -0.507 OA
ATOM     21  H   UNL     1       6.128   2.309   5.461  0.00  0.00    +0.292 HD
ENDBRANCH  17  20
ENDBRANCH   4  14
BRANCH   3  22
ATOM     22  C   UNL     1       2.374  -0.331  -0.037  0.00  0.00    +0.247 C 
ATOM     23  O   UNL     1       1.929   0.133  -1.071  0.00  0.00    -0.270 OA
ATOM     24  N   UNL     1       1.743  -0.103   1.132  0.00  0.00    -0.279 N 
ATOM     25  H   UNL     1       2.193  -0.443   2.076  0.00  0.00    +0.155 HD
BRANCH  24  26
ATOM     26  C   UNL     1       0.513   0.568   1.144  0.00  0.00    +0.076 A 
ATOM     27  C   UNL     1      -0.301   0.548   0.020  0.00  0.00    +0.027 A 
ATOM     28  C   UNL     1      -1.512   1.215   0.033  0.00  0.00    +0.002 A 
ATOM     29  C   UNL     1      -1.920   1.892   1.167  0.00  0.00    +0.004 A 
ATOM     30  C   UNL     1      -1.114   1.916   2.291  0.00  0.00    +0.047 A 
ATOM     31  C   UNL     1       0.103   1.255   2.284  0.00  0.00    +0.141 A 
BRANCH  31  32
ATOM     32  O   UNL     1       0.897   1.278   3.388  0.00  0.00    -0.493 OA
ATOM     33  C   UNL     1       0.413   2.003   4.520  0.00  0.00    +0.277 C 
ENDBRANCH  31  32
ENDBRANCH  24  26
ENDBRANCH   3  22
TORSDOF 5
