REMARK  Name = ZINC16742781
REMARK  8 active torsions:
REMARK  status: ('A' for Active; 'I' for Inactive)
REMARK    1  A    between atoms: C_1  and  C_2
REMARK    2  A    between atoms: C_2  and  C_4
REMARK    3  A    between atoms: C_2  and  O_18
REMARK    4  A    between atoms: C_4  and  C_6
REMARK    5  A    between atoms: C_15  and  C_17
REMARK    6  A    between atoms: O_18  and  C_19
REMARK    7  A    between atoms: C_19  and  C_21
REMARK    8  A    between atoms: C_26  and  N_27
REMARK                            x       y       z     vdW  Elec       q    Type
REMARK                         _______ _______ _______ _____ _____    ______ ____
ROOT
ATOM      1  C   UNL     1      -2.900   0.756  -1.417  0.00  0.00    +0.061 C 
ATOM      2  C   UNL     1      -2.620   1.346  -0.034  0.00  0.00    +0.244 C 
ENDROOT
BRANCH   2   3
ATOM      3  C   UNL     1      -1.325   2.115  -0.069  0.00  0.00    +0.203 C 
ATOM      4  O   UNL     1      -1.339   3.328  -0.076  0.00  0.00    -0.288 OA
BRANCH   3   5
ATOM      5  C   UNL     1      -0.044   1.396  -0.093  0.00  0.00    +0.022 A 
ATOM      6  C   UNL     1      -0.021  -0.004  -0.085  0.00  0.00    +0.013 A 
ATOM      7  C   UNL     1       1.167  -0.670  -0.114  0.00  0.00    +0.024 A 
ATOM      8  C   UNL     1       2.378   0.033  -0.152  0.00  0.00    +0.040 A 
ATOM      9  C   UNL     1       2.357   1.422  -0.160  0.00  0.00    -0.024 A 
ATOM     10  C   UNL     1       1.163   2.105  -0.131  0.00  0.00    +0.017 A 
ATOM     11  C   UNL     1       3.784   1.923  -0.203  0.00  0.00    +0.056 C 
ATOM     12  C   UNL     1       4.640   0.646  -0.218  0.00  0.00    +0.118 C 
ATOM     13  N   UNL     1       3.680  -0.461  -0.185  0.00  0.00    -0.271 N 
ATOM     14  C   UNL     1       4.010  -1.768  -0.186  0.00  0.00    +0.217 C 
ATOM     15  O   UNL     1       5.176  -2.099  -0.216  0.00  0.00    -0.276 OA
ATOM     16  C   UNL     1       2.929  -2.817  -0.149  0.00  0.00    +0.109 C 
ENDBRANCH   3   5
ENDBRANCH   2   3
BRANCH   2  17
ATOM     17  O   UNL     1      -3.703   2.239   0.340  0.00  0.00    -0.450 OA
BRANCH  17  18
ATOM     18  C   UNL     1      -4.741   1.696   1.007  0.00  0.00    +0.342 C 
ATOM     19  O   UNL     1      -4.741   0.510   1.269  0.00  0.00    -0.245 OA
BRANCH  18  20
ATOM     20  C   UNL     1      -5.875   2.542   1.418  0.00  0.00    +0.082 A 
ATOM     21  C   UNL     1      -5.825   3.926   1.229  0.00  0.00    +0.037 A 
ATOM     22  C   UNL     1      -6.889   4.712   1.616  0.00  0.00    +0.043 A 
ATOM     23  C   UNL     1      -8.012   4.136   2.192  0.00  0.00    +0.042 A 
ATOM     24  C   UNL     1      -8.076   2.771   2.385  0.00  0.00    +0.064 A 
ATOM     25  C   UNL     1      -7.014   1.962   1.996  0.00  0.00    +0.057 A 
ATOM     26 CL   UNL     1      -9.487   2.063   3.107  0.00  0.00    -0.082 Cl
ATOM     27 CL   UNL     1      -6.824   6.431   1.380  0.00  0.00    -0.083 Cl
BRANCH  25  28
ATOM     28  N   UNL     1      -7.079   0.587   2.184  0.00  0.00    -0.356 N 
ATOM     29  H   UNL     1      -6.306   0.034   1.990  0.00  0.00    +0.142 HD
ATOM     30  H   UNL     1      -7.897   0.179   2.509  0.00  0.00    +0.142 HD
ENDBRANCH  25  28
ENDBRANCH  18  20
ENDBRANCH  17  18
ENDBRANCH   2  17
TORSDOF 6
