REMARK  Name = ZINC65744040
REMARK  6 active torsions:
REMARK  status: ('A' for Active; 'I' for Inactive)
REMARK    1  A    between atoms: C_4  and  O_9
REMARK    2  A    between atoms: C_5  and  C_7
REMARK    3  A    between atoms: O_9  and  C_10
REMARK    4  A    between atoms: C_13  and  N_16
REMARK    5  A    between atoms: C_17  and  C_19
REMARK    6  A    between atoms: C_22  and  C_27
REMARK                            x       y       z     vdW  Elec       q    Type
REMARK                         _______ _______ _______ _____ _____    ______ ____
ROOT
ATOM      1  N   UNL     1       8.423   2.095  -0.289  0.00  0.00    -0.281 N 
ATOM      2  C   UNL     1       9.581   1.414  -0.400  0.00  0.00    +0.253 C 
ATOM      3  O   UNL     1       9.576   0.197  -0.371  0.00  0.00    -0.270 OA
ATOM      4  H   UNL     1       8.436   3.060  -0.188  0.00  0.00    +0.155 HD
ENDROOT
BRANCH   2   5
ATOM      5  C   UNL     1      10.847   2.139  -0.555  0.00  0.00    +0.101 A 
ATOM      6  C   UNL     1      12.025   1.447  -0.858  0.00  0.00    +0.020 A 
ATOM      7  C   UNL     1      13.207   2.155  -1.000  0.00  0.00    +0.030 A 
ATOM      8  C   UNL     1      13.209   3.535  -0.840  0.00  0.00    +0.085 A 
ATOM      9  N   UNL     1      12.054   4.206  -0.544  0.00  0.00    -0.319 N 
ATOM     10  H   UNL     1      12.075   5.170  -0.436  0.00  0.00    +0.169 HD
ATOM     11  C   UNL     1      10.888   3.547  -0.406  0.00  0.00    +0.261 A 
ATOM     12  O   UNL     1       9.868   4.162  -0.147  0.00  0.00    -0.267 OA
BRANCH   8  13
ATOM     13  C   UNL     1      14.462   4.279  -0.990  0.00  0.00    +0.151 A 
ATOM     14  C   UNL     1      14.614   5.631  -0.857  0.00  0.00    +0.051 A 
ATOM     15  C   UNL     1      15.971   5.909  -1.083  0.00  0.00    +0.042 A 
ATOM     16  C   UNL     1      16.581   4.731  -1.341  0.00  0.00    +0.196 A 
ATOM     17  O   UNL     1      15.668   3.750  -1.279  0.00  0.00    -0.461 OA
ENDBRANCH   8  13
ENDBRANCH   2   5
BRANCH   1  21
ATOM     18  C   UNL     1       4.788   0.057  -0.380  0.00  0.00    +0.129 A 
ATOM     19  C   UNL     1       4.842   1.395  -0.743  0.00  0.00    +0.048 A 
ATOM     20  C   UNL     1       6.045   2.070  -0.713  0.00  0.00    +0.027 A 
ATOM     21  C   UNL     1       7.202   1.411  -0.319  0.00  0.00    +0.034 A 
ATOM     22  C   UNL     1       7.147   0.071   0.045  0.00  0.00    +0.027 A 
ATOM     23  C   UNL     1       5.942  -0.602   0.019  0.00  0.00    +0.048 A 
BRANCH  18  24
ATOM     24  O   UNL     1       3.602  -0.608  -0.410  0.00  0.00    -0.455 OA
BRANCH  24  28
ATOM     25  C   UNL     1       2.271  -2.036  -4.054  0.00  0.00    +0.001 A 
ATOM     26  C   UNL     1       3.443  -1.301  -3.977  0.00  0.00    +0.004 A 
ATOM     27  C   UNL     1       3.889  -0.823  -2.761  0.00  0.00    +0.047 A 
ATOM     28  C   UNL     1       3.164  -1.077  -1.606  0.00  0.00    +0.146 A 
ATOM     29  C   UNL     1       1.978  -1.821  -1.679  0.00  0.00    +0.094 A 
ATOM     30  C   UNL     1       1.538  -2.298  -2.916  0.00  0.00    +0.022 A 
BRANCH  29  31
ATOM     31  C   UNL     1       1.222  -2.089  -0.493  0.00  0.00    +0.103 C 
ATOM     32  N   UNL     1       0.622  -2.302   0.448  0.00  0.00    -0.191 NA
ENDBRANCH  29  31
ENDBRANCH  24  28
ENDBRANCH  18  24
ENDBRANCH   1  21
TORSDOF 6
