REMARK  Name = ZINC06715177
REMARK  6 active torsions:
REMARK  status: ('A' for Active; 'I' for Inactive)
REMARK    1  A    between atoms: C_1  and  C_2
REMARK    2  A    between atoms: C_5  and  N_9
REMARK    3  A    between atoms: C_6  and  C_8
REMARK    4  A    between atoms: N_12  and  C_13
REMARK    5  A    between atoms: C_13  and  C_15
REMARK    6  A    between atoms: C_13  and  C_16
REMARK                            x       y       z     vdW  Elec       q    Type
REMARK                         _______ _______ _______ _____ _____    ______ ____
ROOT
ATOM      1  N   UNL     1       2.403   1.106  -0.015  0.00  0.00    -0.269 N 
ATOM      2  C   UNL     1       2.427  -0.238   0.078  0.00  0.00    +0.304 C 
ATOM      3  O   UNL     1       1.385  -0.866   0.085  0.00  0.00    -0.252 OA
ATOM      4  N   UNL     1       3.605  -0.887   0.165  0.00  0.00    -0.293 N 
ATOM      5  H   UNL     1       3.233   1.602  -0.087  0.00  0.00    +0.156 HD
ATOM      6  H   UNL     1       4.436  -0.386   0.159  0.00  0.00    +0.151 HD
ENDROOT
BRANCH   1  11
ATOM      7  C   UNL     1      -2.555   3.864   0.005  0.00  0.00    +0.044 C 
ATOM      8  C   UNL     1      -1.238   3.132  -0.001  0.00  0.00    -0.050 A 
ATOM      9  C   UNL     1      -1.140   1.892  -0.607  0.00  0.00    +0.005 A 
ATOM     10  C   UNL     1       0.064   1.216  -0.608  0.00  0.00    +0.024 A 
ATOM     11  C   UNL     1       1.180   1.786  -0.010  0.00  0.00    +0.038 A 
ATOM     12  C   UNL     1       1.080   3.033   0.593  0.00  0.00    -0.029 A 
ATOM     13  C   UNL     1      -0.129   3.702   0.596  0.00  0.00    +0.008 A 
ATOM     14  C   UNL     1       2.288   3.656   1.243  0.00  0.00    +0.045 C 
ENDBRANCH   1  11
BRANCH   4  15
ATOM     15  C   UNL     1       3.631  -2.348   0.267  0.00  0.00    +0.102 C 
ATOM     16  C   UNL     1       3.565  -2.958  -1.135  0.00  0.00    +0.033 C 
BRANCH  15  17
ATOM     17  C   UNL     1       4.905  -2.781   0.944  0.00  0.00    -0.025 A 
ATOM     18  C   UNL     1       6.110  -2.159   0.655  0.00  0.00    +0.025 A 
ATOM     19  C   UNL     1       7.258  -2.581   1.299  0.00  0.00    +0.111 A 
ATOM     20  N   UNL     1       7.217  -3.569   2.171  0.00  0.00    -0.263 NA
ATOM     21  C   UNL     1       6.091  -4.187   2.466  0.00  0.00    +0.111 A 
ATOM     22  C   UNL     1       4.902  -3.817   1.866  0.00  0.00    +0.025 A 
ENDBRANCH  15  17
ENDBRANCH   4  15
TORSDOF 3
