REMARK  Name = ZINC67268322
REMARK  3 active torsions:
REMARK  status: ('A' for Active; 'I' for Inactive)
REMARK    1  A    between atoms: C_1  and  C_2
REMARK    2  A    between atoms: C_6  and  C_24
REMARK    3  A    between atoms: C_10  and  C_12
REMARK                            x       y       z     vdW  Elec       q    Type
REMARK                         _______ _______ _______ _____ _____    ______ ____
ROOT
ATOM      1  C   UNL     1       0.027   1.412  -0.079  0.00  0.00    +0.028 C 
ATOM      2  C   UNL     1      -0.287  -0.053   0.229  0.00  0.00    +0.073 C 
ATOM      3  C   UNL     1       0.035  -0.916  -0.996  0.00  0.00    +0.023 C 
ATOM      4  C   UNL     1      -0.148  -2.392  -0.637  0.00  0.00    +0.016 C 
ATOM      5  C   UNL     1       0.819  -2.770   0.487  0.00  0.00    +0.092 C 
ATOM      6  C   UNL     1       0.505  -1.929   1.729  0.00  0.00    +0.120 C 
ATOM      7  N   UNL     1       0.535  -0.506   1.359  0.00  0.00    -0.298 N 
ATOM      8  C   UNL     1       1.304   0.365   2.042  0.00  0.00    +0.219 C 
ATOM      9  O   UNL     1       1.249   1.550   1.789  0.00  0.00    -0.275 OA
ENDROOT
BRANCH   8  10
ATOM     10  C   UNL     1       2.232  -0.133   3.120  0.00  0.00    +0.075 C 
ATOM     11  C   UNL     1       3.537  -0.619   2.485  0.00  0.00    +0.015 C 
ATOM     12  C   UNL     1       4.474  -1.136   3.579  0.00  0.00    +0.036 C 
ATOM     13  C   UNL     1       4.760  -0.019   4.576  0.00  0.00    +0.112 C 
ATOM     14  C   UNL     1       3.467   0.494   5.199  0.00  0.00    +0.036 C 
ATOM     15  C   UNL     1       2.534   1.004   4.098  0.00  0.00    +0.015 C 
ATOM     16  C   UNL     1       5.507   1.110   3.904  0.00  0.00    +0.244 C 
ATOM     17  O   UNL     1       5.125   1.794   2.979  0.00  0.00    -0.273 OA
ATOM     18  N   UNL     1       6.688   1.197   4.551  0.00  0.00    -0.238 N 
ATOM     19  C   UNL     1       6.783   0.286   5.527  0.00  0.00    +0.307 C 
ATOM     20  O   UNL     1       7.754   0.168   6.249  0.00  0.00    -0.252 OA
ATOM     21  N   UNL     1       5.683  -0.486   5.619  0.00  0.00    -0.285 N 
ATOM     22  H   UNL     1       7.381   1.839   4.335  0.00  0.00    +0.159 HD
ATOM     23  H   UNL     1       5.531  -1.207   6.250  0.00  0.00    +0.151 HD
ENDBRANCH   8  10
BRANCH   5  24
ATOM     24  C   UNL     1       0.661  -4.232   0.817  0.00  0.00    +0.215 C 
ATOM     25  O   UNL     1       0.333  -4.569   1.935  0.00  0.00    -0.276 OA
ATOM     26  N   UNL     1       0.884  -5.164  -0.131  0.00  0.00    -0.329 N 
ATOM     27  H   UNL     1       1.146  -4.894  -1.025  0.00  0.00    +0.145 HD
ATOM     28  H   UNL     1       0.782  -6.105   0.081  0.00  0.00    +0.145 HD
ENDBRANCH   5  24
TORSDOF 2
