REMARK  Name = ZINC66834216
REMARK  9 active torsions:
REMARK  status: ('A' for Active; 'I' for Inactive)
REMARK    1  A    between atoms: C_1  and  C_2
REMARK    2  A    between atoms: C_6  and  C_31
REMARK    3  A    between atoms: N_8  and  C_9
REMARK    4  A    between atoms: C_9  and  C_10
REMARK    5  A    between atoms: C_10  and  N_11
REMARK    6  A    between atoms: C_17  and  C_19
REMARK    7  A    between atoms: C_19  and  C_21
REMARK    8  A    between atoms: C_19  and  N_22
REMARK    9  A    between atoms: C_23  and  C_25
REMARK                            x       y       z     vdW  Elec       q    Type
REMARK                         _______ _______ _______ _____ _____    ______ ____
ROOT
ATOM      1  N   UNL     1       3.900  -0.569   2.729  0.00  0.00    -0.301 NA
ATOM      2  C   UNL     1       4.489   0.758   2.503  0.00  0.00    +0.103 C 
ATOM      3  C   UNL     1       5.939   0.597   2.036  0.00  0.00    +0.123 C 
ATOM      4  N   UNL     1       6.654  -0.242   3.010  0.00  0.00    -0.298 N 
ATOM      5  C   UNL     1       6.053  -1.530   3.392  0.00  0.00    +0.123 C 
ATOM      6  C   UNL     1       4.598  -1.285   3.805  0.00  0.00    +0.103 C 
ATOM      7  C   UNL     1       7.827   0.158   3.539  0.00  0.00    +0.236 C 
ATOM      8  O   UNL     1       8.358   1.171   3.138  0.00  0.00    -0.274 OA
ENDROOT
BRANCH   7   9
ATOM      9  C   UNL     1       8.478  -0.655   4.628  0.00  0.00    +0.156 C 
ATOM     10  C   UNL     1       9.124  -1.900   4.019  0.00  0.00    +0.038 C 
BRANCH   9  11
ATOM     11  N   UNL     1       9.505   0.153   5.292  0.00  0.00    -0.304 N 
ATOM     12  C   UNL     1       9.864  -0.124   6.561  0.00  0.00    +0.217 C 
ATOM     13  O   UNL     1       9.337  -1.042   7.154  0.00  0.00    -0.275 OA
ATOM     14  H   UNL     1       9.926   0.887   4.818  0.00  0.00    +0.149 HD
BRANCH  12  15
ATOM     15  C   UNL     1      10.920   0.706   7.244  0.00  0.00    +0.079 C 
ATOM     16  C   UNL     1      12.236   0.602   6.466  0.00  0.00    +0.041 C 
ATOM     17  C   UNL     1      13.322   1.384   7.210  0.00  0.00    +0.160 C 
ATOM     18  O   UNL     1      13.453   0.871   8.537  0.00  0.00    -0.380 OA
ATOM     19  C   UNL     1      12.267   0.985   9.326  0.00  0.00    +0.160 C 
ATOM     20  C   UNL     1      11.139   0.186   8.668  0.00  0.00    +0.041 C 
ENDBRANCH  12  15
ENDBRANCH   9  11
ENDBRANCH   7   9
BRANCH   1  21
ATOM     21  C   UNL     1       2.462  -0.466   3.011  0.00  0.00    +0.066 C 
BRANCH  21  22
ATOM     22  C   UNL     1       1.735   0.057   1.771  0.00  0.00    -0.063 C 
BRANCH  22  28
ATOM     23  C   UNL     1      -0.179   2.408   0.930  0.00  0.00    -0.013 C 
ATOM     24  C   UNL     1      -0.379   0.891   0.932  0.00  0.00    -0.071 C 
ATOM     25  C   UNL     1      -1.867   0.535   1.177  0.00  0.00    -0.017 C 
ATOM     26  C   UNL     1      -1.789  -0.895   1.758  0.00  0.00    -0.017 C 
ATOM     27  C   UNL     1      -0.361  -1.025   2.318  0.00  0.00    -0.071 C 
ATOM     28  N   UNL     1       0.317   0.272   2.089  0.00  0.00    +0.384 N 
ATOM     29  C   UNL     1      -0.414  -1.334   3.816  0.00  0.00    -0.013 C 
ATOM     30  H   UNL     1       0.227   0.859   2.904  0.00  0.00    -0.081 HD
ENDBRANCH  22  28
ENDBRANCH  21  22
ENDBRANCH   1  21
TORSDOF 6
