REMARK  Name = ZINC07894843
REMARK  2 active torsions:
REMARK  status: ('A' for Active; 'I' for Inactive)
REMARK    1  A    between atoms: C_6  and  C_10
REMARK    2  A    between atoms: N_11  and  N_12
REMARK                            x       y       z     vdW  Elec       q    Type
REMARK                         _______ _______ _______ _____ _____    ______ ____
ROOT
ATOM      1  C   UNL     1       3.666  -2.776  -0.048  0.00  0.00    +0.101 A 
ATOM      2  C   UNL     1       4.466  -3.842  -0.062  0.00  0.00    +0.067 A 
ATOM      3  S   UNL     1       3.290  -5.185  -0.057  0.00  0.00    -0.058 S 
ATOM      4  C   UNL     1       1.809  -4.201  -0.038  0.00  0.00    +0.179 A 
ATOM      5  N   UNL     1       2.297  -2.922  -0.036  0.00  0.00    -0.291 N 
ATOM      6  C   UNL     1       1.158  -2.103  -0.020  0.00  0.00    +0.105 A 
ATOM      7  C   UNL     1       0.063  -2.936  -0.008  0.00  0.00    +0.157 A 
ATOM      8  N   UNL     1       0.503  -4.197  -0.026  0.00  0.00    -0.209 NA
ATOM      9 CL   UNL     1      -1.599  -2.436   0.019  0.00  0.00    -0.060 Cl
ENDROOT
BRANCH   6  10
ATOM     10  C   UNL     1       1.138  -0.639  -0.012  0.00  0.00    +0.159 C 
ATOM     11  N   UNL     1       0.002  -0.004   0.002  0.00  0.00    -0.185 NA
BRANCH  11  12
ATOM     12  N   UNL     1      -0.017   1.397   0.010  0.00  0.00    -0.191 N 
ATOM     13  C   UNL     1      -1.193   2.055   0.019  0.00  0.00    +0.317 C 
ATOM     14  O   UNL     1      -1.210   3.271   0.026  0.00  0.00    -0.251 OA
ATOM     15  N   UNL     1      -2.351   1.365   0.021  0.00  0.00    -0.312 N 
ATOM     16  H   UNL     1       0.816   1.893   0.004  0.00  0.00    +0.179 HD
ATOM     17  H   UNL     1      -2.338   0.395   0.015  0.00  0.00    +0.147 HD
ATOM     18  H   UNL     1      -3.198   1.839   0.027  0.00  0.00    +0.147 HD
ENDBRANCH  11  12
ENDBRANCH   6  10
TORSDOF 2
