REMARK  Name = ZINC12629937
REMARK  8 active torsions:
REMARK  status: ('A' for Active; 'I' for Inactive)
REMARK    1  A    between atoms: C_7  and  N_17
REMARK    2  A    between atoms: C_9  and  C_11
REMARK    3  A    between atoms: N_17  and  C_18
REMARK    4  A    between atoms: C_18  and  C_19
REMARK    5  A    between atoms: C_19  and  C_20
REMARK    6  A    between atoms: C_20  and  C_21
REMARK    7  A    between atoms: C_22  and  C_28
REMARK    8  A    between atoms: C_23  and  N_27
REMARK                            x       y       z     vdW  Elec       q    Type
REMARK                         _______ _______ _______ _____ _____    ______ ____
ROOT
ATOM      1  C   UNL     1      -6.006   3.480   0.047  0.00  0.00    +0.001 A 
ATOM      2  C   UNL     1      -5.997   2.088   0.039  0.00  0.00    +0.002 A 
ATOM      3  C   UNL     1      -4.825   1.393   0.031  0.00  0.00    +0.028 A 
ATOM      4  C   UNL     1      -3.607   2.089   0.030  0.00  0.00    +0.077 A 
ATOM      5  C   UNL     1      -3.619   3.506   0.037  0.00  0.00    +0.040 A 
ATOM      6  C   UNL     1      -4.840   4.188   0.046  0.00  0.00    +0.013 A 
ATOM      7  C   UNL     1      -2.377   4.189   0.036  0.00  0.00    +0.130 A 
ATOM      8  N   UNL     1      -1.265   3.469   0.027  0.00  0.00    -0.212 NA
ATOM      9  C   UNL     1      -1.300   2.138   0.020  0.00  0.00    +0.162 A 
ATOM     10  N   UNL     1      -2.428   1.454   0.016  0.00  0.00    -0.227 NA
ENDROOT
BRANCH   9  11
ATOM     11  C   UNL     1      -0.017   1.393   0.010  0.00  0.00    +0.022 A 
ATOM     12  C   UNL     1       1.206   2.070   0.002  0.00  0.00    +0.031 A 
ATOM     13  C   UNL     1       2.376   1.338  -0.014  0.00  0.00    +0.111 A 
ATOM     14  N   UNL     1       2.350   0.020  -0.021  0.00  0.00    -0.263 NA
ATOM     15  C   UNL     1       1.218  -0.657  -0.013  0.00  0.00    +0.111 A 
ATOM     16  C   UNL     1       0.002  -0.004   0.002  0.00  0.00    +0.031 A 
ENDBRANCH   9  11
BRANCH   7  17
ATOM     17  N   UNL     1      -2.327   5.566   0.043  0.00  0.00    -0.328 N 
ATOM     18  H   UNL     1      -3.149   6.081   0.049  0.00  0.00    +0.147 HD
BRANCH  17  19
ATOM     19  C   UNL     1      -1.033   6.253   0.040  0.00  0.00    +0.103 C 
BRANCH  19  20
ATOM     20  C   UNL     1      -1.258   7.766   0.049  0.00  0.00    +0.025 C 
BRANCH  20  21
ATOM     21  C   UNL     1       0.093   8.483   0.046  0.00  0.00    +0.060 C 
BRANCH  21  22
ATOM     22  C   UNL     1      -0.128   9.973   0.055  0.00  0.00    +0.082 A 
ATOM     23  C   UNL     1      -0.245  10.788   1.205  0.00  0.00    +0.113 A 
ATOM     24  C   UNL     1      -0.440  12.093   0.762  0.00  0.00    +0.129 A 
ATOM     25  N   UNL     1      -0.440  12.058  -0.587  0.00  0.00    -0.263 N 
ATOM     26  H   UNL     1      -0.561  12.845  -1.192  0.00  0.00    +0.190 HD
ATOM     27  N   UNL     1      -0.240  10.736  -0.997  0.00  0.00    -0.176 NA
BRANCH  24  28
ATOM     28  N   UNL     1      -0.604  13.213   1.554  0.00  0.00    -0.342 N 
ATOM     29  H   UNL     1      -0.589  13.130   2.521  0.00  0.00    +0.144 HD
ATOM     30  H   UNL     1      -0.734  14.082   1.144  0.00  0.00    +0.144 HD
ENDBRANCH  24  28
BRANCH  23  31
ATOM     31  C   UNL     1      -0.175  10.352   2.568  0.00  0.00    +0.104 C 
ATOM     32  N   UNL     1      -0.120  10.007   3.649  0.00  0.00    -0.191 NA
ENDBRANCH  23  31
ENDBRANCH  21  22
ENDBRANCH  20  21
ENDBRANCH  19  20
ENDBRANCH  17  19
ENDBRANCH   7  17
TORSDOF 8
