REMARK  Name = ZINC15276078
REMARK  9 active torsions:
REMARK  status: ('A' for Active; 'I' for Inactive)
REMARK    1  A    between atoms: C_1  and  C_2
REMARK    2  A    between atoms: C_6  and  N_8
REMARK    3  A    between atoms: C_13  and  C_35
REMARK    4  A    between atoms: C_16  and  C_21
REMARK    5  A    between atoms: C_16  and  C_32
REMARK    6  A    between atoms: C_21  and  C_22
REMARK    7  A    between atoms: C_39  and  O_42
REMARK    8  A    between atoms: C_40  and  O_41
REMARK    9  A    between atoms: O_42  and  C_43
REMARK                            x       y       z     vdW  Elec       q    Type
REMARK                         _______ _______ _______ _____ _____    ______ ____
ROOT
ATOM      1  N   UNL     1      -0.264  -2.657   2.600  0.00  0.00    -0.210 N 
ATOM      2  C   UNL     1      -0.042  -2.114   3.803  0.00  0.00    +0.229 C 
ATOM      3  O   UNL     1       0.056  -0.927   4.029  0.00  0.00    -0.275 OA
ATOM      4  C   UNL     1       0.065  -3.212   4.838  0.00  0.00    +0.077 C 
ATOM      5  C   UNL     1       1.516  -3.279   5.358  0.00  0.00    -0.023 C 
ATOM      6  N   UNL     1       2.221  -4.165   4.397  0.00  0.00    +0.396 N 
ATOM      7  C   UNL     1       1.237  -5.237   4.100  0.00  0.00    +0.052 C 
ATOM      8  C   UNL     1      -0.137  -4.508   4.007  0.00  0.00    +0.086 C 
ATOM      9  C   UNL     1      -0.341  -3.993   2.600  0.00  0.00    +0.229 C 
ATOM     10  O   UNL     1      -0.540  -4.683   1.623  0.00  0.00    -0.275 OA
ATOM     11  H   UNL     1       2.455  -3.658   3.557  0.00  0.00    -0.083 HD
ATOM     12  H   UNL     1       3.051  -4.554   4.819  0.00  0.00    -0.083 HD
ENDROOT
BRANCH   1  18
ATOM     13  C   UNL     1      -2.848   0.598  -0.029  0.00  0.00    +0.044 C 
ATOM     14  C   UNL     1      -1.652  -0.303   0.137  0.00  0.00    -0.049 A 
ATOM     15  C   UNL     1      -0.696  -0.373  -0.860  0.00  0.00    +0.003 A 
ATOM     16  C   UNL     1       0.403  -1.199  -0.711  0.00  0.00    +0.002 A 
ATOM     17  C   UNL     1       0.549  -1.957   0.434  0.00  0.00    +0.024 A 
ATOM     18  C   UNL     1      -0.409  -1.889   1.437  0.00  0.00    +0.044 A 
ATOM     19  C   UNL     1      -1.508  -1.054   1.287  0.00  0.00    +0.027 A 
ENDBRANCH   1  18
BRANCH   5  20
ATOM     20  C   UNL     1       2.136  -1.906   5.363  0.00  0.00    -0.015 A 
ATOM     21  C   UNL     1       2.933  -1.503   4.307  0.00  0.00    +0.006 A 
ATOM     22  C   UNL     1       3.503  -0.244   4.308  0.00  0.00    +0.004 A 
ATOM     23  C   UNL     1       3.280   0.618   5.365  0.00  0.00    +0.049 A 
ATOM     24  C   UNL     1       2.482   0.222   6.426  0.00  0.00    +0.161 A 
ATOM     25  C   UNL     1       1.903  -1.044   6.422  0.00  0.00    +0.160 A 
BRANCH  25  26
ATOM     26  O   UNL     1       1.115  -1.436   7.459  0.00  0.00    -0.503 OA
ATOM     27  H   UNL     1       1.596  -1.871   8.176  0.00  0.00    +0.292 HD
ENDBRANCH  25  26
BRANCH  24  28
ATOM     28  O   UNL     1       2.261   1.069   7.467  0.00  0.00    -0.491 OA
ATOM     29  C   UNL     1       2.883   2.354   7.401  0.00  0.00    +0.277 C 
ENDBRANCH  24  28
ENDBRANCH   5  20
BRANCH   7  30
ATOM     30  C   UNL     1       1.212  -6.250   5.216  0.00  0.00    +0.347 C 
ATOM     31  O   UNL     1       1.960  -6.124   6.170  0.00  0.00    -0.248 OA
ATOM     32  O   UNL     1       0.443  -7.195   5.164  0.00  0.00    -0.248 OA
ENDBRANCH   7  30
BRANCH   7  33
ATOM     33  C   UNL     1       1.573  -5.915   2.771  0.00  0.00    +0.037 C 
BRANCH  33  34
ATOM     34  C   UNL     1       2.936  -6.552   2.862  0.00  0.00    -0.023 A 
ATOM     35  C   UNL     1       4.100  -6.006   2.475  0.00  0.00    +0.087 A 
ATOM     36  N   UNL     1       5.127  -6.879   2.712  0.00  0.00    -0.360 N 
ATOM     37  H   UNL     1       6.061  -6.707   2.515  0.00  0.00    +0.165 HD
ATOM     38  C   UNL     1       4.636  -8.038   3.270  0.00  0.00    +0.047 A 
ATOM     39  C   UNL     1       3.243  -7.881   3.395  0.00  0.00    +0.003 A 
ATOM     40  C   UNL     1       2.473  -8.909   3.942  0.00  0.00    +0.010 A 
ATOM     41  C   UNL     1       3.078 -10.062   4.359  0.00  0.00    +0.001 A 
ATOM     42  C   UNL     1       4.452 -10.219   4.242  0.00  0.00    +0.002 A 
ATOM     43  C   UNL     1       5.230  -9.222   3.696  0.00  0.00    +0.026 A 
ENDBRANCH  33  34
ENDBRANCH   7  33
TORSDOF 7
