REMARK  Name = ZINC63789314
REMARK  7 active torsions:
REMARK  status: ('A' for Active; 'I' for Inactive)
REMARK    1  A    between atoms: C_1  and  C_2
REMARK    2  A    between atoms: C_5  and  C_8
REMARK    3  A    between atoms: N_10  and  N_11
REMARK    4  A    between atoms: C_12  and  C_14
REMARK    5  A    between atoms: C_14  and  C_15
REMARK    6  A    between atoms: C_15  and  C_16
REMARK    7  A    between atoms: C_16  and  C_17
REMARK                            x       y       z     vdW  Elec       q    Type
REMARK                         _______ _______ _______ _____ _____    ______ ____
ROOT
ATOM      1  N   UNL     1       0.092  -6.332   1.134  0.00  0.00    -0.234 N 
ATOM      2  C   UNL     1       0.107  -7.013   2.298  0.00  0.00    +0.229 C 
ATOM      3  O   UNL     1       0.104  -6.412   3.352  0.00  0.00    -0.274 OA
ATOM      4  H   UNL     1       0.095  -6.813   0.292  0.00  0.00    +0.173 HD
ENDROOT
BRANCH   1   7
ATOM      5  C   UNL     1       0.059  -4.251  -0.021  0.00  0.00    +0.260 C 
ATOM      6  O   UNL     1       0.062  -4.853  -1.077  0.00  0.00    -0.269 OA
ATOM      7  N   UNL     1       0.074  -4.931   1.142  0.00  0.00    -0.230 N 
ATOM      8  H   UNL     1       0.072  -4.451   1.985  0.00  0.00    +0.173 HD
BRANCH   5  13
ATOM      9  C   UNL     1      -0.018   1.503   0.010  0.00  0.00    +0.044 C 
ATOM     10  C   UNL     1       0.002  -0.004   0.002  0.00  0.00    -0.050 A 
ATOM     11  C   UNL     1       0.006  -0.686  -1.202  0.00  0.00    +0.004 A 
ATOM     12  C   UNL     1       0.024  -2.066  -1.216  0.00  0.00    +0.013 A 
ATOM     13  C   UNL     1       0.040  -2.773  -0.013  0.00  0.00    +0.038 A 
ATOM     14  C   UNL     1       0.036  -2.079   1.198  0.00  0.00    +0.013 A 
ATOM     15  C   UNL     1       0.023  -0.699   1.198  0.00  0.00    +0.004 A 
ENDBRANCH   5  13
ENDBRANCH   1   7
BRANCH   2  16
ATOM     16  C   UNL     1       0.127  -8.519   2.290  0.00  0.00    +0.097 C 
BRANCH  16  17
ATOM     17  C   UNL     1       0.141  -9.037   3.729  0.00  0.00    +0.014 C 
BRANCH  17  18
ATOM     18  C   UNL     1       0.161 -10.567   3.721  0.00  0.00    +0.033 C 
BRANCH  18  19
ATOM     19  C   UNL     1       0.175 -11.077   5.139  0.00  0.00    -0.042 C 
ATOM     20  C   UNL     1      -0.893 -11.460   5.875  0.00  0.00    -0.001 A 
ATOM     21  C   UNL     1      -2.331 -11.514   5.589  0.00  0.00    +0.010 A 
ATOM     22  C   UNL     1      -3.176 -11.953   6.549  0.00  0.00    +0.001 A 
ATOM     23  C   UNL     1      -2.713 -12.356   7.809  0.00  0.00    +0.002 A 
ATOM     24  C   UNL     1      -1.406 -12.335   8.147  0.00  0.00    +0.026 A 
ATOM     25  C   UNL     1      -0.429 -11.892   7.213  0.00  0.00    +0.043 A 
ATOM     26  N   UNL     1       0.874 -11.781   7.301  0.00  0.00    -0.380 N 
ATOM     27  C   UNL     1       1.386 -11.270   6.024  0.00  0.00    +0.144 C 
ATOM     28  H   UNL     1       1.411 -12.002   8.078  0.00  0.00    +0.160 HD
ENDBRANCH  18  19
ENDBRANCH  17  18
ENDBRANCH  16  17
ENDBRANCH   2  16
TORSDOF 6
