REMARK  Name = ZINC39634268
REMARK  9 active torsions:
REMARK  status: ('A' for Active; 'I' for Inactive)
REMARK    1  A    between atoms: C_1  and  C_2
REMARK    2  A    between atoms: C_5  and  C_8
REMARK    3  A    between atoms: C_8  and  N_9
REMARK    4  A    between atoms: C_10  and  C_12
REMARK    5  A    between atoms: C_23  and  C_25
REMARK    6  A    between atoms: C_28  and  O_33
REMARK    7  A    between atoms: C_30  and  O_31
REMARK    8  A    between atoms: O_31  and  C_32
REMARK    9  A    between atoms: O_33  and  C_34
REMARK                            x       y       z     vdW  Elec       q    Type
REMARK                         _______ _______ _______ _____ _____    ______ ____
ROOT
ATOM      1  C   UNL     1       3.142  -6.545  -0.051  0.00  0.00    +0.100 C 
ATOM      2  C   UNL     1       3.908  -6.003   1.177  0.00  0.00    +0.121 C 
ATOM      3  N   UNL     1       3.805  -7.081   2.188  0.00  0.00    -0.296 N 
ATOM      4  C   UNL     1       3.958  -8.333   1.409  0.00  0.00    +0.115 C 
ATOM      5  C   UNL     1       3.180  -8.075   0.104  0.00  0.00    -0.004 C 
ATOM      6  C   UNL     1       1.763  -8.630   0.217  0.00  0.00    -0.010 C 
ATOM      7  C   UNL     1       1.825 -10.157   0.313  0.00  0.00    -0.082 C 
ATOM      8  N   UNL     1       2.490 -10.697  -0.879  0.00  0.00    +0.379 N 
ATOM      9  C   UNL     1       3.881 -10.232  -0.930  0.00  0.00    -0.082 C 
ATOM     10  C   UNL     1       3.907  -8.708  -1.078  0.00  0.00    -0.010 C 
ATOM     11  C   UNL     1       3.615  -6.952   3.517  0.00  0.00    +0.250 C 
ATOM     12  O   UNL     1       3.410  -5.854   3.998  0.00  0.00    -0.270 OA
ATOM     13  H   UNL     1       2.475 -11.706  -0.843  0.00  0.00    -0.086 HD
ATOM     14  H   UNL     1       2.002 -10.386  -1.705  0.00  0.00    -0.086 HD
ENDROOT
BRANCH  11  15
ATOM     15  C   UNL     1       3.657  -8.141   4.385  0.00  0.00    +0.079 A 
ATOM     16  C   UNL     1       4.537  -9.190   4.098  0.00  0.00    +0.020 A 
ATOM     17  C   UNL     1       4.573 -10.298   4.912  0.00  0.00    +0.046 A 
ATOM     18  C   UNL     1       3.737 -10.381   6.021  0.00  0.00    +0.124 A 
ATOM     19  C   UNL     1       2.860  -9.347   6.315  0.00  0.00    +0.092 A 
ATOM     20  C   UNL     1       2.819  -8.223   5.507  0.00  0.00    +0.136 A 
BRANCH  20  21
ATOM     21  O   UNL     1       1.966  -7.208   5.796  0.00  0.00    -0.494 OA
ATOM     22  C   UNL     1       1.143  -7.362   6.954  0.00  0.00    +0.277 C 
ENDBRANCH  20  21
BRANCH  18  23
ATOM     23  O   UNL     1       3.779 -11.478   6.819  0.00  0.00    -0.495 OA
ATOM     24  C   UNL     1       4.704 -12.506   6.460  0.00  0.00    +0.277 C 
ENDBRANCH  18  23
ENDBRANCH  11  15
BRANCH   1  26
ATOM     25  N   UNL     1       1.064  -5.856  -1.203  0.00  0.00    -0.311 N 
ATOM     26  C   UNL     1       1.718  -6.052  -0.040  0.00  0.00    +0.218 C 
ATOM     27  O   UNL     1       1.160  -5.832   1.014  0.00  0.00    -0.275 OA
ATOM     28  H   UNL     1       1.510  -6.032  -2.046  0.00  0.00    +0.149 HD
BRANCH  25  29
ATOM     29  C   UNL     1      -0.320  -5.376  -1.192  0.00  0.00    +0.139 C 
BRANCH  29  34
ATOM     30  C   UNL     1      -2.222  -4.857  -6.625  0.00  0.00    +0.044 C 
ATOM     31  C   UNL     1      -1.726  -4.992  -5.208  0.00  0.00    -0.050 A 
ATOM     32  C   UNL     1      -1.889  -6.186  -4.530  0.00  0.00    +0.003 A 
ATOM     33  C   UNL     1      -1.434  -6.310  -3.230  0.00  0.00    +0.005 A 
ATOM     34  C   UNL     1      -0.816  -5.241  -2.609  0.00  0.00    -0.030 A 
ATOM     35  C   UNL     1      -0.652  -4.048  -3.288  0.00  0.00    +0.005 A 
ATOM     36  C   UNL     1      -1.103  -3.925  -4.589  0.00  0.00    +0.003 A 
ENDBRANCH  29  34
ENDBRANCH  25  29
ENDBRANCH   1  26
TORSDOF 6
