REMARK  Name = ZINC14849411
REMARK  14 active torsions:
REMARK  status: ('A' for Active; 'I' for Inactive)
REMARK    1  A    between atoms: C_1  and  C_2
REMARK    2  A    between atoms: C_2  and  C_3
REMARK    3  A    between atoms: C_3  and  C_4
REMARK    4  A    between atoms: C_4  and  N_5
REMARK    5  A    between atoms: C_6  and  N_36
REMARK    6  A    between atoms: C_7  and  N_14
REMARK    7  A    between atoms: N_14  and  C_15
REMARK    8  A    between atoms: C_15  and  C_16
REMARK    9  A    between atoms: C_16  and  C_17
REMARK   10  A    between atoms: C_17  and  C_18
REMARK   11  A    between atoms: C_17  and  C_19
REMARK   12  A    between atoms: C_20  and  C_22
REMARK   13  A    between atoms: C_22  and  C_23
REMARK   14  A    between atoms: C_23  and  C_24
REMARK                            x       y       z     vdW  Elec       q    Type
REMARK                         _______ _______ _______ _____ _____    ______ ____
ROOT
ATOM      1  N   UNL     1       0.047  -2.816   2.371  0.00  0.00    -0.264 N 
ATOM      2  C   UNL     1      -0.063  -2.180   3.556  0.00  0.00    +0.220 C 
ATOM      3  O   UNL     1      -0.077  -0.967   3.594  0.00  0.00    -0.275 OA
ENDROOT
BRANCH   1   6
ATOM      4  N   UNL     1      -0.984  -1.471  -0.889  0.00  0.00    -0.280 N 
ATOM      5  C   UNL     1      -1.004  -2.204   0.275  0.00  0.00    +0.127 A 
ATOM      6  C   UNL     1       0.038  -2.077   1.170  0.00  0.00    +0.140 A 
ATOM      7  C   UNL     1       1.093  -1.196   0.863  0.00  0.00    +0.277 A 
ATOM      8  O   UNL     1       2.026  -1.064   1.637  0.00  0.00    -0.266 OA
ATOM      9  N   UNL     1       1.064  -0.501  -0.290  0.00  0.00    -0.273 N 
ATOM     10  H   UNL     1       1.810   0.128  -0.507  0.00  0.00    +0.173 HD
ATOM     11  C   UNL     1       0.042  -0.642  -1.153  0.00  0.00    +0.331 A 
ATOM     12  O   UNL     1       0.044  -0.006  -2.190  0.00  0.00    -0.246 OA
BRANCH   5  13
ATOM     13  N   UNL     1      -2.051  -3.055   0.542  0.00  0.00    -0.343 N 
ATOM     14  H   UNL     1      -2.815  -3.086  -0.054  0.00  0.00    +0.144 HD
ATOM     15  H   UNL     1      -2.024  -3.624   1.327  0.00  0.00    +0.144 HD
ENDBRANCH   5  13
BRANCH   4  16
ATOM     16  C   UNL     1      -2.084  -1.597  -1.848  0.00  0.00    +0.128 C 
BRANCH  16  17
ATOM     17  C   UNL     1      -3.169  -0.569  -1.518  0.00  0.00    +0.021 C 
BRANCH  17  19
ATOM     18  C   UNL     1      -5.402   0.327  -2.190  0.00  0.00    +0.004 C 
ATOM     19  C   UNL     1      -4.318  -0.700  -2.520  0.00  0.00    -0.002 C 
ENDBRANCH  17  19
ENDBRANCH  16  17
ENDBRANCH   4  16
ENDBRANCH   1   6
BRANCH   1  20
ATOM     20  C   UNL     1       0.175  -4.275   2.333  0.00  0.00    +0.114 C 
BRANCH  20  21
ATOM     21  C   UNL     1       1.645  -4.663   2.505  0.00  0.00    +0.022 C 
BRANCH  21  22
ATOM     22  C   UNL     1       1.779  -6.186   2.465  0.00  0.00    -0.016 C 
ATOM     23  C   UNL     1       1.386  -6.696   1.077  0.00  0.00    +0.007 C 
ATOM     24  C   UNL     1       3.228  -6.579   2.761  0.00  0.00    +0.007 C 
ENDBRANCH  21  22
ENDBRANCH  20  21
ENDBRANCH   1  20
BRANCH   2  25
ATOM     25  C   UNL     1      -0.168  -2.975   4.832  0.00  0.00    +0.097 C 
BRANCH  25  26
ATOM     26  C   UNL     1      -0.281  -2.019   6.021  0.00  0.00    +0.022 C 
BRANCH  26  27
ATOM     27  C   UNL     1      -0.388  -2.826   7.316  0.00  0.00    +0.080 C 
ATOM     28  C   UNL     1      -0.367  -1.873   8.512  0.00  0.00    +0.049 C 
ATOM     29  C   UNL     1      -0.755  -2.621   9.762  0.00  0.00    -0.025 A 
ATOM     30  C   UNL     1      -0.206  -2.263  10.978  0.00  0.00    +0.005 A 
ATOM     31  C   UNL     1      -0.589  -2.921  12.132  0.00  0.00    +0.000 A 
ATOM     32  C   UNL     1      -1.527  -3.936  12.073  0.00  0.00    +0.002 A 
ATOM     33  C   UNL     1      -2.074  -4.303  10.859  0.00  0.00    +0.023 A 
ATOM     34  C   UNL     1      -1.676  -3.657   9.696  0.00  0.00    +0.037 A 
ATOM     35  N   UNL     1      -2.221  -4.033   8.465  0.00  0.00    -0.285 N 
ATOM     36  C   UNL     1      -1.673  -3.611   7.312  0.00  0.00    +0.221 C 
ATOM     37  O   UNL     1      -2.217  -3.867   6.259  0.00  0.00    -0.275 OA
ATOM     38  H   UNL     1      -3.005  -4.604   8.442  0.00  0.00    +0.155 HD
ENDBRANCH  26  27
ENDBRANCH  25  26
ENDBRANCH   2  25
TORSDOF 11
