REMARK  Name = ZINC23953660
REMARK  7 active torsions:
REMARK  status: ('A' for Active; 'I' for Inactive)
REMARK    1  A    between atoms: C_1  and  C_2
REMARK    2  A    between atoms: C_2  and  C_3
REMARK    3  A    between atoms: C_3  and  C_23
REMARK    4  A    between atoms: N_6  and  N_10
REMARK    5  A    between atoms: C_11  and  C_13
REMARK    6  A    between atoms: C_16  and  C_22
REMARK    7  A    between atoms: C_17  and  N_19
REMARK                            x       y       z     vdW  Elec       q    Type
REMARK                         _______ _______ _______ _____ _____    ______ ____
ROOT
ATOM      1  C   UNL     1      -1.465   1.904  -0.096  0.00  0.00    +0.139 C 
ATOM      2  C   UNL     1      -1.879   2.030   1.357  0.00  0.00    +0.268 C 
ATOM      3  O   UNL     1      -1.207   2.444   2.277  0.00  0.00    -0.271 OA
ATOM      4  N   UNL     1      -3.151   1.587   1.413  0.00  0.00    -0.137 N 
ATOM      5  C   UNL     1      -3.593   1.203   0.210  0.00  0.00    +0.327 C 
ATOM      6  O   UNL     1      -4.709   0.767   0.008  0.00  0.00    -0.251 OA
ATOM      7  N   UNL     1      -2.664   1.353  -0.751  0.00  0.00    -0.280 N 
ATOM      8  H   UNL     1      -2.656   1.153  -1.833  0.00  0.00    +0.152 HD
ENDROOT
BRANCH   1   9
ATOM      9  C   UNL     1      -0.302   0.957  -0.235  0.00  0.00    -0.015 A 
ATOM     10  C   UNL     1       0.993   1.439  -0.182  0.00  0.00    +0.006 A 
ATOM     11  C   UNL     1       2.060   0.571  -0.317  0.00  0.00    +0.000 A 
ATOM     12  C   UNL     1       1.833  -0.780  -0.504  0.00  0.00    +0.000 A 
ATOM     13  C   UNL     1       0.538  -1.262  -0.557  0.00  0.00    +0.000 A 
ATOM     14  C   UNL     1      -0.529  -0.394  -0.423  0.00  0.00    +0.006 A 
ENDBRANCH   1   9
BRANCH   4  15
ATOM     15  N   UNL     1      -3.915   1.534   2.586  0.00  0.00    -0.220 N 
ATOM     16  C   UNL     1      -4.888   2.442   2.798  0.00  0.00    +0.261 C 
ATOM     17  O   UNL     1      -5.103   3.307   1.971  0.00  0.00    -0.269 OA
ATOM     18  H   UNL     1      -3.720   0.752   3.334  0.00  0.00    +0.174 HD
BRANCH  16  19
ATOM     19  C   UNL     1      -5.694   2.386   4.036  0.00  0.00    +0.040 A 
ATOM     20  C   UNL     1      -5.450   1.395   4.987  0.00  0.00    +0.013 A 
ATOM     21  C   UNL     1      -6.206   1.348   6.140  0.00  0.00    +0.006 A 
ATOM     22  C   UNL     1      -7.205   2.282   6.355  0.00  0.00    -0.020 A 
ATOM     23  C   UNL     1      -7.452   3.268   5.416  0.00  0.00    +0.130 A 
ATOM     24  C   UNL     1      -6.699   3.328   4.261  0.00  0.00    +0.046 A 
ATOM     25  C   UNL     1      -8.027   2.225   7.617  0.00  0.00    +0.046 C 
BRANCH  23  26
ATOM     26  N   UNL     1      -8.521   4.263   5.653  0.00  0.00    +0.057 N 
ATOM     27  O   UNL     1      -8.816   5.060   4.781  0.00  0.00    -0.126 OA
ATOM     28  O   UNL     1      -9.107   4.284   6.721  0.00  0.00    -0.126 OA
ENDBRANCH  23  26
ENDBRANCH  16  19
ENDBRANCH   4  15
BRANCH   1  30
ATOM     29  C   UNL     1      -2.309   4.217  -0.521  0.00  0.00    +0.007 C 
ATOM     30  C   UNL     1      -1.113   3.276  -0.676  0.00  0.00    +0.037 C 
ENDBRANCH   1  30
TORSDOF 5
