REMARK  Name = ZINC25581371
REMARK  4 active torsions:
REMARK  status: ('A' for Active; 'I' for Inactive)
REMARK    1  A    between atoms: C_1  and  C_2
REMARK    2  A    between atoms: C_2  and  C_4
REMARK    3  A    between atoms: C_2  and  N_9
REMARK    4  A    between atoms: C_11  and  N_16
REMARK                            x       y       z     vdW  Elec       q    Type
REMARK                         _______ _______ _______ _____ _____    ______ ____
ROOT
ATOM      1  N   UNL     1      -3.358   2.252  -0.822  0.00  0.00    -0.318 N 
ATOM      2  C   UNL     1      -4.512   1.753  -1.415  0.00  0.00    +0.150 A 
ATOM      3  C   UNL     1      -5.311   2.594  -2.183  0.00  0.00    +0.166 A 
ATOM      4  C   UNL     1      -6.454   2.083  -2.772  0.00  0.00    +0.038 A 
ATOM      5  C   UNL     1      -6.766   0.745  -2.563  0.00  0.00    +0.022 A 
ATOM      6  C   UNL     1      -5.930  -0.030  -1.785  0.00  0.00    +0.113 A 
ATOM      7  N   UNL     1      -4.844   0.483  -1.240  0.00  0.00    -0.238 NA
ATOM      8  H   UNL     1      -3.030   3.280  -1.036  0.00  0.00    +0.148 HD
ENDROOT
BRANCH   3   9
ATOM      9  N   UNL     1      -4.973   3.894  -2.357  0.00  0.00    +0.060 N 
ATOM     10  O   UNL     1      -5.732   4.649  -2.936  0.00  0.00    -0.126 OA
ATOM     11  O   UNL     1      -3.909   4.308  -1.932  0.00  0.00    -0.126 OA
ENDBRANCH   3   9
BRANCH   1  13
ATOM     12  C   UNL     1      -3.168   1.501   1.498  0.00  0.00    +0.036 C 
ATOM     13  C   UNL     1      -2.579   1.409   0.088  0.00  0.00    +0.135 C 
BRANCH  13  14
ATOM     14  C   UNL     1      -1.149   1.881   0.110  0.00  0.00    +0.125 A 
ATOM     15  C   UNL     1      -0.060   1.092   0.137  0.00  0.00    +0.046 A 
ATOM     16  C   UNL     1       1.066   1.947   0.144  0.00  0.00    +0.041 A 
ATOM     17  C   UNL     1       0.598   3.208   0.125  0.00  0.00    +0.195 A 
ATOM     18  O   UNL     1      -0.744   3.162   0.108  0.00  0.00    -0.466 OA
ENDBRANCH  13  14
ENDBRANCH   1  13
TORSDOF 3
