REMARK  Name = ZINC40783631
REMARK  7 active torsions:
REMARK  status: ('A' for Active; 'I' for Inactive)
REMARK    1  A    between atoms: C_1  and  C_2
REMARK    2  A    between atoms: C_2  and  O_3
REMARK    3  A    between atoms: O_3  and  C_4
REMARK    4  A    between atoms: C_9  and  N_10
REMARK    5  A    between atoms: C_12  and  N_28
REMARK    6  A    between atoms: C_13  and  N_17
REMARK    7  A    between atoms: C_23  and  C_27
REMARK                            x       y       z     vdW  Elec       q    Type
REMARK                         _______ _______ _______ _____ _____    ______ ____
ROOT
ATOM      1  N   UNL     1       2.017  -1.505   3.374  0.00  0.00    -0.295 N 
ATOM      2  C   UNL     1       2.584  -2.035   4.527  0.00  0.00    +0.149 A 
ATOM      3  C   UNL     1       3.041  -1.194   5.545  0.00  0.00    +0.106 A 
ATOM      4  C   UNL     1       3.602  -1.779   6.681  0.00  0.00    +0.150 A 
ATOM      5  N   UNL     1       3.680  -3.106   6.751  0.00  0.00    -0.219 NA
ATOM      6  C   UNL     1       3.238  -3.863   5.768  0.00  0.00    +0.225 A 
ATOM      7  N   UNL     1       2.696  -3.352   4.681  0.00  0.00    -0.219 NA
ATOM      8  H   UNL     1       1.848  -0.552   3.311  0.00  0.00    +0.154 HD
ENDROOT
BRANCH   4   9
ATOM      9  N   UNL     1       4.072  -0.987   7.724  0.00  0.00    -0.277 N 
ATOM     10  C   UNL     1       4.626  -1.577   8.844  0.00  0.00    +0.165 A 
ATOM     11  N   UNL     1       4.799  -2.853   9.102  0.00  0.00    -0.225 NA
ATOM     12  C   UNL     1       5.360  -3.292  10.250  0.00  0.00    +0.080 A 
ATOM     13  C   UNL     1       5.601  -4.626  10.650  0.00  0.00    +0.029 A 
ATOM     14  C   UNL     1       6.185  -4.901  11.859  0.00  0.00    +0.005 A 
ATOM     15  C   UNL     1       6.558  -3.888  12.731  0.00  0.00    -0.049 A 
ATOM     16  C   UNL     1       6.336  -2.570  12.372  0.00  0.00    +0.020 A 
ATOM     17  C   UNL     1       5.753  -2.286  11.163  0.00  0.00    +0.041 A 
ATOM     18  S   UNL     1       5.297  -0.798  10.306  0.00  0.00    -0.052 S 
ATOM     19  C   UNL     1       7.197  -4.219  14.055  0.00  0.00    +0.044 C 
ATOM     20  H   UNL     1       4.012  -0.021   7.665  0.00  0.00    +0.156 HD
ENDBRANCH   4   9
BRANCH   1  26
ATOM     21  C   UNL     1       0.682  -1.983   1.413  0.00  0.00    +0.142 A 
ATOM     22  C   UNL     1       0.366  -2.817   0.353  0.00  0.00    +0.047 A 
ATOM     23  C   UNL     1       1.045  -4.010   0.185  0.00  0.00    +0.004 A 
ATOM     24  C   UNL     1       2.041  -4.374   1.073  0.00  0.00    +0.002 A 
ATOM     25  C   UNL     1       2.363  -3.547   2.132  0.00  0.00    +0.027 A 
ATOM     26  C   UNL     1       1.689  -2.346   2.304  0.00  0.00    +0.075 A 
BRANCH  21  27
ATOM     27  O   UNL     1       0.015  -0.810   1.580  0.00  0.00    -0.490 OA
BRANCH  27  29
ATOM     28  C   UNL     1      -1.639   0.845   0.976  0.00  0.00    +0.048 C 
ATOM     29  C   UNL     1      -1.005  -0.503   0.627  0.00  0.00    +0.226 C 
ENDBRANCH  27  29
ENDBRANCH  21  27
ENDBRANCH   1  26
BRANCH   3  30
ATOM     30  N   UNL     1       2.938   0.201   5.428  0.00  0.00    -0.353 N 
ATOM     31  H   UNL     1       2.546   0.593   4.632  0.00  0.00    +0.143 HD
ATOM     32  H   UNL     1       3.259   0.772   6.143  0.00  0.00    +0.143 HD
ENDBRANCH   3  30
TORSDOF 5
