REMARK  Name = ZINC12495024
REMARK  4 active torsions:
REMARK  status: ('A' for Active; 'I' for Inactive)
REMARK    1  A    between atoms: C_3  and  C_6
REMARK    2  A    between atoms: C_6  and  N_7
REMARK    3  A    between atoms: C_16  and  N_18
REMARK    4  A    between atoms: N_21  and  C_22
REMARK                            x       y       z     vdW  Elec       q    Type
REMARK                         _______ _______ _______ _____ _____    ______ ____
ROOT
ATOM      1  N   UNL     1       4.100   0.607   1.345  0.00  0.00    +0.388 N 
ATOM      2  C   UNL     1       3.660  -0.598   2.045  0.00  0.00    -0.066 C 
ATOM      3  C   UNL     1       4.036  -0.505   3.522  0.00  0.00    -0.015 C 
ATOM      4  C   UNL     1       5.526  -0.252   3.714  0.00  0.00    -0.003 C 
ATOM      5  C   UNL     1       6.042   0.859   2.808  0.00  0.00    -0.015 C 
ATOM      6  C   UNL     1       5.558   0.692   1.370  0.00  0.00    -0.066 C 
ATOM      7  C   UNL     1       6.215  -0.501   0.698  0.00  0.00    +0.007 C 
ATOM      8  C   UNL     1       5.721  -1.834   1.244  0.00  0.00    +0.071 C 
ATOM      9  C   UNL     1       4.208  -1.863   1.410  0.00  0.00    +0.007 C 
ATOM     10  H   UNL     1       3.725   1.415   1.835  0.00  0.00    -0.080 HD
ENDROOT
BRANCH   8  11
ATOM     11  N   UNL     1       6.110  -2.901   0.301  0.00  0.00    -0.297 N 
ATOM     12  C   UNL     1       6.259  -4.167   0.739  0.00  0.00    +0.300 C 
ATOM     13  O   UNL     1       6.072  -4.430   1.911  0.00  0.00    -0.253 OA
ATOM     14  N   UNL     1       6.614  -5.140  -0.122  0.00  0.00    -0.294 N 
ATOM     15  H   UNL     1       6.259  -2.690  -0.634  0.00  0.00    +0.151 HD
ATOM     16  H   UNL     1       6.763  -4.930  -1.058  0.00  0.00    +0.151 HD
BRANCH  14  17
ATOM     17  C   UNL     1       6.776  -6.516   0.354  0.00  0.00    +0.037 C 
ATOM     18  C   UNL     1       7.863  -6.559   1.429  0.00  0.00    +0.029 C 
ATOM     19  C   UNL     1       8.031  -7.997   1.927  0.00  0.00    -0.008 C 
ATOM     20  C   UNL     1       8.435  -8.897   0.757  0.00  0.00    +0.007 C 
ATOM     21  C   UNL     1       7.348  -8.854  -0.319  0.00  0.00    -0.008 C 
ATOM     22  C   UNL     1       7.179  -7.417  -0.816  0.00  0.00    +0.029 C 
ATOM     23  C   UNL     1       6.026  -9.347   0.273  0.00  0.00    +0.007 C 
ATOM     24  C   UNL     1       5.622  -8.447   1.442  0.00  0.00    -0.008 C 
ATOM     25  C   UNL     1       6.709  -8.490   2.518  0.00  0.00    +0.007 C 
ATOM     26  C   UNL     1       5.454  -7.010   0.945  0.00  0.00    +0.029 C 
ENDBRANCH  14  17
ENDBRANCH   8  11
BRANCH   1  27
ATOM     27  C   UNL     1       3.599   0.625  -0.029  0.00  0.00    -0.002 C 
BRANCH  27  30
ATOM     28  C   UNL     1      -0.016   1.341   0.009  0.00  0.00    +0.041 A 
ATOM     29  C   UNL     1       1.331   1.769  -0.001  0.00  0.00    +0.042 A 
ATOM     30  C   UNL     1       2.092   0.660  -0.014  0.00  0.00    +0.089 A 
ATOM     31  O   UNL     1       1.282  -0.411  -0.012  0.00  0.00    -0.470 OA
ATOM     32  C   UNL     1       0.002  -0.004   0.002  0.00  0.00    +0.195 A 
ENDBRANCH  27  30
ENDBRANCH   1  27
TORSDOF 4
