REMARK  Name = ZINC44020170
REMARK  10 active torsions:
REMARK  status: ('A' for Active; 'I' for Inactive)
REMARK    1  A    between atoms: C_1  and  O_2
REMARK    2  A    between atoms: O_2  and  C_3
REMARK    3  A    between atoms: C_3  and  C_5
REMARK    4  A    between atoms: C_7  and  O_37
REMARK    5  A    between atoms: C_9  and  O_36
REMARK    6  A    between atoms: C_11  and  O_35
REMARK    7  A    between atoms: C_13  and  O_16
REMARK    8  A    between atoms: O_16  and  C_17
REMARK    9  A    between atoms: C_25  and  C_28
REMARK   10  A    between atoms: C_31  and  O_34
REMARK                            x       y       z     vdW  Elec       q    Type
REMARK                         _______ _______ _______ _____ _____    ______ ____
ROOT
ATOM      1  C   UNL     1       1.153  -3.806  -4.926  0.00  0.00    +0.127 A 
ATOM      2  C   UNL     1      -0.069  -3.170  -4.760  0.00  0.00    +0.046 A 
ATOM      3  C   UNL     1      -0.798  -2.781  -5.865  0.00  0.00    +0.011 A 
ATOM      4  C   UNL     1      -0.318  -3.023  -7.142  0.00  0.00    -0.005 A 
ATOM      5  C   UNL     1       0.899  -3.660  -7.313  0.00  0.00    +0.127 A 
ATOM      6  C   UNL     1       1.638  -4.045  -6.200  0.00  0.00    +0.091 A 
ATOM      7  O   UNL     1       1.400  -3.926  -8.548  0.00  0.00    -0.491 OA
ATOM      8  C   UNL     1       0.850  -3.219  -9.659  0.00  0.00    +0.237 C 
ATOM      9  C   UNL     1      -0.680  -3.312  -9.583  0.00  0.00    +0.061 C 
ATOM     10  C   UNL     1      -1.144  -2.578  -8.323  0.00  0.00    +0.050 C 
ENDROOT
BRANCH   9  11
ATOM     11  C   UNL     1      -1.289  -2.667 -10.801  0.00  0.00    -0.041 A 
ATOM     12  C   UNL     1      -1.047  -1.333 -11.070  0.00  0.00    +0.007 A 
ATOM     13  C   UNL     1      -1.605  -0.740 -12.186  0.00  0.00    +0.045 A 
ATOM     14  C   UNL     1      -2.408  -1.484 -13.037  0.00  0.00    +0.117 A 
ATOM     15  C   UNL     1      -2.650  -2.823 -12.766  0.00  0.00    +0.045 A 
ATOM     16  C   UNL     1      -2.085  -3.413 -11.651  0.00  0.00    +0.007 A 
BRANCH  14  17
ATOM     17  O   UNL     1      -2.959  -0.903 -14.136  0.00  0.00    -0.507 OA
ATOM     18  H   UNL     1      -2.408  -0.958 -14.928  0.00  0.00    +0.292 HD
ENDBRANCH  14  17
ENDBRANCH   9  11
BRANCH   1  19
ATOM     19  O   UNL     1       1.875  -4.188  -3.840  0.00  0.00    -0.461 OA
BRANCH  19  24
ATOM     20  C   UNL     1       0.657  -2.104  -1.120  0.00  0.00    +0.261 C 
ATOM     21  C   UNL     1       1.518  -2.640   0.027  0.00  0.00    +0.185 C 
ATOM     22  C   UNL     1       1.623  -4.163  -0.093  0.00  0.00    +0.180 C 
ATOM     23  C   UNL     1       2.199  -4.518  -1.467  0.00  0.00    +0.214 C 
ATOM     24  C   UNL     1       1.313  -3.909  -2.556  0.00  0.00    +0.340 C 
ATOM     25  O   UNL     1       1.232  -2.495  -2.368  0.00  0.00    -0.322 OA
BRANCH  20  26
ATOM     26  C   UNL     1       0.598  -0.600  -1.043  0.00  0.00    +0.339 C 
ATOM     27  O   UNL     1       1.088   0.070  -1.921  0.00  0.00    -0.248 OA
BRANCH  26  29
ATOM     28  C   UNL     1      -0.017   1.425   0.010  0.00  0.00    +0.280 C 
ATOM     29  O   UNL     1       0.002  -0.004   0.002  0.00  0.00    -0.466 OA
ENDBRANCH  26  29
ENDBRANCH  20  26
BRANCH  23  30
ATOM     30  O   UNL     1       2.235  -5.939  -1.617  0.00  0.00    -0.383 OA
ATOM     31  H   UNL     1       2.590  -6.235  -2.467  0.00  0.00    +0.210 HD
ENDBRANCH  23  30
BRANCH  22  32
ATOM     32  O   UNL     1       2.482  -4.666   0.932  0.00  0.00    -0.386 OA
ATOM     33  H   UNL     1       2.595  -5.626   0.916  0.00  0.00    +0.210 HD
ENDBRANCH  22  32
BRANCH  21  34
ATOM     34  O   UNL     1       0.915  -2.299   1.277  0.00  0.00    -0.386 OA
ATOM     35  H   UNL     1       0.813  -1.347   1.418  0.00  0.00    +0.210 HD
ENDBRANCH  21  34
ENDBRANCH  19  24
ENDBRANCH   1  19
TORSDOF 9
