REMARK  Name = ZINC67269102
REMARK  5 active torsions:
REMARK  status: ('A' for Active; 'I' for Inactive)
REMARK    1  A    between atoms: C_4  and  N_7
REMARK    2  A    between atoms: C_8  and  C_10
REMARK    3  A    between atoms: C_10  and  C_11
REMARK    4  A    between atoms: C_11  and  N_12
REMARK    5  A    between atoms: C_13  and  C_15
REMARK                            x       y       z     vdW  Elec       q    Type
REMARK                         _______ _______ _______ _____ _____    ______ ____
ROOT
ATOM      1  N   UNL     1       5.387  -4.009  -4.676  0.00  0.00    -0.315 N 
ATOM      2  C   UNL     1       5.973  -5.223  -4.686  0.00  0.00    +0.216 C 
ATOM      3  O   UNL     1       5.931  -5.925  -3.697  0.00  0.00    -0.276 OA
ATOM      4  H   UNL     1       5.420  -3.448  -5.466  0.00  0.00    +0.149 HD
ENDROOT
BRANCH   2   5
ATOM      5  C   UNL     1       6.678  -5.709  -5.926  0.00  0.00    +0.075 C 
ATOM      6  C   UNL     1       5.684  -5.767  -7.088  0.00  0.00    +0.015 C 
ATOM      7  C   UNL     1       6.405  -6.249  -8.350  0.00  0.00    +0.036 C 
ATOM      8  C   UNL     1       7.003  -7.630  -8.101  0.00  0.00    +0.112 C 
ATOM      9  C   UNL     1       7.977  -7.593  -6.929  0.00  0.00    +0.036 C 
ATOM     10  C   UNL     1       7.250  -7.106  -5.673  0.00  0.00    +0.015 C 
ATOM     11  C   UNL     1       5.909  -8.641  -7.848  0.00  0.00    +0.244 C 
ATOM     12  O   UNL     1       5.098  -8.636  -6.946  0.00  0.00    -0.273 OA
ATOM     13  N   UNL     1       6.024  -9.552  -8.837  0.00  0.00    -0.238 N 
ATOM     14  C   UNL     1       7.030  -9.253  -9.667  0.00  0.00    +0.307 C 
ATOM     15  O   UNL     1       7.331  -9.925 -10.635  0.00  0.00    -0.252 OA
ATOM     16  N   UNL     1       7.673  -8.125  -9.311  0.00  0.00    -0.285 N 
ATOM     17  H   UNL     1       5.449 -10.327  -8.934  0.00  0.00    +0.159 HD
ATOM     18  H   UNL     1       8.429  -7.719  -9.764  0.00  0.00    +0.151 HD
ENDBRANCH   2   5
BRANCH   1  19
ATOM     19  C   UNL     1       4.702  -3.537  -3.470  0.00  0.00    +0.113 C 
BRANCH  19  20
ATOM     20  C   UNL     1       4.130  -2.140  -3.723  0.00  0.00    +0.114 C 
BRANCH  20  22
ATOM     21  N   UNL     1       2.839  -0.440  -2.473  0.00  0.00    -0.312 N 
ATOM     22  C   UNL     1       3.424  -1.655  -2.483  0.00  0.00    +0.215 C 
ATOM     23  O   UNL     1       3.383  -2.356  -1.495  0.00  0.00    -0.276 OA
ATOM     24  H   UNL     1       2.872   0.121  -3.264  0.00  0.00    +0.149 HD
BRANCH  21  28
ATOM     25  C   UNL     1      -0.019   1.526   0.010  0.00  0.00    +0.000 C 
ATOM     26  C   UNL     1       1.417   2.055  -0.000  0.00  0.00    +0.002 C 
ATOM     27  C   UNL     1       2.133   1.562  -1.259  0.00  0.00    +0.022 C 
ATOM     28  C   UNL     1       2.154   0.032  -1.268  0.00  0.00    +0.073 C 
ATOM     29  C   UNL     1       0.718  -0.497  -1.257  0.00  0.00    +0.022 C 
ATOM     30  C   UNL     1       0.002  -0.004   0.002  0.00  0.00    +0.002 C 
ENDBRANCH  21  28
ENDBRANCH  20  22
ENDBRANCH  19  20
ENDBRANCH   1  19
TORSDOF 5
