REMARK  Name = ZINC15957052
REMARK  9 active torsions:
REMARK  status: ('A' for Active; 'I' for Inactive)
REMARK    1  A    between atoms: C_1  and  C_2
REMARK    2  A    between atoms: C_7  and  C_8
REMARK    3  A    between atoms: C_17  and  C_20
REMARK    4  A    between atoms: C_20  and  C_22
REMARK    5  A    between atoms: C_20  and  O_23
REMARK    6  A    between atoms: N_26  and  C_29
REMARK    7  A    between atoms: C_29  and  C_30
REMARK    8  A    between atoms: C_33  and  O_36
REMARK    9  A    between atoms: O_36  and  C_37
REMARK                            x       y       z     vdW  Elec       q    Type
REMARK                         _______ _______ _______ _____ _____    ______ ____
ROOT
ATOM      1  C   UNL     1      -0.018   1.503   0.010  0.00  0.00    +0.044 C 
ATOM      2  C   UNL     1       0.002  -0.004   0.002  0.00  0.00    -0.046 A 
ATOM      3  C   UNL     1       0.006  -0.686  -1.201  0.00  0.00    +0.004 A 
ATOM      4  C   UNL     1       0.025  -2.069  -1.209  0.00  0.00    +0.008 A 
ATOM      5  C   UNL     1       0.040  -2.765  -0.021  0.00  0.00    +0.004 A 
ATOM      6  C   UNL     1       0.036  -2.090   1.196  0.00  0.00    +0.042 A 
ATOM      7  C   UNL     1       0.023  -0.697   1.194  0.00  0.00    -0.026 A 
ATOM      8  C   UNL     1       0.026   0.056   2.500  0.00  0.00    +0.046 C 
ATOM      9  N   UNL     1       0.052  -3.001   2.254  0.00  0.00    -0.283 N 
ATOM     10  C   UNL     1       0.067  -4.278   1.824  0.00  0.00    +0.243 C 
ATOM     11  O   UNL     1       0.080  -5.274   2.515  0.00  0.00    -0.273 OA
ATOM     12  C   UNL     1       0.064  -4.228   0.321  0.00  0.00    +0.136 C 
ATOM     13  C   UNL     1      -1.149  -4.962  -0.263  0.00  0.00    +0.123 C 
ATOM     14  C   UNL     1      -0.605  -6.361  -0.664  0.00  0.00    +0.109 C 
ATOM     15  C   UNL     1       0.888  -6.331  -0.274  0.00  0.00    +0.096 C 
ATOM     16  N   UNL     1       1.252  -4.896  -0.242  0.00  0.00    -0.293 NA
ATOM     17  C   UNL     1      -1.354  -7.302   0.252  0.00  0.00    +0.228 C 
ATOM     18  O   UNL     1      -1.230  -8.508   0.271  0.00  0.00    -0.275 OA
ATOM     19  N   UNL     1      -2.173  -6.597   1.040  0.00  0.00    -0.237 N 
ATOM     20  C   UNL     1      -2.145  -5.260   0.835  0.00  0.00    +0.229 C 
ATOM     21  O   UNL     1      -2.803  -4.433   1.428  0.00  0.00    -0.275 OA
ATOM     22  H   UNL     1       0.053  -2.745   3.190  0.00  0.00    +0.155 HD
ATOM     23  H   UNL     1       1.447  -4.562  -1.174  0.00  0.00    +0.124 HD
ENDROOT
BRANCH  15  24
ATOM     24  C   UNL     1       1.724  -7.088  -1.308  0.00  0.00    +0.129 C 
ATOM     25  C   UNL     1       3.199  -7.046  -0.901  0.00  0.00    +0.039 C 
BRANCH  24  26
ATOM     26  O   UNL     1       1.286  -8.447  -1.371  0.00  0.00    -0.390 OA
ATOM     27  H   UNL     1       1.366  -8.925  -0.535  0.00  0.00    +0.210 HD
ENDBRANCH  24  26
ENDBRANCH  15  24
BRANCH  19  28
ATOM     28  C   UNL     1      -3.039  -7.221   2.043  0.00  0.00    +0.151 C 
BRANCH  28  29
ATOM     29  C   UNL     1      -2.303  -7.315   3.355  0.00  0.00    -0.029 A 
ATOM     30  C   UNL     1      -1.544  -8.434   3.642  0.00  0.00    +0.009 A 
ATOM     31  C   UNL     1      -0.868  -8.523   4.843  0.00  0.00    +0.046 A 
ATOM     32  C   UNL     1      -0.952  -7.487   5.763  0.00  0.00    +0.120 A 
ATOM     33  C   UNL     1      -1.714  -6.365   5.472  0.00  0.00    +0.046 A 
ATOM     34  C   UNL     1      -2.383  -6.279   4.267  0.00  0.00    +0.009 A 
BRANCH  32  35
ATOM     35  O   UNL     1      -0.288  -7.572   6.946  0.00  0.00    -0.495 OA
ATOM     36  C   UNL     1      -0.419  -6.468   7.844  0.00  0.00    +0.277 C 
ENDBRANCH  32  35
ENDBRANCH  28  29
ENDBRANCH  19  28
TORSDOF 5
