REMARK  Name = ZINC59412195
REMARK  12 active torsions:
REMARK  status: ('A' for Active; 'I' for Inactive)
REMARK    1  A    between atoms: C_1  and  C_2
REMARK    2  A    between atoms: C_2  and  C_3
REMARK    3  A    between atoms: C_2  and  C_4
REMARK    4  A    between atoms: C_2  and  C_5
REMARK    5  A    between atoms: C_10  and  C_15
REMARK    6  A    between atoms: N_17  and  C_18
REMARK    7  A    between atoms: C_18  and  C_19
REMARK    8  A    between atoms: C_24  and  O_25
REMARK    9  A    between atoms: O_25  and  C_26
REMARK   10  A    between atoms: C_26  and  C_27
REMARK   11  A    between atoms: N_29  and  C_30
REMARK   12  A    between atoms: C_30  and  C_31
REMARK                            x       y       z     vdW  Elec       q    Type
REMARK                         _______ _______ _______ _____ _____    ______ ____
ROOT
ATOM      1  C   UNL     1       7.601  -0.552  -5.555  0.00  0.00    +0.143 C 
ENDROOT
BRANCH   1   2
ATOM      2  C   UNL     1       8.699   0.245  -4.899  0.00  0.00    +0.011 A 
ATOM      3  C   UNL     1       8.973   1.529  -5.330  0.00  0.00    +0.009 A 
ATOM      4  C   UNL     1       9.980   2.261  -4.728  0.00  0.00    +0.001 A 
ATOM      5  C   UNL     1      10.715   1.710  -3.694  0.00  0.00    +0.004 A 
ATOM      6  C   UNL     1      10.444   0.428  -3.260  0.00  0.00    +0.046 A 
ATOM      7  C   UNL     1       9.431  -0.307  -3.858  0.00  0.00    +0.126 A 
BRANCH   7   8
ATOM      8  O   UNL     1       9.159  -1.567  -3.429  0.00  0.00    -0.482 OA
BRANCH   8   9
ATOM      9  C   UNL     1       9.953  -2.071  -2.353  0.00  0.00    +0.324 C 
BRANCH   9  10
ATOM     10  C   UNL     1       9.511  -3.472  -2.015  0.00  0.00    +0.251 C 
ATOM     11  O   UNL     1       8.605  -3.988  -2.636  0.00  0.00    -0.272 OA
ATOM     12  N   UNL     1      10.122  -4.152  -1.025  0.00  0.00    -0.310 N 
ATOM     13  H   UNL     1      10.847  -3.739  -0.529  0.00  0.00    +0.149 HD
BRANCH  12  14
ATOM     14  C   UNL     1       9.693  -5.513  -0.697  0.00  0.00    +0.135 C 
BRANCH  14  15
ATOM     15  C   UNL     1      10.543  -6.053   0.455  0.00  0.00    +0.135 C 
ATOM     16  C   UNL     1      10.128  -7.507   0.794  0.00  0.00    +0.035 C 
ATOM     17  C   UNL     1      11.434  -8.043   1.442  0.00  0.00    +0.031 C 
ATOM     18  C   UNL     1      12.525  -7.301   0.640  0.00  0.00    +0.160 C 
ATOM     19  O   UNL     1      11.921  -6.137   0.060  0.00  0.00    -0.375 OA
ENDBRANCH  14  15
ENDBRANCH  12  14
ENDBRANCH   9  10
ENDBRANCH   8   9
ENDBRANCH   7   8
ENDBRANCH   1   2
BRANCH   1  22
ATOM     20  C   UNL     1       5.278  -1.142  -5.117  0.00  0.00    +0.261 C 
ATOM     21  O   UNL     1       5.272  -1.770  -6.159  0.00  0.00    -0.269 OA
ATOM     22  N   UNL     1       6.395  -0.497  -4.726  0.00  0.00    -0.306 N 
ATOM     23  H   UNL     1       6.400   0.004  -3.895  0.00  0.00    +0.149 HD
BRANCH  20  29
ATOM     24  C   UNL     1       0.707  -0.490  -1.238  0.00  0.00    -0.040 A 
ATOM     25  C   UNL     1       0.026  -1.288  -2.149  0.00  0.00    +0.005 A 
ATOM     26  C   UNL     1       0.646  -1.739  -3.277  0.00  0.00    +0.010 A 
ATOM     27  C   UNL     1       1.982  -1.395  -3.523  0.00  0.00    +0.000 A 
ATOM     28  C   UNL     1       2.886  -1.693  -4.572  0.00  0.00    +0.040 A 
ATOM     29  C   UNL     1       4.067  -1.087  -4.285  0.00  0.00    +0.103 A 
ATOM     30  N   UNL     1       3.949  -0.410  -3.087  0.00  0.00    -0.351 N 
ATOM     31  H   UNL     1       4.650   0.106  -2.658  0.00  0.00    +0.166 HD
ATOM     32  C   UNL     1       2.675  -0.586  -2.602  0.00  0.00    +0.047 A 
ATOM     33  C   UNL     1       2.019  -0.134  -1.460  0.00  0.00    +0.030 A 
BRANCH  24  35
ATOM     34  C   UNL     1      -0.019   1.526   0.010  0.00  0.00    +0.015 C 
ATOM     35  C   UNL     1       0.002  -0.004   0.002  0.00  0.00    -0.013 C 
ATOM     36  C   UNL     1       0.742  -0.511   1.242  0.00  0.00    +0.015 C 
ATOM     37  C   UNL     1      -1.433  -0.534   0.013  0.00  0.00    +0.015 C 
ENDBRANCH  24  35
ENDBRANCH  20  29
ENDBRANCH   1  22
TORSDOF 9
