REMARK  Name = ZINC09356326
REMARK  7 active torsions:
REMARK  status: ('A' for Active; 'I' for Inactive)
REMARK    1  A    between atoms: C_1  and  C_2
REMARK    2  A    between atoms: C_2  and  C_3
REMARK    3  A    between atoms: C_3  and  N_4
REMARK    4  A    between atoms: C_5  and  C_6
REMARK    5  A    between atoms: C_5  and  C_7
REMARK    6  A    between atoms: C_8  and  C_22
REMARK    7  A    between atoms: C_11  and  O_12
REMARK                            x       y       z     vdW  Elec       q    Type
REMARK                         _______ _______ _______ _____ _____    ______ ____
ROOT
ATOM      1  C   UNL     1       1.839  -4.040   0.701  0.00  0.00    +0.085 A 
ATOM      2  C   UNL     1       2.071  -5.156   1.624  0.00  0.00    +0.106 A 
ATOM      3  N   UNL     1       1.945  -6.266   0.933  0.00  0.00    -0.161 NA
ATOM      4  N   UNL     1       1.643  -5.953  -0.395  0.00  0.00    -0.175 N 
ATOM      5  C   UNL     1       1.572  -4.606  -0.538  0.00  0.00    +0.227 A 
ATOM      6  C   UNL     1       1.441  -6.879  -1.411  0.00  0.00    +0.198 A 
ATOM      7  N   UNL     1       1.162  -6.666  -2.675  0.00  0.00    -0.221 NA
ATOM      8  C   UNL     1       0.990  -7.671  -3.560  0.00  0.00    +0.081 A 
ATOM      9  C   UNL     1       0.688  -7.578  -4.939  0.00  0.00    +0.029 A 
ATOM     10  C   UNL     1       0.545  -8.707  -5.702  0.00  0.00    +0.002 A 
ATOM     11  C   UNL     1       0.690  -9.975  -5.155  0.00  0.00    +0.001 A 
ATOM     12  C   UNL     1       0.985 -10.103  -3.811  0.00  0.00    +0.017 A 
ATOM     13  C   UNL     1       1.131  -8.977  -3.039  0.00  0.00    +0.041 A 
ATOM     14  S   UNL     1       1.503  -8.664  -1.330  0.00  0.00    -0.048 S 
ENDROOT
BRANCH   2  15
ATOM     15  C   UNL     1       2.388  -5.051   3.068  0.00  0.00    +0.003 A 
ATOM     16  C   UNL     1       3.170  -3.997   3.538  0.00  0.00    +0.010 A 
ATOM     17  C   UNL     1       3.462  -3.905   4.883  0.00  0.00    +0.001 A 
ATOM     18  C   UNL     1       2.981  -4.855   5.765  0.00  0.00    +0.000 A 
ATOM     19  C   UNL     1       2.205  -5.904   5.305  0.00  0.00    +0.001 A 
ATOM     20  C   UNL     1       1.901  -6.003   3.962  0.00  0.00    +0.010 A 
ENDBRANCH   2  15
BRANCH   1  22
ATOM     21  N   UNL     1       0.796  -2.004   1.416  0.00  0.00    -0.288 NA
ATOM     22  C   UNL     1       1.875  -2.608   1.024  0.00  0.00    +0.047 C 
ATOM     23  C   UNL     1       3.166  -1.841   0.902  0.00  0.00    +0.066 C 
BRANCH  21  24
ATOM     24  C   UNL     1       0.859  -0.613   1.870  0.00  0.00    +0.141 C 
BRANCH  24  26
ATOM     25  C   UNL     1       0.137   1.728   1.379  0.00  0.00    +0.005 C 
ATOM     26  C   UNL     1       0.071   0.275   0.905  0.00  0.00    +0.020 C 
ENDBRANCH  24  26
ENDBRANCH  21  24
ENDBRANCH   1  22
BRANCH   5  27
ATOM     27  O   UNL     1       1.295  -3.936  -1.681  0.00  0.00    -0.492 OA
ATOM     28  H   UNL     1       2.075  -3.719  -2.209  0.00  0.00    +0.294 HD
ENDBRANCH   5  27
TORSDOF 5
