REMARK  Name = ZINC34906251
REMARK  9 active torsions:
REMARK  status: ('A' for Active; 'I' for Inactive)
REMARK    1  A    between atoms: C_1  and  C_2
REMARK    2  A    between atoms: C_4  and  C_40
REMARK    3  A    between atoms: C_6  and  O_8
REMARK    4  A    between atoms: O_8  and  C_9
REMARK    5  A    between atoms: C_9  and  C_10
REMARK    6  A    between atoms: C_12  and  C_15
REMARK    7  A    between atoms: N_17  and  C_18
REMARK    8  A    between atoms: C_24  and  N_26
REMARK    9  A    between atoms: N_29  and  C_30
REMARK                            x       y       z     vdW  Elec       q    Type
REMARK                         _______ _______ _______ _____ _____    ______ ____
ROOT
ATOM      1  C   UNL     1       4.382  -5.102   7.626  0.00  0.00    +0.093 C 
ATOM      2  C   UNL     1       4.666  -4.229   8.851  0.00  0.00    +0.024 C 
ATOM      3  C   UNL     1       5.821  -4.835   9.651  0.00  0.00    +0.002 C 
ATOM      4  C   UNL     1       7.071  -4.902   8.772  0.00  0.00    +0.002 C 
ATOM      5  C   UNL     1       6.787  -5.775   7.547  0.00  0.00    +0.024 C 
ATOM      6  C   UNL     1       5.633  -5.169   6.747  0.00  0.00    +0.095 C 
ENDROOT
BRANCH   6   7
ATOM      7  N   UNL     1       5.361  -6.004   5.574  0.00  0.00    -0.295 N 
ATOM      8  C   UNL     1       6.069  -5.827   4.441  0.00  0.00    +0.300 C 
ATOM      9  O   UNL     1       6.934  -4.973   4.393  0.00  0.00    -0.253 OA
ATOM     10  N   UNL     1       5.819  -6.595   3.363  0.00  0.00    -0.294 N 
ATOM     11  H   UNL     1       4.671  -6.685   5.613  0.00  0.00    +0.151 HD
ATOM     12  H   UNL     1       5.129  -7.276   3.402  0.00  0.00    +0.151 HD
BRANCH  10  13
ATOM     13  C   UNL     1       6.588  -6.402   2.131  0.00  0.00    +0.037 C 
ATOM     14  C   UNL     1       8.073  -6.637   2.416  0.00  0.00    +0.029 C 
ATOM     15  C   UNL     1       8.877  -6.435   1.130  0.00  0.00    -0.008 C 
ATOM     16  C   UNL     1       8.398  -7.427   0.068  0.00  0.00    +0.007 C 
ATOM     17  C   UNL     1       6.913  -7.192  -0.216  0.00  0.00    -0.008 C 
ATOM     18  C   UNL     1       6.109  -7.394   1.070  0.00  0.00    +0.029 C 
ATOM     19  C   UNL     1       6.712  -5.764  -0.725  0.00  0.00    +0.007 C 
ATOM     20  C   UNL     1       7.191  -4.772   0.336  0.00  0.00    -0.008 C 
ATOM     21  C   UNL     1       8.675  -5.007   0.621  0.00  0.00    +0.007 C 
ATOM     22  C   UNL     1       6.386  -4.973   1.622  0.00  0.00    +0.029 C 
ENDBRANCH  10  13
ENDBRANCH   6   7
BRANCH   1  25
ATOM     23  C   UNL     1       2.002  -4.804   7.195  0.00  0.00    +0.263 C 
ATOM     24  O   UNL     1       1.770  -5.541   8.135  0.00  0.00    -0.269 OA
ATOM     25  N   UNL     1       3.277  -4.522   6.859  0.00  0.00    -0.305 N 
ATOM     26  H   UNL     1       3.462  -3.935   6.110  0.00  0.00    +0.149 HD
BRANCH  23  29
ATOM     27  C   UNL     1       0.064  -2.932   4.751  0.00  0.00    +0.116 A 
ATOM     28  N   UNL     1       1.101  -3.408   5.385  0.00  0.00    -0.236 NA
ATOM     29  C   UNL     1       0.891  -4.221   6.425  0.00  0.00    +0.133 A 
ATOM     30  C   UNL     1      -0.418  -4.481   6.731  0.00  0.00    +0.080 A 
ATOM     31  S   UNL     1      -1.244  -3.586   5.574  0.00  0.00    -0.076 S 
BRANCH  27  32
ATOM     32  C   UNL     1       0.046  -2.005   3.563  0.00  0.00    +0.291 C 
BRANCH  32  33
ATOM     33  O   UNL     1       0.051  -2.775   2.359  0.00  0.00    -0.485 OA
BRANCH  33  39
ATOM     34  C   UNL     1      -0.018   1.503   0.010  0.00  0.00    +0.044 C 
ATOM     35  C   UNL     1       0.002  -0.004   0.002  0.00  0.00    -0.047 A 
ATOM     36  C   UNL     1       0.006  -0.688  -1.200  0.00  0.00    +0.007 A 
ATOM     37  C   UNL     1       0.025  -2.071  -1.210  0.00  0.00    -0.047 A 
ATOM     38  C   UNL     1       0.040  -2.772  -0.020  0.00  0.00    +0.049 A 
ATOM     39  C   UNL     1       0.036  -2.088   1.187  0.00  0.00    +0.122 A 
ATOM     40  C   UNL     1       0.023  -0.701   1.195  0.00  0.00    +0.049 A 
ATOM     41  C   UNL     1       0.029  -2.813  -2.522  0.00  0.00    +0.044 C 
ENDBRANCH  33  39
ENDBRANCH  32  33
ENDBRANCH  27  32
ENDBRANCH  23  29
ENDBRANCH   1  25
TORSDOF 7
