REMARK  Name = ZINC12531924
REMARK  8 active torsions:
REMARK  status: ('A' for Active; 'I' for Inactive)
REMARK    1  A    between atoms: C_3  and  N_18
REMARK    2  A    between atoms: C_4  and  N_15
REMARK    3  A    between atoms: C_6  and  S_7
REMARK    4  A    between atoms: S_7  and  N_10
REMARK    5  A    between atoms: N_18  and  N_19
REMARK    6  A    between atoms: C_20  and  C_22
REMARK    7  A    between atoms: C_22  and  N_23
REMARK    8  A    between atoms: C_24  and  C_26
REMARK                            x       y       z     vdW  Elec       q    Type
REMARK                         _______ _______ _______ _____ _____    ______ ____
ROOT
ATOM      1  N   UNL     1      -3.264   2.724   4.775  0.00  0.00    -0.262 N 
ATOM      2  H   UNL     1      -3.830   2.011   5.112  0.00  0.00    +0.170 HD
ENDROOT
BRANCH   1   5
ATOM      3  C   UNL     1      -0.745   3.252   2.152  0.00  0.00    +0.030 A 
ATOM      4  C   UNL     1      -1.554   3.478   3.249  0.00  0.00    +0.028 A 
ATOM      5  C   UNL     1      -2.449   2.500   3.663  0.00  0.00    +0.075 A 
ATOM      6  C   UNL     1      -2.531   1.300   2.969  0.00  0.00    +0.150 A 
ATOM      7  C   UNL     1      -1.723   1.082   1.871  0.00  0.00    +0.063 A 
ATOM      8  C   UNL     1      -0.833   2.058   1.461  0.00  0.00    +0.108 A 
BRANCH   8   9
ATOM      9  S   UNL     1       0.196   1.777   0.058  0.00  0.00    +0.061 S 
ATOM     10  O   UNL     1       0.314   0.367  -0.082  0.00  0.00    -0.153 OA
ATOM     11  O   UNL     1       1.326   2.625   0.207  0.00  0.00    -0.153 OA
BRANCH   9  12
ATOM     12  N   UNL     1      -0.630   2.317  -1.271  0.00  0.00    -0.177 NA
ATOM     13  C   UNL     1      -1.538   1.513  -2.102  0.00  0.00    +0.109 C 
ATOM     14  C   UNL     1      -2.053   2.426  -3.234  0.00  0.00    +0.018 C 
ATOM     15  C   UNL     1      -0.964   3.528  -3.312  0.00  0.00    +0.018 C 
ATOM     16  C   UNL     1      -0.571   3.684  -1.822  0.00  0.00    +0.109 C 
ENDBRANCH   9  12
ENDBRANCH   8   9
BRANCH   6  17
ATOM     17  N   UNL     1      -3.483   0.254   3.407  0.00  0.00    +0.058 N 
ATOM     18  O   UNL     1      -3.630  -0.754   2.740  0.00  0.00    -0.126 OA
ATOM     19  O   UNL     1      -4.120   0.403   4.435  0.00  0.00    -0.126 OA
ENDBRANCH   6  17
ENDBRANCH   1   5
BRANCH   1  20
ATOM     20  N   UNL     1      -3.266   3.976   5.402  0.00  0.00    -0.235 N 
ATOM     21  C   UNL     1      -4.053   4.192   6.475  0.00  0.00    +0.246 C 
ATOM     22  O   UNL     1      -4.760   3.301   6.897  0.00  0.00    -0.273 OA
ATOM     23  H   UNL     1      -2.701   4.689   5.065  0.00  0.00    +0.173 HD
BRANCH  21  24
ATOM     24  C   UNL     1      -4.055   5.539   7.150  0.00  0.00    +0.201 C 
BRANCH  24  25
ATOM     25  N   UNL     1      -4.986   5.518   8.281  0.00  0.00    -0.306 N 
ATOM     26  C   UNL     1      -5.153   6.621   9.037  0.00  0.00    +0.220 C 
ATOM     27  O   UNL     1      -4.533   7.631   8.781  0.00  0.00    -0.275 OA
ATOM     28  H   UNL     1      -5.482   4.710   8.485  0.00  0.00    +0.149 HD
BRANCH  26  29
ATOM     29  C   UNL     1      -6.111   6.599  10.200  0.00  0.00    +0.048 C 
ATOM     30  C   UNL     1      -7.519   6.279   9.695  0.00  0.00    +0.019 C 
ATOM     31  C   UNL     1      -8.492   6.257  10.876  0.00  0.00    -0.009 C 
ATOM     32  C   UNL     1      -8.493   7.625  11.562  0.00  0.00    +0.007 C 
ATOM     33  C   UNL     1      -7.085   7.944  12.066  0.00  0.00    -0.009 C 
ATOM     34  C   UNL     1      -6.112   7.966  10.885  0.00  0.00    +0.019 C 
ATOM     35  C   UNL     1      -6.647   6.873  13.067  0.00  0.00    +0.007 C 
ATOM     36  C   UNL     1      -6.645   5.505  12.382  0.00  0.00    -0.009 C 
ATOM     37  C   UNL     1      -8.054   5.186  11.877  0.00  0.00    +0.007 C 
ATOM     38  C   UNL     1      -5.673   5.527  11.201  0.00  0.00    +0.019 C 
ENDBRANCH  26  29
ENDBRANCH  24  25
ENDBRANCH  21  24
ENDBRANCH   1  20
TORSDOF 8
