REMARK  Name = ZINC40674209
REMARK  7 active torsions:
REMARK  status: ('A' for Active; 'I' for Inactive)
REMARK    1  A    between atoms: C_1  and  C_2
REMARK    2  A    between atoms: C_2  and  C_4
REMARK    3  A    between atoms: C_2  and  N_14
REMARK    4  A    between atoms: N_14  and  C_15
REMARK    5  A    between atoms: C_15  and  C_16
REMARK    6  A    between atoms: C_15  and  C_17
REMARK    7  A    between atoms: C_15  and  C_18
REMARK                            x       y       z     vdW  Elec       q    Type
REMARK                         _______ _______ _______ _____ _____    ______ ____
ROOT
ATOM      1  C   UNL     1       0.144   1.637   0.324  0.00  0.00    -0.006 C 
ATOM      2  C   UNL     1       0.221   0.126   0.100  0.00  0.00    -0.006 C 
ENDROOT
BRANCH   2   3
ATOM      3  C   UNL     1       0.937  -0.154  -1.196  0.00  0.00    +0.092 A 
ATOM      4  C   UNL     1       0.336  -0.449  -2.357  0.00  0.00    +0.051 A 
ATOM      5  C   UNL     1       1.411  -0.641  -3.337  0.00  0.00    +0.021 A 
ATOM      6  C   UNL     1       1.447  -0.959  -4.694  0.00  0.00    +0.027 A 
ATOM      7  C   UNL     1       2.662  -1.067  -5.336  0.00  0.00    +0.019 A 
ATOM      8  C   UNL     1       3.843  -0.861  -4.637  0.00  0.00    +0.019 A 
ATOM      9  C   UNL     1       3.821  -0.546  -3.295  0.00  0.00    +0.048 A 
ATOM     10  C   UNL     1       2.607  -0.432  -2.630  0.00  0.00    +0.135 A 
ATOM     11  O   UNL     1       2.272  -0.139  -1.357  0.00  0.00    -0.461 OA
ATOM     12 BR   UNL     1       2.720  -1.498  -7.176  0.00  0.00    -0.050 Br
ENDBRANCH   2   3
BRANCH   2  13
ATOM     13  N   UNL     1       0.955  -0.497   1.210  0.00  0.00    +0.394 N 
ATOM     14  H   UNL     1       1.928  -0.236   1.157  0.00  0.00    -0.083 HD
ATOM     15  H   UNL     1       0.569  -0.181   2.087  0.00  0.00    -0.083 HD
BRANCH  13  16
ATOM     16  C   UNL     1       0.834  -1.958   1.118  0.00  0.00    +0.005 C 
ATOM     17  C   UNL     1       1.550  -2.451  -0.141  0.00  0.00    -0.001 C 
ATOM     18  C   UNL     1       1.470  -2.601   2.352  0.00  0.00    -0.001 C 
BRANCH  16  19
ATOM     19  C   UNL     1      -0.623  -2.338   1.049  0.00  0.00    +0.199 C 
ATOM     20  O   UNL     1      -0.971  -3.285   0.377  0.00  0.00    -0.278 OA
ATOM     21  N   UNL     1      -1.539  -1.624   1.733  0.00  0.00    -0.330 N 
ATOM     22  H   UNL     1      -1.260  -0.866   2.271  0.00  0.00    +0.145 HD
ATOM     23  H   UNL     1      -2.476  -1.869   1.689  0.00  0.00    +0.145 HD
ENDBRANCH  16  19
ENDBRANCH  13  16
ENDBRANCH   2  13
TORSDOF 4
