REMARK  Name = ZINC16578337
REMARK  9 active torsions:
REMARK  status: ('A' for Active; 'I' for Inactive)
REMARK    1  A    between atoms: C_1  and  C_2
REMARK    2  A    between atoms: C_5  and  S_9
REMARK    3  A    between atoms: C_6  and  C_8
REMARK    4  A    between atoms: S_9  and  N_12
REMARK    5  A    between atoms: N_12  and  C_13
REMARK    6  A    between atoms: C_15  and  C_20
REMARK    7  A    between atoms: C_15  and  C_21
REMARK    8  A    between atoms: C_16  and  C_18
REMARK    9  A    between atoms: C_16  and  C_19
REMARK                            x       y       z     vdW  Elec       q    Type
REMARK                         _______ _______ _______ _____ _____    ______ ____
ROOT
ATOM      1  N   UNL     1       0.554   3.114  -3.705  0.00  0.00    -0.187 NA
ATOM      2  H   UNL     1       0.902   2.362  -4.208  0.00  0.00    +0.148 HD
ENDROOT
BRANCH   1   3
ATOM      3  C   UNL     1      -0.000   2.905  -2.361  0.00  0.00    +0.074 C 
ATOM      4  C   UNL     1       0.810   1.825  -1.645  0.00  0.00    +0.007 C 
ATOM      5  C   UNL     1       0.241   1.572  -0.251  0.00  0.00    -0.072 C 
ATOM      6  C   UNL     1      -2.043   2.180  -1.098  0.00  0.00    -0.072 C 
ATOM      7  C   UNL     1      -1.447   2.428  -2.482  0.00  0.00    +0.007 C 
ATOM      8  C   UNL     1      -3.381   1.433  -1.295  0.00  0.00    -0.010 C 
ATOM      9  C   UNL     1      -2.367   3.523  -0.432  0.00  0.00    -0.010 C 
ATOM     10  C   UNL     1       0.636   2.724   0.680  0.00  0.00    -0.010 C 
ATOM     11  C   UNL     1       0.909   0.292   0.298  0.00  0.00    -0.010 C 
ATOM     12  N   UNL     1      -1.223   1.315  -0.209  0.00  0.00    +0.386 N 
ATOM     13  H   UNL     1      -1.543   1.457   0.756  0.00  0.00    -0.084 HD
ATOM     14  H   UNL     1      -1.382   0.338  -0.481  0.00  0.00    -0.084 HD
ENDBRANCH   1   3
BRANCH   1  15
ATOM     15  S   UNL     1       0.584   4.635  -4.361  0.00  0.00    +0.059 S 
ATOM     16  O   UNL     1       1.231   4.520  -5.621  0.00  0.00    -0.153 OA
ATOM     17  O   UNL     1      -0.728   5.163  -4.223  0.00  0.00    -0.153 OA
BRANCH  15  22
ATOM     18  C   UNL     1       4.177   8.010  -0.881  0.00  0.00    +0.044 C 
ATOM     19  C   UNL     1       3.279   7.167  -1.750  0.00  0.00    -0.050 A 
ATOM     20  C   UNL     1       1.933   7.465  -1.849  0.00  0.00    +0.005 A 
ATOM     21  C   UNL     1       1.111   6.695  -2.649  0.00  0.00    +0.029 A 
ATOM     22  C   UNL     1       1.633   5.620  -3.345  0.00  0.00    +0.108 A 
ATOM     23  C   UNL     1       2.979   5.322  -3.247  0.00  0.00    -0.024 A 
ATOM     24  C   UNL     1       3.802   6.095  -2.449  0.00  0.00    +0.008 A 
ATOM     25  C   UNL     1       3.550   4.154  -4.009  0.00  0.00    +0.046 C 
ENDBRANCH  15  22
ENDBRANCH   1  15
TORSDOF 3
