REMARK  Name = ZINC37128310
REMARK  6 active torsions:
REMARK  status: ('A' for Active; 'I' for Inactive)
REMARK    1  A    between atoms: C_1  and  C_2
REMARK    2  A    between atoms: C_5  and  N_12
REMARK    3  A    between atoms: C_8  and  C_10
REMARK    4  A    between atoms: C_8  and  C_11
REMARK    5  A    between atoms: N_12  and  C_13
REMARK    6  A    between atoms: C_16  and  N_19
REMARK                            x       y       z     vdW  Elec       q    Type
REMARK                         _______ _______ _______ _____ _____    ______ ____
ROOT
ATOM      1  N   UNL     1      -0.447  -1.862  -1.306  0.00  0.00    -0.341 N 
ATOM      2  H   UNL     1       0.330  -1.387  -1.639  0.00  0.00    +0.146 HD
ENDROOT
BRANCH   1   6
ATOM      3  C   UNL     1       1.285   1.477   0.771  0.00  0.00    +0.007 C 
ATOM      4  C   UNL     1       0.832   0.051   0.453  0.00  0.00    -0.012 C 
ATOM      5  C   UNL     1      -0.679   0.037   0.218  0.00  0.00    +0.025 C 
ATOM      6  C   UNL     1      -1.133  -1.390  -0.100  0.00  0.00    +0.071 C 
ATOM      7  C   UNL     1      -0.790  -2.308   1.075  0.00  0.00    +0.028 C 
ATOM      8  C   UNL     1       0.722  -2.293   1.309  0.00  0.00    -0.033 C 
ATOM      9  C   UNL     1       1.175  -0.867   1.627  0.00  0.00    +0.009 C 
ATOM     10  C   UNL     1       1.065  -3.212   2.484  0.00  0.00    +0.011 C 
ATOM     11  C   UNL     1       1.438  -2.787   0.050  0.00  0.00    +0.011 C 
ENDBRANCH   1   6
BRANCH   1  12
ATOM     12  C   UNL     1      -0.912  -2.997  -1.975  0.00  0.00    +0.027 A 
ATOM     13  C   UNL     1      -2.029  -3.675  -1.500  0.00  0.00    +0.025 A 
ATOM     14  C   UNL     1      -2.488  -4.795  -2.162  0.00  0.00    +0.031 A 
ATOM     15  C   UNL     1      -1.835  -5.246  -3.301  0.00  0.00    +0.086 A 
ATOM     16  C   UNL     1      -0.719  -4.570  -3.775  0.00  0.00    +0.031 A 
ATOM     17  C   UNL     1      -0.262  -3.445  -3.118  0.00  0.00    +0.025 A 
BRANCH  15  18
ATOM     18  N   UNL     1      -2.301  -6.386  -3.972  0.00  0.00    -0.150 N 
ATOM     19  N   UNL     1      -3.326  -7.076  -3.615  0.00  0.00    -0.156 NA
ATOM     20  C   UNL     1      -3.481  -8.070  -4.460  0.00  0.00    +0.156 A 
ATOM     21  C   UNL     1      -2.450  -7.943  -5.393  0.00  0.00    +0.156 A 
ATOM     22  N   UNL     1      -1.766  -6.880  -5.032  0.00  0.00    -0.156 NA
ENDBRANCH  15  18
ENDBRANCH   1  12
TORSDOF 3
