REMARK  Name = ZINC57435554
REMARK  3 active torsions:
REMARK  status: ('A' for Active; 'I' for Inactive)
REMARK    1  A    between atoms: C_4  and  N_24
REMARK    2  A    between atoms: C_5  and  C_7
REMARK    3  A    between atoms: C_7  and  N_8
REMARK                            x       y       z     vdW  Elec       q    Type
REMARK                         _______ _______ _______ _____ _____    ______ ____
ROOT
ATOM      1  N   UNL     1       1.422  -1.856   1.885  0.00  0.00    -0.219 N 
ATOM      2  C   UNL     1       2.598  -1.786   2.541  0.00  0.00    +0.252 C 
ATOM      3  O   UNL     1       3.698  -1.611   2.061  0.00  0.00    -0.272 OA
ATOM      4  C   UNL     1       2.257  -1.971   4.001  0.00  0.00    +0.144 C 
ATOM      5  C   UNL     1       2.656  -0.735   4.802  0.00  0.00    +0.081 C 
ATOM      6  C   UNL     1       4.181  -0.745   4.974  0.00  0.00    +0.232 C 
ATOM      7  O   UNL     1       4.543  -1.890   5.746  0.00  0.00    -0.492 OA
ATOM      8  C   UNL     1       4.035  -3.096   5.380  0.00  0.00    +0.126 A 
ATOM      9  C   UNL     1       2.934  -3.198   4.546  0.00  0.00    +0.027 A 
ATOM     10  C   UNL     1       2.443  -4.447   4.204  0.00  0.00    +0.010 A 
ATOM     11  C   UNL     1       3.050  -5.590   4.687  0.00  0.00    +0.001 A 
ATOM     12  C   UNL     1       4.152  -5.491   5.515  0.00  0.00    +0.004 A 
ATOM     13  C   UNL     1       4.645  -4.250   5.861  0.00  0.00    +0.046 A 
ATOM     14  N   UNL     1       0.799  -2.141   4.009  0.00  0.00    -0.281 N 
ATOM     15  C   UNL     1       0.399  -2.053   2.725  0.00  0.00    +0.310 C 
ATOM     16  O   UNL     1      -0.759  -2.146   2.370  0.00  0.00    -0.252 OA
ATOM     17  H   UNL     1       0.234  -2.285   4.785  0.00  0.00    +0.152 HD
ENDROOT
BRANCH   1  18
ATOM     18  C   UNL     1       1.280  -1.725   0.432  0.00  0.00    +0.155 C 
BRANCH  18  23
ATOM     19  C   UNL     1       1.204   2.039   0.710  0.00  0.00    +0.000 A 
ATOM     20  C   UNL     1       0.975   2.408  -0.603  0.00  0.00    +0.002 A 
ATOM     21  C   UNL     1       0.844   1.440  -1.580  0.00  0.00    +0.033 A 
ATOM     22  C   UNL     1       0.943   0.102  -1.245  0.00  0.00    +0.131 A 
ATOM     23  C   UNL     1       1.173  -0.267   0.067  0.00  0.00    +0.001 A 
ATOM     24  C   UNL     1       1.302   0.702   1.045  0.00  0.00    +0.007 A 
BRANCH  22  25
ATOM     25  N   UNL     1       0.802  -0.935  -2.291  0.00  0.00    +0.057 N 
ATOM     26  O   UNL     1       0.493  -0.621  -3.417  0.00  0.00    -0.126 OA
ATOM     27  O   UNL     1       0.996  -2.098  -2.021  0.00  0.00    -0.126 OA
ENDBRANCH  22  25
ENDBRANCH  18  23
ENDBRANCH   1  18
TORSDOF 3
