REMARK  Name = ZINC39951249
REMARK  8 active torsions:
REMARK  status: ('A' for Active; 'I' for Inactive)
REMARK    1  A    between atoms: C_1  and  C_2
REMARK    2  A    between atoms: C_2  and  C_3
REMARK    3  A    between atoms: C_3  and  C_4
REMARK    4  A    between atoms: C_9  and  C_25
REMARK    5  A    between atoms: C_10  and  O_12
REMARK    6  A    between atoms: C_16  and  C_18
REMARK    7  A    between atoms: C_21  and  N_24
REMARK    8  A    between atoms: C_25  and  C_26
REMARK                            x       y       z     vdW  Elec       q    Type
REMARK                         _______ _______ _______ _____ _____    ______ ____
ROOT
ATOM      1  C   UNL     1       0.923  -2.099  -1.270  0.00  0.00    -0.005 C 
ATOM      2  C   UNL     1      -0.486  -2.704  -1.355  0.00  0.00    +0.090 C 
ATOM      3  N   UNL     1      -0.363  -4.146  -1.305  0.00  0.00    -0.311 NA
ATOM      4  C   UNL     1      -0.123  -4.817  -2.554  0.00  0.00    +0.083 C 
ATOM      5  C   UNL     1       1.326  -5.077  -2.829  0.00  0.00    +0.023 C 
ATOM      6  C   UNL     1       2.264  -4.009  -2.335  0.00  0.00    -0.016 C 
ATOM      7  C   UNL     1       1.760  -2.596  -2.431  0.00  0.00    +0.125 C 
ATOM      8  C   UNL     1       2.713  -4.356  -0.913  0.00  0.00    -0.067 C 
ATOM      9  N   UNL     1       1.677  -3.987   0.047  0.00  0.00    +0.394 N 
ATOM     10  C   UNL     1       1.535  -2.527   0.068  0.00  0.00    -0.065 C 
ATOM     11  C   UNL     1       0.405  -4.652  -0.176  0.00  0.00    +0.033 C 
ATOM     12  H   UNL     1       2.000  -4.270   0.960  0.00  0.00    -0.079 HD
ENDROOT
BRANCH  11  13
ATOM     13  C   UNL     1       0.668  -6.119  -0.399  0.00  0.00    -0.047 A 
ATOM     14  C   UNL     1       1.858  -6.680   0.028  0.00  0.00    +0.005 A 
ATOM     15  C   UNL     1       2.102  -8.024  -0.175  0.00  0.00    +0.023 A 
ATOM     16  C   UNL     1       1.151  -8.813  -0.809  0.00  0.00    +0.025 A 
ATOM     17  C   UNL     1      -0.044  -8.247  -1.236  0.00  0.00    +0.023 A 
ATOM     18  C   UNL     1      -0.284  -6.903  -1.026  0.00  0.00    +0.005 A 
BRANCH  16  19
ATOM     19  N   UNL     1       1.395 -10.173  -1.016  0.00  0.00    -0.358 N 
ATOM     20  H   UNL     1       2.229 -10.567  -0.717  0.00  0.00    +0.142 HD
ATOM     21  H   UNL     1       0.729 -10.723  -1.459  0.00  0.00    +0.142 HD
ENDBRANCH  16  19
ENDBRANCH  11  13
BRANCH   7  22
ATOM     22  O   UNL     1       2.890  -1.731  -2.564  0.00  0.00    -0.391 OA
ATOM     23  H   UNL     1       3.443  -1.682  -1.772  0.00  0.00    +0.210 HD
ENDBRANCH   7  22
BRANCH   6  24
ATOM     24  C   UNL     1       3.520  -4.090  -3.205  0.00  0.00    +0.004 C 
ATOM     25  C   UNL     1       4.079  -5.513  -3.163  0.00  0.00    +0.004 C 
ENDBRANCH   6  24
BRANCH   1  26
ATOM     26  C   UNL     1       0.828  -0.573  -1.323  0.00  0.00    +0.008 C 
BRANCH  26  28
ATOM     27  C   UNL     1      -0.112   1.453  -0.204  0.00  0.00    +0.004 C 
ATOM     28  C   UNL     1      -0.017  -0.073  -0.150  0.00  0.00    -0.003 C 
ENDBRANCH  26  28
ENDBRANCH   1  26
TORSDOF 6
