REMARK  Name = ZINC39337096
REMARK  9 active torsions:
REMARK  status: ('A' for Active; 'I' for Inactive)
REMARK    1  A    between atoms: C_1  and  C_2
REMARK    2  A    between atoms: C_4  and  S_12
REMARK    3  A    between atoms: S_12  and  C_13
REMARK    4  A    between atoms: C_13  and  C_14
REMARK    5  A    between atoms: C_17  and  S_21
REMARK    6  A    between atoms: N_19  and  C_20
REMARK    7  A    between atoms: S_21  and  C_22
REMARK    8  A    between atoms: C_22  and  C_23
REMARK    9  A    between atoms: N_25  and  C_26
REMARK                            x       y       z     vdW  Elec       q    Type
REMARK                         _______ _______ _______ _____ _____    ______ ____
ROOT
ATOM      1  C   UNL     1      -4.216   3.210   1.999  0.00  0.00    +0.127 C 
ATOM      2  N   UNL     1      -4.903   2.172   2.309  0.00  0.00    -0.173 NA
ATOM      3  N   UNL     1      -5.726   2.410   3.417  0.00  0.00    -0.238 N 
ATOM      4  C   UNL     1      -5.481   3.807   3.815  0.00  0.00    +0.237 C 
ATOM      5  N   UNL     1      -4.474   4.276   2.848  0.00  0.00    -0.292 N 
ATOM      6  C   UNL     1      -3.866   5.607   2.791  0.00  0.00    +0.133 C 
ATOM      7  H   UNL     1      -6.335   1.782   3.837  0.00  0.00    +0.171 HD
ENDROOT
BRANCH   1   8
ATOM      8  C   UNL     1      -3.240   3.262   0.852  0.00  0.00    +0.147 C 
BRANCH   8   9
ATOM      9  S   UNL     1      -3.213   1.657   0.008  0.00  0.00    -0.115 S 
BRANCH   9  13
ATOM     10  C   UNL     1       0.014   1.145  -0.002  0.00  0.00    +0.064 C 
ATOM     11  C   UNL     1      -0.717   1.645  -1.221  0.00  0.00    +0.027 A 
ATOM     12  H   UNL     1       0.816   1.853  -2.627  0.00  0.00    +0.166 HD
ATOM     13  C   UNL     1      -2.041   1.878  -1.290  0.00  0.00    +0.036 A 
ATOM     14  C   UNL     1      -2.323   2.350  -2.650  0.00  0.00    +0.013 A 
ATOM     15  C   UNL     1      -3.484   2.745  -3.317  0.00  0.00    +0.011 A 
ATOM     16  C   UNL     1      -3.415   3.143  -4.622  0.00  0.00    +0.001 A 
ATOM     17  C   UNL     1      -2.199   3.159  -5.291  0.00  0.00    +0.002 A 
ATOM     18  C   UNL     1      -1.041   2.774  -4.653  0.00  0.00    +0.026 A 
ATOM     19  C   UNL     1      -1.088   2.365  -3.324  0.00  0.00    +0.048 A 
ATOM     20  N   UNL     1      -0.130   1.938  -2.432  0.00  0.00    -0.357 N 
ENDBRANCH   9  13
ENDBRANCH   8   9
ENDBRANCH   1   8
BRANCH   4  21
ATOM     21  S   UNL     1      -7.004   4.784   3.688  0.00  0.00    -0.109 S 
BRANCH  21  22
ATOM     22  C   UNL     1      -7.485   4.620   1.946  0.00  0.00    +0.168 C 
BRANCH  22  23
ATOM     23  C   UNL     1      -8.754   5.395   1.701  0.00  0.00    +0.227 C 
ATOM     24  O   UNL     1      -9.282   5.998   2.612  0.00  0.00    -0.275 OA
ATOM     25  N   UNL     1      -9.303   5.418   0.470  0.00  0.00    -0.285 N 
ATOM     26  H   UNL     1      -8.846   4.992  -0.272  0.00  0.00    +0.155 HD
BRANCH  25  27
ATOM     27  C   UNL     1     -10.531   6.056   0.263  0.00  0.00    +0.033 A 
ATOM     28  C   UNL     1     -11.438   5.539  -0.652  0.00  0.00    +0.025 A 
ATOM     29  C   UNL     1     -12.649   6.170  -0.855  0.00  0.00    +0.022 A 
ATOM     30  C   UNL     1     -12.960   7.317  -0.146  0.00  0.00    +0.041 A 
ATOM     31  C   UNL     1     -12.059   7.835   0.767  0.00  0.00    +0.022 A 
ATOM     32  C   UNL     1     -10.848   7.204   0.978  0.00  0.00    +0.025 A 
ATOM     33 CL   UNL     1     -14.484   8.109  -0.403  0.00  0.00    -0.084 Cl
ENDBRANCH  25  27
ENDBRANCH  22  23
ENDBRANCH  21  22
ENDBRANCH   4  21
TORSDOF 7
