REMARK  Name = ZINC49410974
REMARK  8 active torsions:
REMARK  status: ('A' for Active; 'I' for Inactive)
REMARK    1  A    between atoms: C_1  and  C_2
REMARK    2  A    between atoms: C_2  and  C_3
REMARK    3  A    between atoms: C_4  and  C_23
REMARK    4  A    between atoms: N_7  and  C_11
REMARK    5  A    between atoms: C_11  and  C_12
REMARK    6  A    between atoms: N_14  and  C_15
REMARK    7  A    between atoms: C_18  and  C_22
REMARK    8  A    between atoms: C_20  and  C_21
REMARK                            x       y       z     vdW  Elec       q    Type
REMARK                         _______ _______ _______ _____ _____    ______ ____
ROOT
ATOM      1  C   UNL     1      -1.413  -0.526  -0.006  0.00  0.00    +0.053 A 
ATOM      2  C   UNL     1      -2.023  -0.867  -1.178  0.00  0.00    +0.035 A 
ATOM      3  C   UNL     1      -3.343  -1.352  -1.141  0.00  0.00    +0.259 A 
ATOM      4  O   UNL     1      -3.918  -1.667  -2.170  0.00  0.00    -0.267 OA
ATOM      5  N   UNL     1      -3.960  -1.464   0.054  0.00  0.00    -0.272 N 
ATOM      6  C   UNL     1      -3.301  -1.109   1.190  0.00  0.00    +0.196 A 
ATOM      7  N   UNL     1      -2.062  -0.659   1.148  0.00  0.00    -0.221 NA
ATOM      8  N   UNL     1      -3.933  -1.225   2.399  0.00  0.00    -0.329 N 
ATOM      9  C   UNL     1      -1.296  -0.725  -2.491  0.00  0.00    +0.051 C 
ATOM     10  H   UNL     1      -4.843  -1.558   2.440  0.00  0.00    +0.145 HD
ATOM     11  H   UNL     1      -3.471  -0.974   3.214  0.00  0.00    +0.145 HD
ENDROOT
BRANCH   1  13
ATOM     12  C   UNL     1      -0.021   1.526  -0.022  0.00  0.00    +0.010 C 
ATOM     13  C   UNL     1       0.001  -0.004  -0.019  0.00  0.00    +0.052 C 
ENDBRANCH   1  13
BRANCH   5  14
ATOM     14  C   UNL     1      -5.334  -1.966   0.128  0.00  0.00    +0.224 C 
BRANCH  14  15
ATOM     15  C   UNL     1      -5.314  -3.465   0.283  0.00  0.00    +0.237 C 
ATOM     16  O   UNL     1      -4.256  -4.056   0.328  0.00  0.00    -0.274 OA
ATOM     17  N   UNL     1      -6.472  -4.148   0.373  0.00  0.00    -0.284 N 
ATOM     18  H   UNL     1      -7.315  -3.671   0.418  0.00  0.00    +0.155 HD
BRANCH  17  19
ATOM     19  C   UNL     1      -6.458  -5.547   0.400  0.00  0.00    +0.036 A 
ATOM     20  C   UNL     1      -5.395  -6.244  -0.161  0.00  0.00    +0.024 A 
ATOM     21  C   UNL     1      -5.385  -7.625  -0.132  0.00  0.00    +0.005 A 
ATOM     22  C   UNL     1      -6.431  -8.314   0.454  0.00  0.00    -0.050 A 
ATOM     23  C   UNL     1      -7.490  -7.623   1.013  0.00  0.00    +0.008 A 
ATOM     24  C   UNL     1      -7.504  -6.242   0.994  0.00  0.00    -0.029 A 
ATOM     25  C   UNL     1      -8.655  -5.490   1.610  0.00  0.00    +0.045 C 
ATOM     26  C   UNL     1      -6.416  -9.820   0.483  0.00  0.00    +0.044 C 
ENDBRANCH  17  19
ENDBRANCH  14  15
ENDBRANCH   5  14
TORSDOF 4
