REMARK  Name = ZINC64031541
REMARK  9 active torsions:
REMARK  status: ('A' for Active; 'I' for Inactive)
REMARK    1  A    between atoms: C_1  and  O_2
REMARK    2  A    between atoms: O_2  and  C_3
REMARK    3  A    between atoms: C_6  and  C_10
REMARK    4  A    between atoms: C_10  and  N_11
REMARK    5  A    between atoms: C_17  and  C_19
REMARK    6  A    between atoms: C_19  and  C_20
REMARK    7  A    between atoms: N_22  and  C_23
REMARK    8  A    between atoms: C_23  and  C_24
REMARK    9  A    between atoms: C_24  and  C_25
REMARK                            x       y       z     vdW  Elec       q    Type
REMARK                         _______ _______ _______ _____ _____    ______ ____
ROOT
ATOM      1  N   UNL     1       1.482  -2.987   5.350  0.00  0.00    +0.391 N 
ATOM      2  C   UNL     1       0.737  -4.127   4.791  0.00  0.00    -0.058 C 
ATOM      3  C   UNL     1      -0.374  -4.516   5.767  0.00  0.00    +0.085 C 
ATOM      4  N   UNL     1       0.178  -4.683   7.109  0.00  0.00    -0.318 N 
ATOM      5  C   UNL     1       1.371  -4.192   7.464  0.00  0.00    +0.200 C 
ATOM      6  O   UNL     1       1.750  -4.353   8.604  0.00  0.00    -0.278 OA
ATOM      7  C   UNL     1       2.259  -3.449   6.507  0.00  0.00    +0.028 C 
ATOM      8  H   UNL     1      -0.340  -5.169   7.769  0.00  0.00    +0.149 HD
ATOM      9  H   UNL     1       0.835  -2.270   5.642  0.00  0.00    -0.080 HD
ENDROOT
BRANCH   1  10
ATOM     10  C   UNL     1       2.391  -2.446   4.331  0.00  0.00    -0.039 C 
BRANCH  10  14
ATOM     11  C   UNL     1       0.107  -0.757   1.136  0.00  0.00    +0.123 A 
ATOM     12  C   UNL     1       0.555   0.049   2.173  0.00  0.00    +0.046 A 
ATOM     13  C   UNL     1       1.293  -0.499   3.204  0.00  0.00    +0.008 A 
ATOM     14  C   UNL     1       1.585  -1.851   3.205  0.00  0.00    -0.028 A 
ATOM     15  C   UNL     1       1.139  -2.658   2.171  0.00  0.00    +0.128 A 
ATOM     16  C   UNL     1       0.395  -2.113   1.140  0.00  0.00    +0.084 A 
ATOM     17  F   UNL     1       1.427  -3.978   2.174  0.00  0.00    -0.205 F 
BRANCH  11  19
ATOM     18  C   UNL     1      -0.878   1.186   0.183  0.00  0.00    +0.277 C 
ATOM     19  O   UNL     1      -0.619  -0.218   0.121  0.00  0.00    -0.495 OA
ENDBRANCH  11  19
ENDBRANCH  10  14
ENDBRANCH   1  10
BRANCH   7  20
ATOM     20  C   UNL     1       2.875  -2.242   7.218  0.00  0.00    +0.089 C 
BRANCH  20  21
ATOM     21  C   UNL     1       1.777  -1.378   7.783  0.00  0.00    +0.212 C 
ATOM     22  O   UNL     1       0.616  -1.648   7.557  0.00  0.00    -0.276 OA
ATOM     23  N   UNL     1       2.085  -0.305   8.538  0.00  0.00    -0.315 N 
ATOM     24  H   UNL     1       3.013  -0.090   8.719  0.00  0.00    +0.149 HD
BRANCH  23  25
ATOM     25  C   UNL     1       1.017   0.535   9.087  0.00  0.00    +0.108 C 
BRANCH  25  26
ATOM     26  C   UNL     1       1.633   1.675   9.900  0.00  0.00    +0.052 C 
BRANCH  26  27
ATOM     27  C   UNL     1       0.535   2.539  10.465  0.00  0.00    -0.040 C 
ATOM     28  C   UNL     1      -0.018   2.450  11.696  0.00  0.00    -0.001 A 
ATOM     29  C   UNL     1       0.227   1.556  12.834  0.00  0.00    +0.010 A 
ATOM     30  C   UNL     1      -0.504   1.713  13.961  0.00  0.00    +0.001 A 
ATOM     31  C   UNL     1      -1.487   2.707  14.069  0.00  0.00    +0.002 A 
ATOM     32  C   UNL     1      -1.769   3.566  13.067  0.00  0.00    +0.026 A 
ATOM     33  C   UNL     1      -1.061   3.491  11.836  0.00  0.00    +0.043 A 
ATOM     34  N   UNL     1      -1.149   4.197  10.735  0.00  0.00    -0.380 N 
ATOM     35  C   UNL     1      -0.167   3.686   9.772  0.00  0.00    +0.144 C 
ATOM     36  H   UNL     1      -1.759   4.936  10.583  0.00  0.00    +0.160 HD
ENDBRANCH  26  27
ENDBRANCH  25  26
ENDBRANCH  23  25
ENDBRANCH  20  21
ENDBRANCH   7  20
TORSDOF 8
