REMARK  Name = ZINC16205913
REMARK  7 active torsions:
REMARK  status: ('A' for Active; 'I' for Inactive)
REMARK    1  A    between atoms: C_1  and  C_2
REMARK    2  A    between atoms: C_4  and  C_22
REMARK    3  A    between atoms: C_6  and  N_8
REMARK    4  A    between atoms: C_9  and  C_11
REMARK    5  A    between atoms: C_13  and  N_19
REMARK    6  A    between atoms: C_16  and  N_17
REMARK    7  A    between atoms: N_17  and  C_18
REMARK                            x       y       z     vdW  Elec       q    Type
REMARK                         _______ _______ _______ _____ _____    ______ ____
ROOT
ATOM      1  N   UNL     1       2.200   5.170   0.133  0.00  0.00    -0.281 N 
ATOM      2  C   UNL     1       2.267   3.829   0.015  0.00  0.00    +0.250 C 
ATOM      3  O   UNL     1       3.347   3.282  -0.100  0.00  0.00    -0.270 OA
ATOM      4  H   UNL     1       1.346   5.601   0.289  0.00  0.00    +0.155 HD
ENDROOT
BRANCH   1  10
ATOM      5  C   UNL     1       4.418   9.314  -1.309  0.00  0.00    +0.044 C 
ATOM      6  C   UNL     1       4.467   7.952  -0.665  0.00  0.00    -0.048 A 
ATOM      7  C   UNL     1       5.664   7.463  -0.176  0.00  0.00    +0.006 A 
ATOM      8  C   UNL     1       5.714   6.214   0.416  0.00  0.00    -0.048 A 
ATOM      9  C   UNL     1       4.567   5.451   0.520  0.00  0.00    +0.026 A 
ATOM     10  C   UNL     1       3.363   5.940   0.029  0.00  0.00    +0.034 A 
ATOM     11  C   UNL     1       3.318   7.192  -0.569  0.00  0.00    +0.026 A 
ATOM     12  C   UNL     1       7.021   5.685   0.948  0.00  0.00    +0.044 C 
ENDBRANCH   1  10
BRANCH   2  13
ATOM     13  C   UNL     1       1.032   3.025   0.027  0.00  0.00    +0.060 A 
ATOM     14  C   UNL     1      -0.216   3.655   0.043  0.00  0.00    +0.047 A 
ATOM     15  C   UNL     1      -1.367   2.898   0.054  0.00  0.00    +0.127 A 
ATOM     16  C   UNL     1      -1.296   1.514   0.045  0.00  0.00    +0.034 A 
ATOM     17  C   UNL     1      -0.072   0.878   0.035  0.00  0.00    +0.026 A 
ATOM     18  C   UNL     1       1.101   1.624   0.023  0.00  0.00    +0.039 A 
BRANCH  18  19
ATOM     19  N   UNL     1       2.334   0.985   0.008  0.00  0.00    -0.346 N 
ATOM     20  C   UNL     1       2.405  -0.473   0.122  0.00  0.00    +0.125 C 
ATOM     21  H   UNL     1       3.148   1.506  -0.079  0.00  0.00    +0.146 HD
ENDBRANCH  18  19
BRANCH  15  22
ATOM     22  N   UNL     1      -2.688   3.567   0.070  0.00  0.00    +0.056 N 
ATOM     23  O   UNL     1      -2.754   4.783   0.074  0.00  0.00    -0.126 OA
ATOM     24  O   UNL     1      -3.707   2.901   0.081  0.00  0.00    -0.126 OA
ENDBRANCH  15  22
ENDBRANCH   2  13
TORSDOF 4
