REMARK  Name = ZINC38804197
REMARK  6 active torsions:
REMARK  status: ('A' for Active; 'I' for Inactive)
REMARK    1  A    between atoms: C_9  and  C_12
REMARK    2  A    between atoms: C_12  and  O_14
REMARK    3  A    between atoms: O_14  and  N_15
REMARK    4  A    between atoms: C_16  and  O_18
REMARK    5  A    between atoms: O_18  and  C_19
REMARK    6  A    between atoms: C_19  and  C_20
REMARK                            x       y       z     vdW  Elec       q    Type
REMARK                         _______ _______ _______ _____ _____    ______ ____
ROOT
ATOM      1  N   UNL     1       7.170  -3.218   0.430  0.00  0.00    -0.110 N 
ATOM      2  C   UNL     1       8.359  -2.918   0.990  0.00  0.00    +0.433 C 
ATOM      3  O   UNL     1       8.447  -1.992   1.772  0.00  0.00    -0.223 OA
ATOM      4  H   UNL     1       7.101  -3.957  -0.194  0.00  0.00    +0.199 HD
ENDROOT
BRANCH   1   5
ATOM      5  O   UNL     1       6.023  -2.453   0.753  0.00  0.00    -0.344 OA
BRANCH   5   6
ATOM      6  C   UNL     1       4.908  -2.854   0.130  0.00  0.00    +0.334 C 
ATOM      7  O   UNL     1       4.946  -3.796  -0.632  0.00  0.00    -0.248 OA
BRANCH   6  16
ATOM      8  C   UNL     1      -0.017   1.375   0.010  0.00  0.00    +0.000 A 
ATOM      9  C   UNL     1       1.174   2.078   0.002  0.00  0.00    +0.000 A 
ATOM     10  C   UNL     1       2.372   1.395  -0.016  0.00  0.00    +0.004 A 
ATOM     11  C   UNL     1       2.393   0.006  -0.025  0.00  0.00    -0.043 A 
ATOM     12  C   UNL     1       1.208  -0.694  -0.013  0.00  0.00    -0.044 A 
ATOM     13  C   UNL     1       0.002  -0.004   0.002  0.00  0.00    +0.004 A 
ATOM     14  C   UNL     1       1.155  -2.199  -0.005  0.00  0.00    +0.036 C 
ATOM     15  C   UNL     1       2.493  -2.786  -0.452  0.00  0.00    +0.020 C 
ATOM     16  C   UNL     1       3.607  -2.135   0.376  0.00  0.00    +0.104 C 
ATOM     17  C   UNL     1       3.736  -0.675  -0.053  0.00  0.00    +0.050 C 
ENDBRANCH   6  16
ENDBRANCH   5   6
ENDBRANCH   1   5
BRANCH   2  18
ATOM     18  O   UNL     1       9.451  -3.645   0.682  0.00  0.00    -0.448 OA
BRANCH  18  19
ATOM     19  C   UNL     1      10.678  -3.272   1.312  0.00  0.00    +0.246 C 
BRANCH  19  20
ATOM     20  C   UNL     1      11.796  -4.204   0.843  0.00  0.00    +0.088 C 
ATOM     21  C   UNL     1      11.572  -5.596   1.381  0.00  0.00    -0.029 A 
ATOM     22  C   UNL     1      10.545  -6.500   1.212  0.00  0.00    +0.005 A 
ATOM     23  C   UNL     1      10.597  -7.734   1.836  0.00  0.00    +0.000 A 
ATOM     24  C   UNL     1      11.680  -8.063   2.631  0.00  0.00    +0.001 A 
ATOM     25  C   UNL     1      12.712  -7.165   2.807  0.00  0.00    +0.009 A 
ATOM     26  C   UNL     1      12.666  -5.919   2.180  0.00  0.00    -0.014 A 
ATOM     27  C   UNL     1      13.620  -4.782   2.194  0.00  0.00    -0.014 A 
ATOM     28  C   UNL     1      13.121  -3.749   1.404  0.00  0.00    -0.029 A 
ATOM     29  C   UNL     1      13.834  -2.578   1.260  0.00  0.00    +0.005 A 
ATOM     30  C   UNL     1      15.050  -2.424   1.901  0.00  0.00    +0.000 A 
ATOM     31  C   UNL     1      15.554  -3.444   2.688  0.00  0.00    +0.001 A 
ATOM     32  C   UNL     1      14.848  -4.619   2.838  0.00  0.00    +0.009 A 
ENDBRANCH  19  20
ENDBRANCH  18  19
ENDBRANCH   2  18
TORSDOF 6
