REMARK  Name = ZINC67406929
REMARK  9 active torsions:
REMARK  status: ('A' for Active; 'I' for Inactive)
REMARK    1  A    between atoms: C_1  and  C_2
REMARK    2  A    between atoms: C_2  and  C_4
REMARK    3  A    between atoms: C_2  and  C_20
REMARK    4  A    between atoms: C_4  and  N_5
REMARK    5  A    between atoms: N_8  and  N_9
REMARK    6  A    between atoms: C_10  and  C_12
REMARK    7  A    between atoms: C_12  and  C_13
REMARK    8  A    between atoms: C_13  and  C_14
REMARK    9  A    between atoms: C_20  and  N_21
REMARK                            x       y       z     vdW  Elec       q    Type
REMARK                         _______ _______ _______ _____ _____    ______ ____
ROOT
ATOM      1  N   UNL     1      -0.261  -0.195  -2.436  0.00  0.00    -0.298 N 
ATOM      2  C   UNL     1       0.129  -0.459  -3.699  0.00  0.00    +0.316 C 
ATOM      3  O   UNL     1       1.227  -0.935  -3.910  0.00  0.00    -0.251 OA
ATOM      4  N   UNL     1      -0.700  -0.193  -4.729  0.00  0.00    -0.218 N 
ATOM      5  H   UNL     1      -1.137   0.185  -2.268  0.00  0.00    +0.150 HD
ATOM      6  H   UNL     1      -0.420  -0.383  -5.638  0.00  0.00    +0.174 HD
ENDROOT
BRANCH   4   7
ATOM      7  N   UNL     1      -1.966   0.356  -4.486  0.00  0.00    -0.233 N 
ATOM      8  C   UNL     1      -2.794   0.621  -5.516  0.00  0.00    +0.229 C 
ATOM      9  O   UNL     1      -2.443   0.384  -6.652  0.00  0.00    -0.274 OA
ATOM     10  H   UNL     1      -2.246   0.546  -3.577  0.00  0.00    +0.173 HD
BRANCH   8  11
ATOM     11  C   UNL     1      -4.155   1.212  -5.254  0.00  0.00    +0.097 C 
BRANCH  11  12
ATOM     12  C   UNL     1      -4.887   1.413  -6.583  0.00  0.00    +0.013 C 
BRANCH  12  13
ATOM     13  C   UNL     1      -6.269   2.013  -6.318  0.00  0.00    -0.011 C 
ATOM     14  C   UNL     1      -7.119   1.010  -5.535  0.00  0.00    +0.003 C 
ATOM     15  C   UNL     1      -8.502   1.611  -5.270  0.00  0.00    +0.000 C 
ATOM     16  C   UNL     1      -9.184   1.927  -6.602  0.00  0.00    +0.000 C 
ATOM     17  C   UNL     1      -8.334   2.930  -7.385  0.00  0.00    +0.000 C 
ATOM     18  C   UNL     1      -6.952   2.330  -7.650  0.00  0.00    +0.003 C 
ENDBRANCH  12  13
ENDBRANCH  11  12
ENDBRANCH   8  11
ENDBRANCH   4   7
BRANCH   1  19
ATOM     19  C   UNL     1       0.640  -0.483  -1.317  0.00  0.00    +0.107 C 
BRANCH  19  21
ATOM     20  C   UNL     1      -0.256   1.420   0.032  0.00  0.00    +0.007 C 
ATOM     21  C   UNL     1      -0.040  -0.094  -0.002  0.00  0.00    -0.014 C 
BRANCH  21  22
ATOM     22  C   UNL     1       0.848  -0.509   1.173  0.00  0.00    -0.074 C 
BRANCH  22  23
ATOM     23  N   UNL     1       0.145  -0.242   2.435  0.00  0.00    +0.380 N 
ATOM     24  C   UNL     1       1.052  -0.495   3.561  0.00  0.00    -0.079 C 
ATOM     25  C   UNL     1       0.351  -0.142   4.875  0.00  0.00    -0.019 C 
ATOM     26  C   UNL     1      -0.905  -1.004   5.025  0.00  0.00    -0.004 C 
ATOM     27  C   UNL     1      -1.810  -0.787   3.809  0.00  0.00    -0.019 C 
ATOM     28  C   UNL     1      -1.029  -1.117   2.534  0.00  0.00    -0.079 C 
ATOM     29  H   UNL     1      -0.153   0.722   2.456  0.00  0.00    -0.082 HD
ENDBRANCH  22  23
ENDBRANCH  21  22
ENDBRANCH  19  21
ENDBRANCH   1  19
TORSDOF 8
