REMARK  Name = ZINC14186617
REMARK  5 active torsions:
REMARK  status: ('A' for Active; 'I' for Inactive)
REMARK    1  A    between atoms: C_3  and  N_18
REMARK    2  A    between atoms: C_6  and  C_7
REMARK    3  A    between atoms: C_7  and  O_8
REMARK    4  A    between atoms: O_8  and  C_9
REMARK    5  A    between atoms: C_9  and  C_11
REMARK                            x       y       z     vdW  Elec       q    Type
REMARK                         _______ _______ _______ _____ _____    ______ ____
ROOT
ATOM      1  C   UNL     1       1.151   3.592   0.010  0.00  0.00    +0.268 C 
ENDROOT
BRANCH   1   7
ATOM      2  C   UNL     1      -0.017   1.378   0.010  0.00  0.00    +0.009 A 
ATOM      3  C   UNL     1       0.002  -0.004   0.002  0.00  0.00    +0.033 A 
ATOM      4  C   UNL     1       1.208  -0.679  -0.014  0.00  0.00    +0.126 A 
ATOM      5  C   UNL     1       2.396   0.029  -0.021  0.00  0.00    +0.033 A 
ATOM      6  C   UNL     1       2.377   1.411  -0.014  0.00  0.00    +0.009 A 
ATOM      7  C   UNL     1       1.171   2.086   0.002  0.00  0.00    -0.010 A 
BRANCH   4   8
ATOM      8  N   UNL     1       1.228  -2.159  -0.022  0.00  0.00    +0.056 N 
ATOM      9  O   UNL     1       0.182  -2.782  -0.015  0.00  0.00    -0.126 OA
ATOM     10  O   UNL     1       2.291  -2.753  -0.036  0.00  0.00    -0.126 OA
ENDBRANCH   4   8
ENDBRANCH   1   7
BRANCH   1  11
ATOM     11  O   UNL     1       1.157   4.069   1.382  0.00  0.00    -0.455 OA
BRANCH  11  12
ATOM     12  C   UNL     1       1.141   5.405   1.566  0.00  0.00    +0.356 C 
ATOM     13  O   UNL     1       1.121   6.151   0.606  0.00  0.00    -0.243 OA
BRANCH  12  14
ATOM     14  C   UNL     1       1.146   5.958   2.923  0.00  0.00    +0.125 A 
ATOM     15  C   UNL     1       1.137   7.296   3.258  0.00  0.00    +0.049 A 
ATOM     16  C   UNL     1       1.145   7.369   4.655  0.00  0.00    +0.036 A 
ATOM     17  C   UNL     1       1.166   6.103   5.138  0.00  0.00    +0.098 A 
ATOM     18  N   UNL     1       1.167   5.236   4.095  0.00  0.00    -0.355 N 
ATOM     19  H   UNL     1       1.180   4.269   4.164  0.00  0.00    +0.166 HD
ATOM     20 BR   UNL     1       1.133   8.954   5.686  0.00  0.00    -0.049 Br
ENDBRANCH  12  14
ENDBRANCH  11  12
ENDBRANCH   1  11
TORSDOF 5
