REMARK  Name = ZINC58166050
REMARK  9 active torsions:
REMARK  status: ('A' for Active; 'I' for Inactive)
REMARK    1  A    between atoms: C_1  and  C_2
REMARK    2  A    between atoms: C_2  and  O_3
REMARK    3  A    between atoms: O_3  and  C_4
REMARK    4  A    between atoms: C_7  and  C_10
REMARK    5  A    between atoms: C_10  and  C_11
REMARK    6  A    between atoms: C_11  and  C_13
REMARK    7  A    between atoms: C_11  and  C_26
REMARK    8  A    between atoms: C_13  and  N_14
REMARK    9  A    between atoms: N_17  and  C_18
REMARK                            x       y       z     vdW  Elec       q    Type
REMARK                         _______ _______ _______ _____ _____    ______ ____
ROOT
ATOM      1  C   UNL     1      -1.337  -6.417   1.611  0.00  0.00    +0.096 C 
ENDROOT
BRANCH   1   2
ATOM      2  C   UNL     1      -0.374  -5.611   2.445  0.00  0.00    +0.215 C 
ATOM      3  O   UNL     1       0.704  -6.077   2.747  0.00  0.00    -0.276 OA
ATOM      4  N   UNL     1      -0.711  -4.372   2.854  0.00  0.00    -0.329 N 
ATOM      5  H   UNL     1      -1.597  -4.025   2.669  0.00  0.00    +0.145 HD
ATOM      6  H   UNL     1      -0.067  -3.828   3.333  0.00  0.00    +0.145 HD
ENDBRANCH   1   2
BRANCH   1   7
ATOM      7  C   UNL     1      -0.990  -6.253   0.130  0.00  0.00    +0.049 C 
BRANCH   7  11
ATOM      8  C   UNL     1      -1.720  -2.215  -1.065  0.00  0.00    +0.121 A 
ATOM      9  C   UNL     1      -0.447  -2.606  -0.678  0.00  0.00    +0.046 A 
ATOM     10  C   UNL     1      -0.213  -3.912  -0.292  0.00  0.00    +0.007 A 
ATOM     11  C   UNL     1      -1.248  -4.829  -0.291  0.00  0.00    -0.046 A 
ATOM     12  C   UNL     1      -2.518  -4.442  -0.677  0.00  0.00    +0.007 A 
ATOM     13  C   UNL     1      -2.758  -3.136  -1.058  0.00  0.00    +0.046 A 
BRANCH   8  14
ATOM     14  O   UNL     1      -1.953  -0.931  -1.444  0.00  0.00    -0.492 OA
BRANCH  14  16
ATOM     15  C   UNL     1      -1.290   1.351  -1.882  0.00  0.00    +0.048 C 
ATOM     16  C   UNL     1      -0.837  -0.038  -1.427  0.00  0.00    +0.225 C 
ENDBRANCH  14  16
ENDBRANCH   8  14
ENDBRANCH   7  11
ENDBRANCH   1   7
BRANCH   1  17
ATOM     17  C   UNL     1      -1.233  -7.894   1.998  0.00  0.00    +0.118 C 
BRANCH  17  18
ATOM     18  N   UNL     1      -1.633  -8.061   3.398  0.00  0.00    -0.298 N 
ATOM     19  C   UNL     1      -1.523  -9.266   3.991  0.00  0.00    +0.304 C 
ATOM     20  O   UNL     1      -1.091 -10.215   3.365  0.00  0.00    -0.253 OA
ATOM     21  N   UNL     1      -1.891  -9.420   5.278  0.00  0.00    -0.267 N 
ATOM     22  H   UNL     1      -1.978  -7.304   3.897  0.00  0.00    +0.150 HD
ATOM     23  H   UNL     1      -2.304  -8.684   5.756  0.00  0.00    +0.156 HD
BRANCH  21  24
ATOM     24  C   UNL     1      -1.676 -10.644   5.927  0.00  0.00    +0.070 A 
ATOM     25  C   UNL     1      -0.753 -11.547   5.420  0.00  0.00    +0.029 A 
ATOM     26  C   UNL     1      -0.543 -12.753   6.061  0.00  0.00    +0.040 A 
ATOM     27  C   UNL     1      -1.252 -13.062   7.209  0.00  0.00    +0.126 A 
ATOM     28  C   UNL     1      -2.174 -12.163   7.718  0.00  0.00    +0.078 A 
ATOM     29  C   UNL     1      -2.384 -10.952   7.083  0.00  0.00    +0.147 A 
ATOM     30  F   UNL     1      -3.279 -10.072   7.583  0.00  0.00    -0.203 F 
ATOM     31  F   UNL     1      -1.044 -14.242   7.833  0.00  0.00    -0.205 F 
ENDBRANCH  21  24
ENDBRANCH  17  18
ENDBRANCH   1  17
TORSDOF 8
