REMARK  Name = ZINC59597988
REMARK  6 active torsions:
REMARK  status: ('A' for Active; 'I' for Inactive)
REMARK    1  A    between atoms: C_1  and  C_2
REMARK    2  A    between atoms: C_5  and  N_8
REMARK    3  A    between atoms: N_11  and  N_12
REMARK    4  A    between atoms: C_13  and  C_14
REMARK    5  A    between atoms: C_17  and  O_21
REMARK    6  A    between atoms: O_21  and  C_22
REMARK                            x       y       z     vdW  Elec       q    Type
REMARK                         _______ _______ _______ _____ _____    ______ ____
ROOT
ATOM      1  N   UNL     1       0.059  -4.170  -0.021  0.00  0.00    -0.268 N 
ATOM      2  C   UNL     1       0.176  -4.848   1.138  0.00  0.00    +0.323 C 
ATOM      3  O   UNL     1       0.174  -4.250   2.196  0.00  0.00    -0.251 OA
ATOM      4  N   UNL     1       0.296  -6.191   1.123  0.00  0.00    -0.191 N 
ATOM      5  H   UNL     1      -0.016  -4.651  -0.860  0.00  0.00    +0.156 HD
ATOM      6  H   UNL     1       0.380  -6.679   1.957  0.00  0.00    +0.179 HD
ENDROOT
BRANCH   1  11
ATOM      7  C   UNL     1       0.011   1.503   0.007  0.00  0.00    +0.044 C 
ATOM      8  C   UNL     1       0.024  -0.004  -0.000  0.00  0.00    -0.050 A 
ATOM      9  C   UNL     1       0.779  -0.692   0.931  0.00  0.00    +0.005 A 
ATOM     10  C   UNL     1       0.793  -2.073   0.927  0.00  0.00    +0.023 A 
ATOM     11  C   UNL     1       0.047  -2.771  -0.014  0.00  0.00    +0.035 A 
ATOM     12  C   UNL     1      -0.710  -2.077  -0.948  0.00  0.00    +0.023 A 
ATOM     13  C   UNL     1      -0.724  -0.696  -0.935  0.00  0.00    +0.005 A 
ENDBRANCH   1  11
BRANCH   4  14
ATOM     14  N   UNL     1       0.299  -6.881  -0.096  0.00  0.00    -0.186 NA
ATOM     15  C   UNL     1       0.414  -8.173  -0.110  0.00  0.00    +0.138 C 
BRANCH  15  16
ATOM     16  C   UNL     1       0.417  -8.899  -1.394  0.00  0.00    -0.002 A 
ATOM     17  C   UNL     1       0.302  -8.197  -2.596  0.00  0.00    +0.033 A 
ATOM     18  C   UNL     1       0.306  -8.880  -3.795  0.00  0.00    +0.085 A 
ATOM     19  C   UNL     1       0.423 -10.264  -3.807  0.00  0.00    +0.157 A 
ATOM     20  C   UNL     1       0.538 -10.966  -2.614  0.00  0.00    +0.085 A 
ATOM     21  C   UNL     1       0.541 -10.291  -1.411  0.00  0.00    +0.033 A 
ATOM     22 CL   UNL     1       0.683 -12.696  -2.636  0.00  0.00    -0.080 Cl
ATOM     23 CL   UNL     1       0.162  -8.008  -5.289  0.00  0.00    -0.080 Cl
BRANCH  19  24
ATOM     24  O   UNL     1       0.426 -10.933  -4.990  0.00  0.00    -0.492 OA
ATOM     25  C   UNL     1       1.695 -11.144  -5.613  0.00  0.00    +0.277 C 
ENDBRANCH  19  24
ENDBRANCH  15  16
ENDBRANCH   4  14
TORSDOF 4
