REMARK  Name = ZINC33127695
REMARK  5 active torsions:
REMARK  status: ('A' for Active; 'I' for Inactive)
REMARK    1  A    between atoms: C_1  and  C_2
REMARK    2  A    between atoms: C_5  and  N_9
REMARK    3  A    between atoms: N_12  and  C_13
REMARK    4  A    between atoms: C_13  and  C_15
REMARK    5  A    between atoms: C_13  and  C_16
REMARK                            x       y       z     vdW  Elec       q    Type
REMARK                         _______ _______ _______ _____ _____    ______ ____
ROOT
ATOM      1  N   UNL     1      -1.326   7.827   0.017  0.00  0.00    -0.269 N 
ATOM      2  C   UNL     1      -0.682   6.649  -0.098  0.00  0.00    +0.304 C 
ATOM      3  O   UNL     1       0.457   6.618  -0.521  0.00  0.00    -0.252 OA
ATOM      4  N   UNL     1      -1.301   5.505   0.256  0.00  0.00    -0.288 N 
ATOM      5  H   UNL     1      -2.378   7.850   0.338  0.00  0.00    +0.156 HD
ATOM      6  H   UNL     1      -2.332   5.534   0.639  0.00  0.00    +0.151 HD
ENDROOT
BRANCH   1  11
ATOM      7  C   UNL     1       1.387  12.674  -1.148  0.00  0.00    +0.047 C 
ATOM      8  C   UNL     1       0.667  11.386  -0.839  0.00  0.00    -0.015 A 
ATOM      9  C   UNL     1      -0.278  11.349   0.171  0.00  0.00    +0.008 A 
ATOM     10  C   UNL     1      -0.944  10.172   0.452  0.00  0.00    +0.024 A 
ATOM     11  C   UNL     1      -0.656   9.022  -0.271  0.00  0.00    +0.037 A 
ATOM     12  C   UNL     1       0.292   9.060  -1.284  0.00  0.00    +0.062 A 
ATOM     13  C   UNL     1       0.952  10.243  -1.566  0.00  0.00    +0.128 A 
ATOM     14  F   UNL     1       1.876  10.282  -2.551  0.00  0.00    -0.205 F 
ENDBRANCH   1  11
BRANCH   4  15
ATOM     15  C   UNL     1      -0.601   4.225   0.131  0.00  0.00    +0.158 C 
ATOM     16  C   UNL     1       0.245   3.982   1.382  0.00  0.00    +0.038 C 
BRANCH  15  17
ATOM     17  C   UNL     1      -1.609   3.114  -0.018  0.00  0.00    +0.240 C 
ATOM     18  O   UNL     1      -2.772   3.309   0.264  0.00  0.00    -0.273 OA
ATOM     19  N   UNL     1      -1.217   1.904  -0.463  0.00  0.00    -0.269 N 
ATOM     20  C   UNL     1       0.137   1.573  -0.917  0.00  0.00    +0.118 C 
ATOM     21  C   UNL     1       0.077   0.091  -1.318  0.00  0.00    +0.056 C 
ATOM     22  C   UNL     1      -1.353  -0.320  -1.048  0.00  0.00    -0.024 A 
ATOM     23  C   UNL     1      -2.040   0.777  -0.553  0.00  0.00    +0.040 A 
ATOM     24  C   UNL     1      -3.391   0.640  -0.227  0.00  0.00    +0.024 A 
ATOM     25  C   UNL     1      -4.028  -0.571  -0.397  0.00  0.00    +0.002 A 
ATOM     26  C   UNL     1      -3.333  -1.659  -0.891  0.00  0.00    +0.000 A 
ATOM     27  C   UNL     1      -1.995  -1.531  -1.216  0.00  0.00    +0.005 A 
ENDBRANCH  15  17
ENDBRANCH   4  15
TORSDOF 3
