REMARK  Name = ZINC12820279
REMARK  7 active torsions:
REMARK  status: ('A' for Active; 'I' for Inactive)
REMARK    1  A    between atoms: C_4  and  C_7
REMARK    2  A    between atoms: C_7  and  N_8
REMARK    3  A    between atoms: C_9  and  N_35
REMARK    4  A    between atoms: C_10  and  N_17
REMARK    5  A    between atoms: N_17  and  C_18
REMARK    6  A    between atoms: C_18  and  C_19
REMARK    7  A    between atoms: C_24  and  C_26
REMARK                            x       y       z     vdW  Elec       q    Type
REMARK                         _______ _______ _______ _____ _____    ______ ____
ROOT
ATOM      1  N   UNL     1       4.848   1.490  -1.240  0.00  0.00    -0.276 N 
ATOM      2  C   UNL     1       4.604   1.659   0.104  0.00  0.00    +0.128 A 
ATOM      3  C   UNL     1       5.179   2.724   0.764  0.00  0.00    +0.140 A 
ATOM      4  C   UNL     1       5.992   3.615   0.039  0.00  0.00    +0.277 A 
ATOM      5  O   UNL     1       6.510   4.567   0.597  0.00  0.00    -0.266 OA
ATOM      6  N   UNL     1       6.195   3.408  -1.277  0.00  0.00    -0.273 N 
ATOM      7  H   UNL     1       6.773   4.040  -1.794  0.00  0.00    +0.173 HD
ATOM      8  C   UNL     1       5.630   2.361  -1.904  0.00  0.00    +0.331 A 
ATOM      9  O   UNL     1       5.829   2.198  -3.092  0.00  0.00    -0.246 OA
ENDROOT
BRANCH   3  10
ATOM     10  N   UNL     1       4.952   2.921   2.143  0.00  0.00    -0.252 N 
ATOM     11  C   UNL     1       4.562   4.129   2.596  0.00  0.00    +0.271 C 
ATOM     12  O   UNL     1       4.395   4.308   3.790  0.00  0.00    -0.268 OA
BRANCH  11  13
ATOM     13  C   UNL     1       4.345   5.191   1.685  0.00  0.00    +0.148 A 
ATOM     14  C   UNL     1       4.888   6.458   1.756  0.00  0.00    +0.161 A 
ATOM     15  N   UNL     1       4.439   7.153   0.715  0.00  0.00    -0.209 NA
ATOM     16  C   UNL     1       3.647   6.399  -0.006  0.00  0.00    +0.179 A 
ATOM     17  N   UNL     1       3.541   5.154   0.531  0.00  0.00    -0.288 N 
ATOM     18  C   UNL     1       2.732   4.253  -0.121  0.00  0.00    +0.101 A 
ATOM     19  C   UNL     1       2.092   4.597  -1.240  0.00  0.00    +0.067 A 
ATOM     20  S   UNL     1       2.610   6.294  -1.447  0.00  0.00    -0.058 S 
ATOM     21 CL   UNL     1       5.966   7.042   2.985  0.00  0.00    -0.060 Cl
ENDBRANCH  11  13
BRANCH  10  22
ATOM     22  C   UNL     1       5.140   1.813   3.083  0.00  0.00    +0.188 C 
BRANCH  22  23
ATOM     23  C   UNL     1       6.550   1.838   3.614  0.00  0.00    +0.122 A 
ATOM     24  C   UNL     1       6.982   2.559   4.664  0.00  0.00    +0.046 A 
ATOM     25  C   UNL     1       8.362   2.284   4.810  0.00  0.00    +0.041 A 
ATOM     26  C   UNL     1       8.690   1.411   3.840  0.00  0.00    +0.195 A 
ATOM     27  O   UNL     1       7.587   1.140   3.122  0.00  0.00    -0.466 OA
ENDBRANCH  22  23
ENDBRANCH  10  22
ENDBRANCH   3  10
BRANCH   2  28
ATOM     28  N   UNL     1       3.800   0.773   0.781  0.00  0.00    -0.343 N 
ATOM     29  H   UNL     1       3.478  -0.027   0.336  0.00  0.00    +0.144 HD
ATOM     30  H   UNL     1       3.554   0.947   1.703  0.00  0.00    +0.144 HD
ENDBRANCH   2  28
BRANCH   1  31
ATOM     31  C   UNL     1       4.247   0.360  -1.953  0.00  0.00    +0.163 C 
BRANCH  31  35
ATOM     32  C   UNL     1       6.892  -2.991  -1.796  0.00  0.00    +0.000 A 
ATOM     33  C   UNL     1       5.943  -2.812  -0.806  0.00  0.00    +0.000 A 
ATOM     34  C   UNL     1       5.088  -1.727  -0.857  0.00  0.00    +0.005 A 
ATOM     35  C   UNL     1       5.181  -0.822  -1.897  0.00  0.00    -0.028 A 
ATOM     36  C   UNL     1       6.126  -1.003  -2.889  0.00  0.00    +0.005 A 
ATOM     37  C   UNL     1       6.985  -2.085  -2.836  0.00  0.00    +0.000 A 
ENDBRANCH  31  35
ENDBRANCH   1  31
TORSDOF 7
