REMARK  Name = ZINC36593764
REMARK  16 active torsions:
REMARK  status: ('A' for Active; 'I' for Inactive)
REMARK    1  A    between atoms: C_1  and  C_2
REMARK    2  A    between atoms: C_2  and  C_3
REMARK    3  A    between atoms: C_2  and  C_4
REMARK    4  A    between atoms: C_2  and  N_5
REMARK    5  A    between atoms: C_6  and  C_8
REMARK    6  A    between atoms: C_8  and  C_10
REMARK    7  A    between atoms: C_8  and  N_19
REMARK    8  A    between atoms: C_13  and  O_18
REMARK    9  A    between atoms: C_14  and  O_16
REMARK   10  A    between atoms: O_16  and  C_17
REMARK   11  A    between atoms: N_19  and  C_31
REMARK   12  A    between atoms: C_20  and  C_22
REMARK   13  A    between atoms: C_25  and  N_28
REMARK   14  A    between atoms: C_31  and  C_32
REMARK   15  A    between atoms: C_31  and  C_33
REMARK   16  A    between atoms: C_31  and  C_34
REMARK                            x       y       z     vdW  Elec       q    Type
REMARK                         _______ _______ _______ _____ _____    ______ ____
ROOT
ATOM      1  C   UNL     1       6.336  -0.316  -0.176  0.00  0.00    +0.193 C 
ENDROOT
BRANCH   1   2
ATOM      2  C   UNL     1       7.421  -0.048   0.835  0.00  0.00    -0.014 A 
ATOM      3  C   UNL     1       8.060   1.178   0.851  0.00  0.00    +0.010 A 
ATOM      4  C   UNL     1       9.056   1.430   1.776  0.00  0.00    +0.049 A 
ATOM      5  C   UNL     1       9.416   0.452   2.690  0.00  0.00    +0.158 A 
ATOM      6  C   UNL     1       8.773  -0.782   2.673  0.00  0.00    +0.162 A 
ATOM      7  C   UNL     1       7.772  -1.026   1.746  0.00  0.00    +0.055 A 
BRANCH   6   8
ATOM      8  O   UNL     1       9.123  -1.745   3.567  0.00  0.00    -0.491 OA
ATOM      9  C   UNL     1       8.421  -2.987   3.491  0.00  0.00    +0.277 C 
ENDBRANCH   6   8
BRANCH   5  10
ATOM     10  O   UNL     1      10.397   0.697   3.600  0.00  0.00    -0.503 OA
ATOM     11  H   UNL     1      10.077   1.075   4.430  0.00  0.00    +0.292 HD
ENDBRANCH   5  10
ENDBRANCH   1   2
BRANCH   1  13
ATOM     12  N   UNL     1       4.872  -1.613   1.338  0.00  0.00    -0.309 N 
ATOM     13  C   UNL     1       5.028  -0.539   0.539  0.00  0.00    +0.239 C 
ATOM     14  O   UNL     1       4.117   0.248   0.395  0.00  0.00    -0.273 OA
ATOM     15  H   UNL     1       5.601  -2.242   1.454  0.00  0.00    +0.149 HD
BRANCH  12  17
ATOM     16  C   UNL     1       2.474  -1.966   1.006  0.00  0.00    +0.031 C 
ATOM     17  C   UNL     1       3.600  -1.829   2.033  0.00  0.00    +0.026 C 
ATOM     18  C   UNL     1       3.312  -0.640   2.951  0.00  0.00    +0.031 C 
ATOM     19  C   UNL     1       3.687  -3.109   2.868  0.00  0.00    +0.031 C 
ENDBRANCH  12  17
ENDBRANCH   1  13
BRANCH   1  20
ATOM     20  N   UNL     1       6.211   0.833  -1.076  0.00  0.00    -0.277 N 
ATOM     21  C   UNL     1       6.104   2.077  -0.569  0.00  0.00    +0.248 C 
ATOM     22  O   UNL     1       5.720   2.237   0.574  0.00  0.00    -0.270 OA
BRANCH  21  23
ATOM     23  C   UNL     1       6.454   3.248  -1.402  0.00  0.00    +0.037 A 
ATOM     24  C   UNL     1       5.828   3.443  -2.634  0.00  0.00    +0.015 A 
ATOM     25  C   UNL     1       6.159   4.537  -3.406  0.00  0.00    +0.033 A 
ATOM     26  C   UNL     1       7.109   5.440  -2.962  0.00  0.00    +0.126 A 
ATOM     27  C   UNL     1       7.733   5.252  -1.741  0.00  0.00    +0.033 A 
ATOM     28  C   UNL     1       7.407   4.165  -0.957  0.00  0.00    +0.015 A 
BRANCH  26  29
ATOM     29  N   UNL     1       7.459   6.612  -3.796  0.00  0.00    +0.056 N 
ATOM     30  O   UNL     1       6.915   6.778  -4.863  0.00  0.00    -0.126 OA
ATOM     31  O   UNL     1       8.288   7.402  -3.410  0.00  0.00    -0.126 OA
ENDBRANCH  26  29
ENDBRANCH  21  23
BRANCH  20  32
ATOM     32  C   UNL     1       6.203   0.630  -2.526  0.00  0.00    +0.030 C 
ATOM     33  C   UNL     1       6.770  -0.753  -2.851  0.00  0.00    +0.031 C 
ATOM     34  C   UNL     1       4.768   0.728  -3.047  0.00  0.00    +0.031 C 
ATOM     35  C   UNL     1       7.063   1.704  -3.197  0.00  0.00    +0.031 C 
ENDBRANCH  20  32
ENDBRANCH   1  20
TORSDOF 9
