REMARK  Name = ZINC63326758
REMARK  1 active torsions:
REMARK  status: ('A' for Active; 'I' for Inactive)
REMARK    1  A    between atoms: C_7  and  C_10
REMARK                            x       y       z     vdW  Elec       q    Type
REMARK                         _______ _______ _______ _____ _____    ______ ____
ROOT
ATOM      1  C   UNL     1       0.691  -3.186  -0.024  0.00  0.00    +0.188 C 
ATOM      2  N   UNL     1       0.912  -3.989  -1.240  0.00  0.00    -0.317 N 
ATOM      3  C   UNL     1       1.912  -4.915  -1.193  0.00  0.00    +0.072 C 
ATOM      4  C   UNL     1       2.427  -5.430   0.006  0.00  0.00    +0.046 C 
ATOM      5  C   UNL     1       3.521  -6.385  -0.172  0.00  0.00    +0.040 C 
ATOM      6  C   UNL     1       4.099  -7.224   0.914  0.00  0.00    +0.009 C 
ATOM      7  C   UNL     1       5.559  -7.550   0.545  0.00  0.00    +0.001 C 
ATOM      8  C   UNL     1       5.633  -8.182  -0.843  0.00  0.00    +0.001 C 
ATOM      9  C   UNL     1       5.015  -7.263  -1.909  0.00  0.00    +0.015 C 
ATOM     10  C   UNL     1       3.530  -7.091  -1.543  0.00  0.00    +0.060 C 
ATOM     11  S   UNL     1       2.773  -5.723  -2.516  0.00  0.00    -0.106 S 
ATOM     12  C   UNL     1       1.863  -4.964   1.220  0.00  0.00    +0.244 C 
ATOM     13  O   UNL     1       2.217  -5.430   2.290  0.00  0.00    -0.270 OA
ATOM     14  N   UNL     1       0.933  -3.997   1.167  0.00  0.00    -0.290 N 
ATOM     15  H   UNL     1       0.371  -3.866  -2.035  0.00  0.00    +0.149 HD
ATOM     16  H   UNL     1       0.397  -3.831   1.958  0.00  0.00    +0.151 HD
ENDROOT
BRANCH   1  23
ATOM     17  C   UNL     1      -0.016   1.348   0.009  0.00  0.00    +0.001 A 
ATOM     18  C   UNL     1       1.166   2.101   0.002  0.00  0.00    +0.002 A 
ATOM     19  C   UNL     1       2.391   1.535  -0.013  0.00  0.00    +0.026 A 
ATOM     20  C   UNL     1       2.529   0.120  -0.022  0.00  0.00    +0.043 A 
ATOM     21  N   UNL     1       3.587  -0.654  -0.037  0.00  0.00    -0.380 N 
ATOM     22  C   UNL     1       3.143  -2.053  -0.041  0.00  0.00    +0.148 C 
ATOM     23  C   UNL     1       1.631  -2.008  -0.025  0.00  0.00    -0.004 C 
ATOM     24  C   UNL     1       1.295  -0.698  -0.014  0.00  0.00    +0.002 A 
ATOM     25  C   UNL     1       0.002  -0.004   0.002  0.00  0.00    +0.010 A 
ATOM     26  H   UNL     1       4.509  -0.353  -0.045  0.00  0.00    +0.160 HD
ENDBRANCH   1  23
TORSDOF 1
