REMARK  Name = ZINC33058688
REMARK  11 active torsions:
REMARK  status: ('A' for Active; 'I' for Inactive)
REMARK    1  A    between atoms: C_1  and  O_2
REMARK    2  A    between atoms: O_2  and  C_3
REMARK    3  A    between atoms: C_3  and  C_4
REMARK    4  A    between atoms: C_4  and  N_5
REMARK    5  A    between atoms: C_6  and  C_8
REMARK    6  A    between atoms: C_11  and  C_14
REMARK    7  A    between atoms: C_14  and  N_15
REMARK    8  A    between atoms: C_25  and  S_26
REMARK    9  A    between atoms: S_26  and  C_27
REMARK   10  A    between atoms: C_27  and  C_28
REMARK   11  A    between atoms: N_30  and  C_31
REMARK                            x       y       z     vdW  Elec       q    Type
REMARK                         _______ _______ _______ _____ _____    ______ ____
ROOT
ATOM      1  N   UNL     1      -6.558  -1.563  -1.357  0.00  0.00    -0.283 N 
ATOM      2  C   UNL     1      -6.153  -2.684  -1.998  0.00  0.00    +0.263 A 
ATOM      3  O   UNL     1      -5.436  -3.501  -1.450  0.00  0.00    -0.267 OA
ATOM      4  C   UNL     1      -6.610  -2.877  -3.381  0.00  0.00    +0.065 A 
ATOM      5  C   UNL     1      -6.249  -3.998  -4.127  0.00  0.00    +0.015 A 
ATOM      6  C   UNL     1      -6.703  -4.128  -5.410  0.00  0.00    +0.001 A 
ATOM      7  C   UNL     1      -7.520  -3.157  -5.976  0.00  0.00    +0.002 A 
ATOM      8  C   UNL     1      -7.889  -2.049  -5.268  0.00  0.00    +0.028 A 
ATOM      9  C   UNL     1      -7.441  -1.887  -3.953  0.00  0.00    +0.079 A 
ATOM     10  N   UNL     1      -7.782  -0.809  -3.219  0.00  0.00    -0.223 NA
ATOM     11  C   UNL     1      -7.367  -0.660  -1.985  0.00  0.00    +0.173 A 
ENDROOT
BRANCH   1  12
ATOM     12  C   UNL     1      -6.131  -1.321   0.024  0.00  0.00    +0.162 C 
BRANCH  12  16
ATOM     13  C   UNL     1      -2.458   0.867   0.018  0.00  0.00    +0.037 A 
ATOM     14  C   UNL     1      -2.442  -0.528   0.005  0.00  0.00    +0.013 A 
ATOM     15  C   UNL     1      -3.631  -1.228   0.012  0.00  0.00    +0.006 A 
ATOM     16  C   UNL     1      -4.837  -0.550   0.021  0.00  0.00    -0.028 A 
ATOM     17  C   UNL     1      -4.859   0.834   0.029  0.00  0.00    +0.006 A 
ATOM     18  C   UNL     1      -3.677   1.546   0.028  0.00  0.00    +0.013 A 
BRANCH  13  20
ATOM     19  N   UNL     1      -0.011   0.966   0.007  0.00  0.00    -0.309 N 
ATOM     20  C   UNL     1      -1.187   1.624   0.017  0.00  0.00    +0.244 C 
ATOM     21  O   UNL     1      -1.204   2.839   0.023  0.00  0.00    -0.270 OA
ATOM     22  H   UNL     1       0.004  -0.134   0.006  0.00  0.00    +0.149 HD
BRANCH  19  23
ATOM     23  C   UNL     1       1.248   1.716  -0.001  0.00  0.00    +0.132 C 
BRANCH  23  24
ATOM     24  C   UNL     1       2.424   0.737  -0.017  0.00  0.00    +0.178 C 
BRANCH  24  26
ATOM     25  C   UNL     1       3.478  -0.946  -1.360  0.00  0.00    +0.194 C 
ATOM     26  O   UNL     1       2.414   0.001  -1.242  0.00  0.00    -0.381 OA
ENDBRANCH  24  26
ENDBRANCH  23  24
ENDBRANCH  19  23
ENDBRANCH  13  20
ENDBRANCH  12  16
ENDBRANCH   1  12
BRANCH  11  27
ATOM     27  S   UNL     1      -7.869   0.777  -1.098  0.00  0.00    -0.078 S 
BRANCH  27  28
ATOM     28  C   UNL     1      -8.884   1.587  -2.359  0.00  0.00    +0.173 C 
BRANCH  28  29
ATOM     29  C   UNL     1      -9.436   2.876  -1.808  0.00  0.00    +0.224 C 
ATOM     30  O   UNL     1      -9.170   3.214  -0.674  0.00  0.00    -0.275 OA
ATOM     31  N   UNL     1     -10.226   3.653  -2.575  0.00  0.00    -0.312 N 
ATOM     32  H   UNL     1     -10.467   3.346  -3.604  0.00  0.00    +0.149 HD
BRANCH  31  33
ATOM     33  C   UNL     1     -10.763   4.907  -2.040  0.00  0.00    +0.073 C 
ATOM     34  C   UNL     1     -12.050   4.619  -1.263  0.00  0.00    +0.022 C 
ATOM     35  C   UNL     1     -12.611   5.928  -0.704  0.00  0.00    +0.002 C 
ATOM     36  C   UNL     1     -12.914   6.887  -1.857  0.00  0.00    +0.000 C 
ATOM     37  C   UNL     1     -11.628   7.174  -2.633  0.00  0.00    +0.002 C 
ATOM     38  C   UNL     1     -11.067   5.865  -3.193  0.00  0.00    +0.022 C 
ENDBRANCH  31  33
ENDBRANCH  28  29
ENDBRANCH  27  28
ENDBRANCH  11  27
TORSDOF 10
