REMARK  Name = ZINC32117032
REMARK  5 active torsions:
REMARK  status: ('A' for Active; 'I' for Inactive)
REMARK    1  A    between atoms: C_8  and  N_11
REMARK    2  A    between atoms: N_11  and  N_12
REMARK    3  A    between atoms: C_13  and  C_15
REMARK    4  A    between atoms: N_17  and  C_18
REMARK    5  A    between atoms: C_23  and  C_24
REMARK                            x       y       z     vdW  Elec       q    Type
REMARK                         _______ _______ _______ _____ _____    ______ ____
ROOT
ATOM      1  N   UNL     1       0.232   0.736  -0.065  0.00  0.00    -0.229 N 
ATOM      2  C   UNL     1       1.385   1.433  -0.068  0.00  0.00    +0.315 C 
ATOM      3  O   UNL     1       1.360   2.647  -0.051  0.00  0.00    -0.264 OA
ATOM      4  H   UNL     1       0.255  -0.364  -0.076  0.00  0.00    +0.173 HD
ENDROOT
BRANCH   2   5
ATOM      5  C   UNL     1       2.693   0.714  -0.093  0.00  0.00    +0.305 C 
ATOM      6  O   UNL     1       2.718  -0.499  -0.110  0.00  0.00    -0.265 OA
ATOM      7  N   UNL     1       3.846   1.412  -0.096  0.00  0.00    -0.277 N 
ATOM      8  H   UNL     1       3.827   2.506   0.009  0.00  0.00    +0.155 HD
BRANCH   7   9
ATOM      9  C   UNL     1       5.061   0.748  -0.233  0.00  0.00    +0.048 A 
ATOM     10  C   UNL     1       5.153  -0.381  -1.038  0.00  0.00    +0.024 A 
ATOM     11  C   UNL     1       6.360  -1.035  -1.175  0.00  0.00    +0.002 A 
ATOM     12  C   UNL     1       7.485  -0.580  -0.506  0.00  0.00    +0.001 A 
ATOM     13  C   UNL     1       7.412   0.535   0.300  0.00  0.00    +0.017 A 
ATOM     14  C   UNL     1       6.199   1.211   0.446  0.00  0.00    +0.084 A 
BRANCH  14  15
ATOM     15  C   UNL     1       6.113   2.404   1.308  0.00  0.00    +0.388 C 
ATOM     16  O   UNL     1       5.080   3.042   1.362  0.00  0.00    -0.241 OA
ATOM     17  O   UNL     1       7.181   2.787   2.035  0.00  0.00    -0.241 OA
ENDBRANCH  14  15
ENDBRANCH   7   9
ENDBRANCH   2   5
BRANCH   1  18
ATOM     18  N   UNL     1      -0.996   1.411  -0.047  0.00  0.00    -0.259 N 
ATOM     19  H   UNL     1      -1.019   2.506   0.048  0.00  0.00    +0.170 HD
BRANCH  18  27
ATOM     20  C   UNL     1      -1.871  -3.049  -0.109  0.00  0.00    +0.001 A 
ATOM     21  C   UNL     1      -3.229  -3.295  -0.229  0.00  0.00    +0.002 A 
ATOM     22  C   UNL     1      -4.136  -2.251  -0.313  0.00  0.00    +0.024 A 
ATOM     23  C   UNL     1      -3.690  -0.933  -0.279  0.00  0.00    +0.043 A 
ATOM     24  N   UNL     1      -4.361   0.253  -0.343  0.00  0.00    -0.280 N 
ATOM     25  C   UNL     1      -3.530   1.277  -0.273  0.00  0.00    +0.264 C 
ATOM     26  O   UNL     1      -3.837   2.455  -0.305  0.00  0.00    -0.268 OA
ATOM     27  C   UNL     1      -2.137   0.724  -0.146  0.00  0.00    +0.116 C 
ATOM     28  C   UNL     1      -2.298  -0.683  -0.162  0.00  0.00    +0.024 A 
ATOM     29  C   UNL     1      -1.398  -1.752  -0.071  0.00  0.00    +0.012 A 
ATOM     30  H   UNL     1      -5.457   0.260  -0.441  0.00  0.00    +0.155 HD
ENDBRANCH  18  27
ENDBRANCH   1  18
TORSDOF 5
