REMARK  Name = ZINC52788375
REMARK  5 active torsions:
REMARK  status: ('A' for Active; 'I' for Inactive)
REMARK    1  A    between atoms: C_1  and  S_2
REMARK    2  A    between atoms: S_2  and  C_5
REMARK    3  A    between atoms: C_5  and  C_6
REMARK    4  A    between atoms: C_8  and  C_11
REMARK    5  A    between atoms: C_15  and  N_17
REMARK                            x       y       z     vdW  Elec       q    Type
REMARK                         _______ _______ _______ _____ _____    ______ ____
ROOT
ATOM      1  C   UNL     1       0.984  -1.879  -1.702  0.00  0.00    +0.193 A 
ATOM      2  N   UNL     1       1.983  -2.637  -1.246  0.00  0.00    -0.190 NA
ATOM      3  C   UNL     1       1.769  -3.897  -1.555  0.00  0.00    +0.259 A 
ATOM      4  O   UNL     1       0.607  -3.967  -2.228  0.00  0.00    -0.333 OA
ATOM      5  N   UNL     1       0.113  -2.638  -2.305  0.00  0.00    -0.059 NA
ENDROOT
BRANCH   3   6
ATOM      6  C   UNL     1       2.651  -5.035  -1.223  0.00  0.00    +0.041 A 
ATOM      7  C   UNL     1       3.833  -4.821  -0.512  0.00  0.00    +0.015 A 
ATOM      8  C   UNL     1       4.655  -5.885  -0.203  0.00  0.00    +0.022 A 
ATOM      9  C   UNL     1       4.312  -7.166  -0.595  0.00  0.00    +0.062 A 
ATOM     10  C   UNL     1       3.136  -7.390  -1.304  0.00  0.00    +0.044 A 
ATOM     11  C   UNL     1       2.302  -6.328  -1.614  0.00  0.00    +0.037 A 
ATOM     12 CL   UNL     1       5.353  -8.499  -0.203  0.00  0.00    -0.082 Cl
BRANCH  10  13
ATOM     13  N   UNL     1       2.794  -8.686  -1.700  0.00  0.00    -0.357 N 
ATOM     14  H   UNL     1       3.376  -9.430  -1.479  0.00  0.00    +0.142 HD
ATOM     15  H   UNL     1       1.974  -8.842  -2.194  0.00  0.00    +0.142 HD
ENDBRANCH  10  13
ENDBRANCH   3   6
BRANCH   1  16
ATOM     16  C   UNL     1       0.877  -0.385  -1.541  0.00  0.00    +0.245 C 
BRANCH  16  18
ATOM     17  C   UNL     1      -0.022   1.810   0.012  0.00  0.00    +0.194 C 
ATOM     18  S   UNL     1       0.002  -0.004   0.002  0.00  0.00    -0.027 S 
ATOM     19  O   UNL     1       0.798  -0.449   1.092  0.00  0.00    -0.174 OA
ATOM     20  O   UNL     1      -1.335  -0.471  -0.113  0.00  0.00    -0.174 OA
ENDBRANCH  16  18
ENDBRANCH   1  16
TORSDOF 4
