REMARK  Name = ZINC65885552
REMARK  7 active torsions:
REMARK  status: ('A' for Active; 'I' for Inactive)
REMARK    1  A    between atoms: C_1  and  C_2
REMARK    2  A    between atoms: C_2  and  O_3
REMARK    3  A    between atoms: O_3  and  C_4
REMARK    4  A    between atoms: C_4  and  C_6
REMARK    5  A    between atoms: C_6  and  N_11
REMARK    6  A    between atoms: C_12  and  C_14
REMARK    7  A    between atoms: C_19  and  C_24
REMARK                            x       y       z     vdW  Elec       q    Type
REMARK                         _______ _______ _______ _____ _____    ______ ____
ROOT
ATOM      1  N   UNL     1       1.265  -1.475  -3.704  0.00  0.00    -0.295 N 
ATOM      2  C   UNL     1       1.680  -0.194  -3.658  0.00  0.00    +0.261 C 
ATOM      3  O   UNL     1       2.224   0.234  -2.656  0.00  0.00    -0.269 OA
ATOM      4  H   UNL     1       0.831  -1.815  -4.503  0.00  0.00    +0.150 HD
ENDROOT
BRANCH   2   5
ATOM      5  C   UNL     1       1.476   0.688  -4.816  0.00  0.00    +0.103 A 
ATOM      6  C   UNL     1       1.854   1.991  -4.891  0.00  0.00    +0.040 A 
ATOM      7  C   UNL     1       1.477   2.477  -6.167  0.00  0.00    +0.000 A 
ATOM      8  C   UNL     1       1.605   3.721  -6.799  0.00  0.00    +0.010 A 
ATOM      9  C   UNL     1       1.131   3.889  -8.067  0.00  0.00    +0.004 A 
ATOM     10  C   UNL     1       0.521   2.838  -8.740  0.00  0.00    -0.048 A 
ATOM     11  C   UNL     1       0.383   1.607  -8.140  0.00  0.00    +0.029 A 
ATOM     12  C   UNL     1       0.859   1.410  -6.847  0.00  0.00    +0.047 A 
ATOM     13  N   UNL     1       0.874   0.323  -6.005  0.00  0.00    -0.351 N 
ATOM     14  H   UNL     1       0.518  -0.556  -6.211  0.00  0.00    +0.166 HD
ATOM     15  C   UNL     1       0.004   3.048 -10.140  0.00  0.00    +0.044 C 
ENDBRANCH   2   5
BRANCH   1  16
ATOM     16  C   UNL     1       1.468  -2.353  -2.550  0.00  0.00    +0.132 C 
ATOM     17  C   UNL     1       2.979  -2.547  -2.272  0.00  0.00    +0.037 C 
ATOM     18  C   UNL     1       3.380  -3.632  -3.302  0.00  0.00    +0.003 C 
ATOM     19  C   UNL     1       2.171  -4.588  -3.335  0.00  0.00    +0.003 C 
ATOM     20  C   UNL     1       0.955  -3.776  -2.857  0.00  0.00    +0.037 C 
BRANCH  16  21
ATOM     21  C   UNL     1       0.775  -1.794  -1.334  0.00  0.00    +0.331 C 
ATOM     22  O   UNL     1       0.314  -2.540  -0.504  0.00  0.00    -0.248 OA
BRANCH  21  23
ATOM     23  O   UNL     1       0.671  -0.465  -1.174  0.00  0.00    -0.463 OA
BRANCH  23  25
ATOM     24  C   UNL     1      -0.019   1.526   0.010  0.00  0.00    +0.048 C 
ATOM     25  C   UNL     1       0.002  -0.004   0.002  0.00  0.00    +0.229 C 
ENDBRANCH  23  25
ENDBRANCH  21  23
ENDBRANCH  16  21
ENDBRANCH   1  16
TORSDOF 5
