REMARK  Name = ZINC63529097
REMARK  6 active torsions:
REMARK  status: ('A' for Active; 'I' for Inactive)
REMARK    1  A    between atoms: C_1  and  C_2
REMARK    2  A    between atoms: C_6  and  C_7
REMARK    3  A    between atoms: N_9  and  C_10
REMARK    4  A    between atoms: C_10  and  C_11
REMARK    5  A    between atoms: C_11  and  C_12
REMARK    6  A    between atoms: C_12  and  C_13
REMARK                            x       y       z     vdW  Elec       q    Type
REMARK                         _______ _______ _______ _____ _____    ______ ____
ROOT
ATOM      1  C   UNL     1      -0.018   1.503   0.010  0.00  0.00    +0.048 C 
ATOM      2  C   UNL     1       0.002  -0.004   0.002  0.00  0.00    +0.006 A 
ATOM      3  C   UNL     1       0.008  -0.833  -1.120  0.00  0.00    +0.027 A 
ATOM      4  C   UNL     1       0.039  -2.121  -0.690  0.00  0.00    +0.112 A 
ATOM      5  O   UNL     1       0.020  -2.103   0.653  0.00  0.00    -0.454 OA
ATOM      6  C   UNL     1       0.024  -0.828   1.092  0.00  0.00    +0.193 A 
ATOM      7  C   UNL     1       0.112  -3.366  -1.540  0.00  0.00    +0.079 C 
ATOM      8  C   UNL     1      -0.176  -3.047  -3.017  0.00  0.00    +0.042 C 
ATOM      9  C   UNL     1       0.436  -1.708  -3.305  0.00  0.00    -0.019 C 
ATOM     10  C   UNL     1       1.389  -1.289  -4.102  0.00  0.00    +0.136 C 
ATOM     11  N   UNL     1       1.692   0.007  -3.837  0.00  0.00    -0.162 NA
ATOM     12  N   UNL     1       0.979   0.533  -2.969  0.00  0.00    -0.175 NA
ATOM     13  C   UNL     1      -0.026  -0.446  -2.571  0.00  0.00    +0.189 C 
ENDROOT
BRANCH   6  14
ATOM     14  C   UNL     1       0.045  -0.400   2.495  0.00  0.00    +0.280 C 
ATOM     15  O   UNL     1       0.043   0.785   2.770  0.00  0.00    -0.267 OA
ATOM     16  N   UNL     1       0.066  -1.320   3.480  0.00  0.00    -0.309 N 
ATOM     17  H   UNL     1       0.067  -2.265   3.261  0.00  0.00    +0.149 HD
BRANCH  16  18
ATOM     18  C   UNL     1       0.086  -0.893   4.881  0.00  0.00    +0.105 C 
BRANCH  18  19
ATOM     19  C   UNL     1       0.108  -2.124   5.789  0.00  0.00    +0.023 C 
BRANCH  19  20
ATOM     20  C   UNL     1       0.129  -1.677   7.253  0.00  0.00    +0.036 C 
BRANCH  20  21
ATOM     21  C   UNL     1       0.150  -2.890   8.147  0.00  0.00    -0.047 A 
ATOM     22  C   UNL     1      -1.037  -3.455   8.573  0.00  0.00    +0.003 A 
ATOM     23  C   UNL     1      -1.018  -4.567   9.393  0.00  0.00    +0.000 A 
ATOM     24  C   UNL     1       0.188  -5.114   9.789  0.00  0.00    +0.000 A 
ATOM     25  C   UNL     1       1.376  -4.549   9.362  0.00  0.00    +0.000 A 
ATOM     26  C   UNL     1       1.357  -3.440   8.538  0.00  0.00    +0.003 A 
ENDBRANCH  20  21
ENDBRANCH  19  20
ENDBRANCH  18  19
ENDBRANCH  16  18
ENDBRANCH   6  14
TORSDOF 5
