REMARK  Name = ZINC17107289
REMARK  3 active torsions:
REMARK  status: ('A' for Active; 'I' for Inactive)
REMARK    1  A    between atoms: C_1  and  C_2
REMARK    2  A    between atoms: C_2  and  C_16
REMARK    3  A    between atoms: N_3  and  N_4
REMARK                            x       y       z     vdW  Elec       q    Type
REMARK                         _______ _______ _______ _____ _____    ______ ____
ROOT
ATOM      1  N   UNL     1      -0.020  -2.010   3.375  0.00  0.00    -0.258 N 
ATOM      2  C   UNL     1       0.043  -0.691   3.390  0.00  0.00    +0.162 C 
ATOM      3  N   UNL     1      -0.058  -0.013   4.578  0.00  0.00    -0.309 N 
ATOM      4  C   UNL     1      -0.195   1.433   4.630  0.00  0.00    +0.110 C 
ATOM      5  C   UNL     1      -1.435   1.854   5.373  0.00  0.00    +0.006 C 
ATOM      6  C   UNL     1      -2.643   1.019   4.942  0.00  0.00    +0.005 C 
ATOM      7  C   UNL     1      -2.434  -0.450   5.285  0.00  0.00    +0.005 C 
ATOM      8  C   UNL     1      -1.459  -0.633   6.442  0.00  0.00    +0.006 C 
ATOM      9  C   UNL     1      -0.041  -0.715   5.889  0.00  0.00    +0.110 C 
ATOM     10  C   UNL     1      -1.591   0.477   7.468  0.00  0.00    +0.005 C 
ATOM     11  C   UNL     1      -1.323   1.849   6.867  0.00  0.00    +0.005 C 
ATOM     12  S   UNL     1       0.259   0.198   1.884  0.00  0.00    -0.014 SA
ATOM     13  H   UNL     1      -0.220  -2.495   4.191  0.00  0.00    +0.191 HD
ENDROOT
BRANCH   1  16
ATOM     14  C   UNL     1      -0.191  -4.711   3.528  0.00  0.00    +0.070 C 
ATOM     15  C   UNL     1       0.119  -3.957   2.260  0.00  0.00    +0.084 C 
ATOM     16  N   UNL     1       0.182  -2.653   2.275  0.00  0.00    -0.175 NA
BRANCH  15  17
ATOM     17  C   UNL     1       0.350  -4.690   1.007  0.00  0.00    +0.086 A 
ATOM     18  C   UNL     1       0.642  -3.986  -0.166  0.00  0.00    +0.029 A 
ATOM     19  C   UNL     1       0.857  -4.691  -1.335  0.00  0.00    +0.004 A 
ATOM     20  C   UNL     1       0.772  -6.077  -1.301  0.00  0.00    +0.020 A 
ATOM     21  C   UNL     1       0.479  -6.711  -0.107  0.00  0.00    +0.111 A 
ATOM     22  N   UNL     1       0.284  -6.019   0.997  0.00  0.00    -0.254 NA
ENDBRANCH  15  17
ENDBRANCH   1  16
TORSDOF 2
