REMARK  Name = ZINC11756813
REMARK  6 active torsions:
REMARK  status: ('A' for Active; 'I' for Inactive)
REMARK    1  A    between atoms: C_1  and  O_2
REMARK    2  A    between atoms: O_2  and  C_3
REMARK    3  A    between atoms: C_8  and  O_9
REMARK    4  A    between atoms: O_9  and  C_10
REMARK    5  A    between atoms: N_15  and  C_16
REMARK    6  A    between atoms: C_17  and  C_25
REMARK                            x       y       z     vdW  Elec       q    Type
REMARK                         _______ _______ _______ _____ _____    ______ ____
ROOT
ATOM      1  C   UNL     1     -10.154   0.322   3.049  0.00  0.00    +0.162 A 
ATOM      2  C   UNL     1      -8.872   0.456   2.597  0.00  0.00    +0.062 A 
ATOM      3  C   UNL     1      -7.852   0.793   3.495  0.00  0.00    +0.044 A 
ATOM      4  C   UNL     1      -8.155   0.992   4.865  0.00  0.00    +0.081 A 
ATOM      5  C   UNL     1      -9.476   0.849   5.306  0.00  0.00    +0.078 A 
ATOM      6  C   UNL     1     -10.461   0.518   4.402  0.00  0.00    +0.164 A 
ATOM      7  N   UNL     1      -7.158   1.314   5.706  0.00  0.00    -0.217 NA
ATOM      8  C   UNL     1      -5.929   1.440   5.263  0.00  0.00    +0.225 A 
ATOM      9  N   UNL     1      -5.599   1.258   3.993  0.00  0.00    -0.202 NA
ATOM     10  C   UNL     1      -6.508   0.943   3.079  0.00  0.00    +0.136 A 
ATOM     11  N   UNL     1      -6.151   0.762   1.757  0.00  0.00    -0.293 N 
ATOM     12 CL   UNL     1      -4.678   1.857   6.393  0.00  0.00    -0.041 Cl
ATOM     13  H   UNL     1      -6.825   0.527   1.100  0.00  0.00    +0.154 HD
ENDROOT
BRANCH  11  14
ATOM     14  C   UNL     1      -4.830   0.913   1.370  0.00  0.00    +0.083 A 
ATOM     15  C   UNL     1      -4.282   0.774   0.102  0.00  0.00    +0.068 A 
ATOM     16  C   UNL     1      -2.851   0.990  -0.037  0.00  0.00    -0.023 A 
ATOM     17  C   UNL     1      -2.204   1.309   1.104  0.00  0.00    -0.004 A 
ATOM     18  S   UNL     1      -3.462   1.324   2.349  0.00  0.00    -0.077 S 
ATOM     19  C   UNL     1      -0.737   1.584   1.267  0.00  0.00    +0.043 C 
ATOM     20  C   UNL     1      -0.013   1.086   0.008  0.00  0.00    +0.005 C 
ATOM     21  C   UNL     1      -0.759   1.596  -1.228  0.00  0.00    +0.005 C 
ATOM     22  C   UNL     1      -2.102   0.875  -1.359  0.00  0.00    +0.037 C 
BRANCH  15  23
ATOM     23  C   UNL     1      -5.113   0.421  -1.052  0.00  0.00    +0.244 C 
ATOM     24  O   UNL     1      -5.286  -0.748  -1.343  0.00  0.00    -0.270 OA
ATOM     25  N   UNL     1      -5.688   1.391  -1.790  0.00  0.00    -0.325 N 
ATOM     26  H   UNL     1      -5.550   2.323  -1.558  0.00  0.00    +0.145 HD
ATOM     27  H   UNL     1      -6.238   1.158  -2.554  0.00  0.00    +0.145 HD
ENDBRANCH  15  23
ENDBRANCH  11  14
BRANCH   1  29
ATOM     28  C   UNL     1     -10.768  -0.191   0.809  0.00  0.00    +0.277 C 
ATOM     29  O   UNL     1     -11.144  -0.005   2.175  0.00  0.00    -0.491 OA
ENDBRANCH   1  29
BRANCH   6  30
ATOM     30  O   UNL     1     -11.743   0.378   4.828  0.00  0.00    -0.491 OA
ATOM     31  C   UNL     1     -11.992   0.590   6.219  0.00  0.00    +0.277 C 
ENDBRANCH   6  30
TORSDOF 4
