REMARK  Name = ZINC37443440
REMARK  10 active torsions:
REMARK  status: ('A' for Active; 'I' for Inactive)
REMARK    1  A    between atoms: C_1  and  C_2
REMARK    2  A    between atoms: C_7  and  N_12
REMARK    3  A    between atoms: C_9  and  C_11
REMARK    4  A    between atoms: C_13  and  C_15
REMARK    5  A    between atoms: C_15  and  C_38
REMARK    6  A    between atoms: N_27  and  C_28
REMARK    7  A    between atoms: C_31  and  O_36
REMARK    8  A    between atoms: C_32  and  O_34
REMARK    9  A    between atoms: O_34  and  C_35
REMARK   10  A    between atoms: O_36  and  C_37
REMARK                            x       y       z     vdW  Elec       q    Type
REMARK                         _______ _______ _______ _____ _____    ______ ____
ROOT
ATOM      1  C   UNL     1       1.269  -0.260   5.647  0.00  0.00    +0.133 C 
ATOM      2  C   UNL     1       1.309   0.792   6.755  0.00  0.00    +0.158 C 
ATOM      3  N   UNL     1       2.521   1.604   6.604  0.00  0.00    -0.331 N 
ATOM      4  C   UNL     1       2.753   2.902   6.947  0.00  0.00    +0.088 A 
ATOM      5  C   UNL     1       2.210   4.084   7.504  0.00  0.00    +0.067 A 
ATOM      6  C   UNL     1       3.180   5.014   7.493  0.00  0.00    +0.198 A 
ATOM      7  O   UNL     1       4.298   4.488   6.963  0.00  0.00    -0.461 OA
ATOM      8  C   UNL     1       4.074   3.203   6.616  0.00  0.00    +0.153 A 
ATOM      9  C   UNL     1       4.644   2.051   6.051  0.00  0.00    +0.079 A 
ATOM     10  C   UNL     1       3.684   1.083   6.043  0.00  0.00    +0.109 A 
ATOM     11  C   UNL     1       3.726  -0.299   5.549  0.00  0.00    +0.268 C 
ATOM     12  O   UNL     1       4.770  -0.829   5.215  0.00  0.00    -0.268 OA
ATOM     13  N   UNL     1       2.542  -0.952   5.484  0.00  0.00    -0.250 N 
ATOM     14  C   UNL     1       0.187  -1.288   5.983  0.00  0.00    +0.044 C 
ENDROOT
BRANCH  13  15
ATOM     15  C   UNL     1       2.540  -2.333   5.255  0.00  0.00    +0.041 A 
ATOM     16  C   UNL     1       2.814  -2.827   3.986  0.00  0.00    +0.027 A 
ATOM     17  C   UNL     1       2.813  -4.190   3.759  0.00  0.00    +0.051 A 
ATOM     18  C   UNL     1       2.538  -5.067   4.795  0.00  0.00    +0.162 A 
ATOM     19  C   UNL     1       2.264  -4.576   6.068  0.00  0.00    +0.163 A 
ATOM     20  C   UNL     1       2.270  -3.210   6.298  0.00  0.00    +0.073 A 
BRANCH  19  21
ATOM     21  O   UNL     1       1.994  -5.436   7.086  0.00  0.00    -0.491 OA
ATOM     22  C   UNL     1       1.721  -4.861   8.366  0.00  0.00    +0.277 C 
ENDBRANCH  19  21
BRANCH  18  23
ATOM     23  O   UNL     1       2.537  -6.409   4.569  0.00  0.00    -0.491 OA
ATOM     24  C   UNL     1       2.826  -6.843   3.239  0.00  0.00    +0.277 C 
ENDBRANCH  18  23
ENDBRANCH  13  15
BRANCH   1  26
ATOM     25  N   UNL     1       1.233  -0.169   3.175  0.00  0.00    -0.310 N 
ATOM     26  C   UNL     1       0.912   0.414   4.347  0.00  0.00    +0.239 C 
ATOM     27  O   UNL     1       0.337   1.482   4.356  0.00  0.00    -0.273 OA
ATOM     28  H   UNL     1       1.693  -1.023   3.168  0.00  0.00    +0.149 HD
BRANCH  25  34
ATOM     29  C   UNL     1       1.599   2.215  -0.344  0.00  0.00    +0.008 C 
ATOM     30  C   UNL     1       1.477   0.698  -0.506  0.00  0.00    -0.009 C 
ATOM     31  C   UNL     1       0.040   0.340  -0.889  0.00  0.00    +0.003 C 
ATOM     32  C   UNL     1      -0.913   0.813   0.210  0.00  0.00    +0.002 C 
ATOM     33  C   UNL     1      -0.551   0.129   1.529  0.00  0.00    +0.022 C 
ATOM     34  C   UNL     1       0.886   0.487   1.912  0.00  0.00    +0.076 C 
ATOM     35  C   UNL     1       1.840   0.013   0.813  0.00  0.00    +0.009 C 
ATOM     36  C   UNL     1       3.277   0.372   1.196  0.00  0.00    +0.009 C 
ENDBRANCH  25  34
ENDBRANCH   1  26
TORSDOF 5
