REMARK  Name = ZINC40881297
REMARK  7 active torsions:
REMARK  status: ('A' for Active; 'I' for Inactive)
REMARK    1  A    between atoms: C_1  and  C_2
REMARK    2  A    between atoms: C_7  and  O_8
REMARK    3  A    between atoms: O_8  and  C_9
REMARK    4  A    between atoms: C_10  and  C_17
REMARK    5  A    between atoms: C_11  and  C_16
REMARK    6  A    between atoms: C_13  and  C_15
REMARK    7  A    between atoms: C_17  and  O_18
REMARK                            x       y       z     vdW  Elec       q    Type
REMARK                         _______ _______ _______ _____ _____    ______ ____
ROOT
ATOM      1  C   UNL     1      -0.059  -0.758   3.525  0.00  0.00    +0.226 A 
ATOM      2  C   UNL     1      -0.170  -0.104   4.746  0.00  0.00    +0.043 A 
ATOM      3  C   UNL     1      -0.255  -0.855   5.906  0.00  0.00    -0.038 A 
ATOM      4  C   UNL     1      -0.225  -2.239   5.802  0.00  0.00    +0.027 A 
ATOM      5  C   UNL     1      -0.112  -2.821   4.556  0.00  0.00    +0.042 A 
ATOM      6  N   UNL     1      -0.039  -2.079   3.467  0.00  0.00    -0.218 NA
ATOM      7  C   UNL     1      -0.078  -4.323   4.436  0.00  0.00    +0.066 C 
ATOM      8  C   UNL     1      -0.376  -0.185   7.250  0.00  0.00    +0.044 C 
ENDROOT
BRANCH   1   9
ATOM      9  O   UNL     1       0.025  -0.033   2.381  0.00  0.00    -0.437 OA
BRANCH   9  16
ATOM     10  C   UNL     1       2.523  -0.949   1.431  0.00  0.00    +0.047 C 
ATOM     11  C   UNL     1       1.235  -1.179   0.683  0.00  0.00    -0.008 A 
ATOM     12  C   UNL     1       1.245  -1.867  -0.515  0.00  0.00    +0.007 A 
ATOM     13  C   UNL     1       0.064  -2.079  -1.202  0.00  0.00    +0.000 A 
ATOM     14  C   UNL     1      -1.130  -1.602  -0.692  0.00  0.00    +0.004 A 
ATOM     15  C   UNL     1      -1.145  -0.914   0.506  0.00  0.00    +0.046 A 
ATOM     16  C   UNL     1       0.038  -0.706   1.200  0.00  0.00    +0.133 A 
ENDBRANCH   9  16
ENDBRANCH   1   9
BRANCH   2  17
ATOM     17  C   UNL     1      -0.198   1.401   4.807  0.00  0.00    +0.196 C 
BRANCH  17  18
ATOM     18  O   UNL     1      -1.549   1.857   4.715  0.00  0.00    -0.390 OA
ATOM     19  H   UNL     1      -1.643   2.818   4.747  0.00  0.00    +0.210 HD
ENDBRANCH  17  18
ENDBRANCH   2  17
TORSDOF 4
