REMARK  Name = ZINC45331325
REMARK  9 active torsions:
REMARK  status: ('A' for Active; 'I' for Inactive)
REMARK    1  A    between atoms: C_1  and  C_2
REMARK    2  A    between atoms: C_2  and  C_3
REMARK    3  A    between atoms: C_3  and  N_4
REMARK    4  A    between atoms: N_4  and  C_5
REMARK    5  A    between atoms: C_5  and  C_7
REMARK    6  A    between atoms: C_5  and  C_19
REMARK    7  A    between atoms: C_7  and  O_8
REMARK    8  A    between atoms: O_8  and  C_9
REMARK    9  A    between atoms: C_14  and  N_15
REMARK                            x       y       z     vdW  Elec       q    Type
REMARK                         _______ _______ _______ _____ _____    ______ ____
ROOT
ATOM      1  O   UNL     1       0.890  -4.777  -1.944  0.00  0.00    -0.487 OA
ENDROOT
BRANCH   1   2
ATOM      2  C   UNL     1       1.212  -6.070  -1.673  0.00  0.00    +0.153 A 
ATOM      3  C   UNL     1       2.542  -6.459  -1.627  0.00  0.00    +0.086 A 
ATOM      4  C   UNL     1       2.867  -7.776  -1.352  0.00  0.00    +0.127 A 
ATOM      5  C   UNL     1       1.864  -8.703  -1.123  0.00  0.00    +0.041 A 
ATOM      6  C   UNL     1       0.538  -8.315  -1.168  0.00  0.00    +0.039 A 
ATOM      7  C   UNL     1       0.210  -7.000  -1.438  0.00  0.00    +0.168 A 
ATOM      8  F   UNL     1       4.162  -8.157  -1.307  0.00  0.00    -0.205 F 
BRANCH   7   9
ATOM      9  N   UNL     1      -1.210  -6.585  -1.480  0.00  0.00    +0.060 N 
ATOM     10  O   UNL     1      -2.083  -7.396  -1.274  0.00  0.00    -0.126 OA
ATOM     11  O   UNL     1      -1.497  -5.436  -1.720  0.00  0.00    -0.126 OA
ENDBRANCH   7   9
ENDBRANCH   1   2
BRANCH   1  12
ATOM     12  C   UNL     1       1.973  -3.874  -2.176  0.00  0.00    +0.263 C 
BRANCH  12  13
ATOM     13  C   UNL     1       1.420  -2.477  -2.462  0.00  0.00    +0.195 C 
BRANCH  13  14
ATOM     14  N   UNL     1       0.738  -1.966  -1.265  0.00  0.00    -0.299 NA
ATOM     15  H   UNL     1       1.165  -2.327  -0.424  0.00  0.00    +0.123 HD
BRANCH  14  16
ATOM     16  C   UNL     1       0.718  -0.497  -1.257  0.00  0.00    +0.082 C 
BRANCH  16  18
ATOM     17  C   UNL     1      -0.019   1.526   0.010  0.00  0.00    +0.005 C 
ATOM     18  C   UNL     1       0.002  -0.004   0.002  0.00  0.00    +0.012 C 
ENDBRANCH  16  18
ENDBRANCH  14  16
ENDBRANCH  13  14
BRANCH  13  19
ATOM     19  C   UNL     1       0.463  -2.547  -3.579  0.00  0.00    +0.085 C 
ATOM     20  N   UNL     1      -0.275  -2.601  -4.441  0.00  0.00    -0.195 NA
ENDBRANCH  13  19
ENDBRANCH  12  13
ENDBRANCH   1  12
TORSDOF 8
