REMARK  Name = ZINC22763157
REMARK  4 active torsions:
REMARK  status: ('A' for Active; 'I' for Inactive)
REMARK    1  A    between atoms: C_2  and  C_3
REMARK    2  A    between atoms: C_3  and  N_4
REMARK    3  A    between atoms: C_5  and  C_7
REMARK    4  A    between atoms: C_7  and  N_8
REMARK                            x       y       z     vdW  Elec       q    Type
REMARK                         _______ _______ _______ _____ _____    ______ ____
ROOT
ATOM      1  N   UNL     1       1.069  -2.183  -0.020  0.00  0.00    -0.291 N 
ATOM      2  C   UNL     1       0.943  -2.845  -1.212  0.00  0.00    +0.111 A 
ATOM      3  C   UNL     1       0.715  -4.177  -1.216  0.00  0.00    +0.098 A 
ATOM      4  C   UNL     1       0.610  -4.862   0.019  0.00  0.00    +0.268 A 
ATOM      5  O   UNL     1       0.405  -6.062   0.041  0.00  0.00    -0.267 OA
ATOM      6  N   UNL     1       0.741  -4.173   1.171  0.00  0.00    -0.274 N 
ATOM      7  H   UNL     1       0.657  -4.694   2.136  0.00  0.00    +0.173 HD
ATOM      8  C   UNL     1       0.973  -2.848   1.146  0.00  0.00    +0.330 A 
ATOM      9  O   UNL     1       1.093  -2.241   2.193  0.00  0.00    -0.246 OA
ATOM     10 BR   UNL     1       0.536  -5.113  -2.849  0.00  0.00    -0.043 Br
ENDROOT
BRANCH   1  11
ATOM     11  C   UNL     1       1.317  -0.740  -0.015  0.00  0.00    +0.222 C 
BRANCH  11  13
ATOM     12  N   UNL     1      -0.016   1.344   0.009  0.00  0.00    -0.303 N 
ATOM     13  C   UNL     1       0.002  -0.004   0.002  0.00  0.00    +0.234 C 
ATOM     14  O   UNL     1      -1.040  -0.625   0.009  0.00  0.00    -0.274 OA
ATOM     15  H   UNL     1       0.929   1.907   0.008  0.00  0.00    +0.150 HD
BRANCH  12  16
ATOM     16  C   UNL     1      -1.295   2.059   0.019  0.00  0.00    +0.193 C 
BRANCH  16  18
ATOM     17  C   UNL     1      -0.847   4.667   0.031  0.00  0.00    +0.005 C 
ATOM     18  C   UNL     1      -1.045   3.509   0.026  0.00  0.00    -0.087 C 
ENDBRANCH  16  18
ENDBRANCH  12  16
ENDBRANCH  11  13
ENDBRANCH   1  11
TORSDOF 4
