REMARK  Name = ZINC12021419
REMARK  6 active torsions:
REMARK  status: ('A' for Active; 'I' for Inactive)
REMARK    1  A    between atoms: C_4  and  N_7
REMARK    2  A    between atoms: N_7  and  C_8
REMARK    3  A    between atoms: C_8  and  C_9
REMARK    4  A    between atoms: C_9  and  O_10
REMARK    5  A    between atoms: C_11  and  C_13
REMARK    6  A    between atoms: C_18  and  N_19
REMARK                            x       y       z     vdW  Elec       q    Type
REMARK                         _______ _______ _______ _____ _____    ______ ____
ROOT
ATOM      1  N   UNL     1       3.434  -0.608   0.069  0.00  0.00    -0.265 N 
ATOM      2  C   UNL     1       4.617   0.037   0.055  0.00  0.00    +0.253 C 
ATOM      3  O   UNL     1       4.647   1.253   0.038  0.00  0.00    -0.270 OA
ENDROOT
BRANCH   1   7
ATOM      4  C   UNL     1      -0.120   1.554  -0.149  0.00  0.00    +0.000 A 
ATOM      5  C   UNL     1       1.086   2.219  -0.021  0.00  0.00    +0.002 A 
ATOM      6  C   UNL     1       2.266   1.505   0.052  0.00  0.00    +0.023 A 
ATOM      7  C   UNL     1       2.241   0.118  -0.004  0.00  0.00    +0.037 A 
ATOM      8  C   UNL     1       1.029  -0.547  -0.132  0.00  0.00    +0.023 A 
ATOM      9  C   UNL     1      -0.148   0.172  -0.205  0.00  0.00    +0.002 A 
ENDBRANCH   1   7
BRANCH   2  10
ATOM     10  C   UNL     1       5.879  -0.732   0.059  0.00  0.00    +0.067 A 
ATOM     11  C   UNL     1       6.192  -1.560   1.139  0.00  0.00    +0.015 A 
ATOM     12  C   UNL     1       7.371  -2.276   1.137  0.00  0.00    +0.001 A 
ATOM     13  C   UNL     1       8.243  -2.175   0.068  0.00  0.00    +0.002 A 
ATOM     14  C   UNL     1       7.939  -1.357  -1.006  0.00  0.00    +0.033 A 
ATOM     15  C   UNL     1       6.761  -0.639  -1.019  0.00  0.00    +0.138 A 
BRANCH  15  16
ATOM     16  N   UNL     1       6.435   0.231  -2.171  0.00  0.00    +0.057 N 
ATOM     17  O   UNL     1       7.161   0.252  -3.137  0.00  0.00    -0.126 OA
ATOM     18  O   UNL     1       5.443   0.921  -2.145  0.00  0.00    -0.126 OA
ENDBRANCH  15  16
ENDBRANCH   2  10
BRANCH   1  19
ATOM     19  C   UNL     1       3.398  -2.070   0.162  0.00  0.00    +0.141 C 
BRANCH  19  20
ATOM     20  C   UNL     1       3.371  -2.669  -1.246  0.00  0.00    +0.175 C 
BRANCH  20  21
ATOM     21  O   UNL     1       4.594  -2.363  -1.918  0.00  0.00    -0.393 OA
ATOM     22  H   UNL     1       4.646  -2.713  -2.818  0.00  0.00    +0.209 HD
ENDBRANCH  20  21
ENDBRANCH  19  20
ENDBRANCH   1  19
TORSDOF 6
