REMARK  Name = ZINC12487637
REMARK  12 active torsions:
REMARK  status: ('A' for Active; 'I' for Inactive)
REMARK    1  A    between atoms: C_1  and  C_2
REMARK    2  A    between atoms: C_4  and  C_39
REMARK    3  A    between atoms: C_5  and  N_9
REMARK    4  A    between atoms: C_6  and  C_8
REMARK    5  A    between atoms: N_9  and  C_10
REMARK    6  A    between atoms: C_10  and  C_12
REMARK    7  A    between atoms: C_10  and  C_19
REMARK    8  A    between atoms: N_21  and  C_22
REMARK    9  A    between atoms: C_22  and  C_23
REMARK   10  A    between atoms: C_28  and  C_30
REMARK   11  A    between atoms: C_30  and  N_31
REMARK   12  A    between atoms: C_32  and  C_34
REMARK                            x       y       z     vdW  Elec       q    Type
REMARK                         _______ _______ _______ _____ _____    ______ ____
ROOT
ATOM      1  N   UNL     1      -0.371   1.184  -4.907  0.00  0.00    -0.253 N 
ATOM      2  C   UNL     1       0.102   2.136  -5.736  0.00  0.00    +0.238 C 
ATOM      3  O   UNL     1       0.000   3.307  -5.437  0.00  0.00    -0.274 OA
ENDROOT
BRANCH   1   8
ATOM      4  C   UNL     1      -0.247  -4.265  -6.481  0.00  0.00    +0.044 C 
ATOM      5  C   UNL     1      -0.280  -2.817  -6.063  0.00  0.00    -0.050 A 
ATOM      6  C   UNL     1      -1.346  -2.017  -6.431  0.00  0.00    +0.008 A 
ATOM      7  C   UNL     1      -1.379  -0.690  -6.050  0.00  0.00    -0.029 A 
ATOM      8  C   UNL     1      -0.340  -0.160  -5.295  0.00  0.00    +0.043 A 
ATOM      9  C   UNL     1       0.732  -0.965  -4.932  0.00  0.00    -0.029 A 
ATOM     10  C   UNL     1       0.756  -2.292  -5.312  0.00  0.00    +0.008 A 
ATOM     11  C   UNL     1       1.864  -0.392  -4.119  0.00  0.00    +0.046 C 
ATOM     12  C   UNL     1      -2.541   0.181  -6.451  0.00  0.00    +0.046 C 
ENDBRANCH   1   8
BRANCH   1  13
ATOM     13  C   UNL     1      -0.917   1.557  -3.600  0.00  0.00    +0.200 C 
BRANCH  13  14
ATOM     14  C   UNL     1       0.183   2.125  -2.740  0.00  0.00    +0.017 A 
ATOM     15  C   UNL     1       1.319   2.650  -3.327  0.00  0.00    +0.009 A 
ATOM     16  C   UNL     1       2.327   3.171  -2.539  0.00  0.00    +0.001 A 
ATOM     17  C   UNL     1       2.200   3.169  -1.162  0.00  0.00    +0.003 A 
ATOM     18  C   UNL     1       1.066   2.645  -0.573  0.00  0.00    +0.039 A 
ATOM     19  C   UNL     1       0.053   2.127  -1.362  0.00  0.00    +0.129 A 
ATOM     20  F   UNL     1      -1.060   1.620  -0.787  0.00  0.00    -0.205 F 
ENDBRANCH  13  14
BRANCH  13  21
ATOM     21  C   UNL     1      -1.997   2.592  -3.783  0.00  0.00    +0.239 C 
ATOM     22  O   UNL     1      -2.241   3.024  -4.890  0.00  0.00    -0.273 OA
ATOM     23  N   UNL     1      -2.691   3.037  -2.717  0.00  0.00    -0.306 N 
ATOM     24  H   UNL     1      -2.496   2.691  -1.833  0.00  0.00    +0.149 HD
BRANCH  23  25
ATOM     25  C   UNL     1      -3.741   4.043  -2.896  0.00  0.00    +0.178 C 
BRANCH  25  26
ATOM     26  C   UNL     1      -4.359   4.366  -1.560  0.00  0.00    +0.122 A 
ATOM     27  C   UNL     1      -3.947   5.328  -0.714  0.00  0.00    +0.046 A 
ATOM     28  C   UNL     1      -4.804   5.281   0.409  0.00  0.00    +0.041 A 
ATOM     29  C   UNL     1      -5.689   4.294   0.183  0.00  0.00    +0.195 A 
ATOM     30  O   UNL     1      -5.418   3.747  -1.014  0.00  0.00    -0.466 OA
ENDBRANCH  25  26
ENDBRANCH  23  25
ENDBRANCH  13  21
ENDBRANCH   1  13
BRANCH   2  31
ATOM     31  C   UNL     1       0.758   1.745  -7.036  0.00  0.00    +0.201 C 
BRANCH  31  32
ATOM     32  N   UNL     1       1.183   2.951  -7.750  0.00  0.00    -0.300 N 
ATOM     33  C   UNL     1       1.797   2.846  -8.945  0.00  0.00    +0.280 C 
ATOM     34  O   UNL     1       1.999   1.748  -9.431  0.00  0.00    -0.267 OA
ATOM     35  H   UNL     1       1.022   3.826  -7.363  0.00  0.00    +0.150 HD
BRANCH  33  36
ATOM     36  C   UNL     1       2.223   4.053  -9.660  0.00  0.00    +0.189 A 
ATOM     37  C   UNL     1       2.852   4.088 -10.872  0.00  0.00    +0.054 A 
ATOM     38  C   UNL     1       3.070   5.442 -11.174  0.00  0.00    +0.042 A 
ATOM     39  C   UNL     1       2.570   6.164 -10.147  0.00  0.00    +0.196 A 
ATOM     40  O   UNL     1       2.056   5.324  -9.240  0.00  0.00    -0.458 OA
ENDBRANCH  33  36
ENDBRANCH  31  32
ENDBRANCH   2  31
TORSDOF 9
