REMARK  Name = ZINC62843414
REMARK  4 active torsions:
REMARK  status: ('A' for Active; 'I' for Inactive)
REMARK    1  A    between atoms: C_1  and  C_2
REMARK    2  A    between atoms: C_2  and  C_20
REMARK    3  A    between atoms: N_10  and  C_11
REMARK    4  A    between atoms: C_17  and  N_19
REMARK                            x       y       z     vdW  Elec       q    Type
REMARK                         _______ _______ _______ _____ _____    ______ ____
ROOT
ATOM      1  C   UNL     1       0.116   1.061  -0.217  0.00  0.00    +0.023 C 
ATOM      2  C   UNL     1      -0.538   1.857   0.914  0.00  0.00    +0.072 C 
ATOM      3  C   UNL     1       0.152   1.523   2.238  0.00  0.00    +0.037 C 
ATOM      4  C   UNL     1       0.041   0.018   2.502  0.00  0.00    +0.110 C 
ATOM      5  N   UNL     1      -1.376  -0.368   2.445  0.00  0.00    -0.286 N 
ATOM      6  C   UNL     1      -2.158  -0.014   1.253  0.00  0.00    +0.110 C 
ATOM      7  C   UNL     1      -2.021   1.491   1.003  0.00  0.00    +0.037 C 
ATOM      8  C   UNL     1      -1.947  -1.035   3.468  0.00  0.00    +0.302 C 
ATOM      9  O   UNL     1      -3.141  -1.266   3.452  0.00  0.00    -0.253 OA
ATOM     10  N   UNL     1      -1.195  -1.447   4.508  0.00  0.00    -0.298 N 
ATOM     11  H   UNL     1      -0.258  -1.201   4.556  0.00  0.00    +0.150 HD
ENDROOT
BRANCH  10  12
ATOM     12  C   UNL     1      -1.793  -2.265   5.566  0.00  0.00    +0.060 C 
ATOM     13  C   UNL     1      -2.462  -1.355   6.598  0.00  0.00    +0.021 C 
ATOM     14  C   UNL     1      -3.087  -2.210   7.703  0.00  0.00    +0.002 C 
ATOM     15  C   UNL     1      -1.996  -3.039   8.384  0.00  0.00    -0.001 C 
ATOM     16  C   UNL     1      -1.327  -3.949   7.351  0.00  0.00    -0.014 C 
ATOM     17  C   UNL     1      -0.703  -3.094   6.247  0.00  0.00    -0.054 C 
BRANCH  17  18
ATOM     18  N   UNL     1      -0.061  -3.968   5.256  0.00  0.00    +0.381 N 
ATOM     19  H   UNL     1       0.351  -3.404   4.527  0.00  0.00    -0.090 HD
ATOM     20  H   UNL     1       0.658  -4.515   5.705  0.00  0.00    -0.090 HD
ATOM     21  H   UNL     1      -0.751  -4.585   4.854  0.00  0.00    -0.090 HD
ENDBRANCH  17  18
ENDBRANCH  10  12
BRANCH   2  22
ATOM     22  C   UNL     1      -0.401   3.332   0.635  0.00  0.00    +0.362 C 
ATOM     23  O   UNL     1       0.168   3.711  -0.375  0.00  0.00    -0.246 OA
ATOM     24  O   UNL     1      -0.858   4.146   1.419  0.00  0.00    -0.246 OA
ENDBRANCH   2  22
TORSDOF 3
