REMARK  Name = ZINC10220076
REMARK  7 active torsions:
REMARK  status: ('A' for Active; 'I' for Inactive)
REMARK    1  A    between atoms: C_3  and  N_8
REMARK    2  A    between atoms: C_12  and  S_14
REMARK    3  A    between atoms: S_14  and  C_15
REMARK    4  A    between atoms: C_15  and  C_16
REMARK    5  A    between atoms: C_16  and  C_18
REMARK    6  A    between atoms: C_19  and  N_30
REMARK    7  A    between atoms: N_20  and  C_27
REMARK                            x       y       z     vdW  Elec       q    Type
REMARK                         _______ _______ _______ _____ _____    ______ ____
ROOT
ATOM      1  C   UNL     1       5.911   4.104   1.414  0.00  0.00    +0.182 C 
ATOM      2  O   UNL     1       5.410   5.206   1.517  0.00  0.00    -0.291 OA
ENDROOT
BRANCH   1   3
ATOM      3  C   UNL     1       7.315   3.967   1.397  0.00  0.00    +0.120 A 
ATOM      4  C   UNL     1       8.155   5.072   1.621  0.00  0.00    +0.116 A 
ATOM      5  N   UNL     1       9.508   4.888   1.600  0.00  0.00    -0.278 N 
ATOM      6  C   UNL     1      10.044   3.681   1.359  0.00  0.00    +0.331 A 
ATOM      7  O   UNL     1      11.255   3.571   1.347  0.00  0.00    -0.246 OA
ATOM      8  N   UNL     1       9.293   2.591   1.133  0.00  0.00    -0.274 N 
ATOM      9  H   UNL     1       9.738   1.713   0.958  0.00  0.00    +0.173 HD
ATOM     10  C   UNL     1       7.946   2.666   1.138  0.00  0.00    +0.266 A 
ATOM     11  O   UNL     1       7.268   1.677   0.933  0.00  0.00    -0.267 OA
BRANCH   5  12
ATOM     12  C   UNL     1      10.392   6.032   1.839  0.00  0.00    +0.094 C 
ATOM     13  C   UNL     1      11.548   5.838   2.822  0.00  0.00    +0.027 C 
ATOM     14  C   UNL     1      10.339   6.689   3.219  0.00  0.00    +0.027 C 
ENDBRANCH   5  12
BRANCH   4  15
ATOM     15  N   UNL     1       7.628   6.303   1.861  0.00  0.00    -0.344 N 
ATOM     16  H   UNL     1       6.674   6.449   1.767  0.00  0.00    +0.144 HD
ATOM     17  H   UNL     1       8.207   7.035   2.125  0.00  0.00    +0.144 HD
ENDBRANCH   4  15
ENDBRANCH   1   3
BRANCH   1  18
ATOM     18  C   UNL     1       5.033   2.884   1.305  0.00  0.00    +0.156 C 
BRANCH  18  19
ATOM     19  S   UNL     1       3.291   3.387   1.357  0.00  0.00    -0.089 S 
BRANCH  19  24
ATOM     20  N   UNL     1      -0.361  -1.099   0.958  0.00  0.00    -0.292 N 
ATOM     21  C   UNL     1       0.690  -0.193   1.037  0.00  0.00    +0.187 A 
ATOM     22  N   UNL     1       1.990  -0.416   1.012  0.00  0.00    -0.125 NA
ATOM     23  N   UNL     1       2.868   0.639   1.106  0.00  0.00    -0.133 NA
ATOM     24  C   UNL     1       2.405   1.869   1.221  0.00  0.00    +0.160 A 
ATOM     25  S   UNL     1       0.642   1.585   1.201  0.00  0.00    -0.024 S 
ATOM     26  H   UNL     1      -1.277  -0.787   1.030  0.00  0.00    +0.154 HD
BRANCH  20  29
ATOM     27  C   UNL     1       1.370  -4.342   1.010  0.00  0.00    +0.005 A 
ATOM     28  C   UNL     1       1.112  -2.997   1.192  0.00  0.00    +0.023 A 
ATOM     29  C   UNL     1      -0.099  -2.459   0.775  0.00  0.00    +0.036 A 
ATOM     30  C   UNL     1      -1.051  -3.278   0.180  0.00  0.00    +0.061 A 
ATOM     31  C   UNL     1      -0.786  -4.622  -0.004  0.00  0.00    +0.125 A 
ATOM     32  C   UNL     1       0.423  -5.154   0.414  0.00  0.00    +0.038 A 
ATOM     33  F   UNL     1      -1.708  -5.419  -0.586  0.00  0.00    -0.205 F 
ENDBRANCH  20  29
ENDBRANCH  19  24
ENDBRANCH  18  19
ENDBRANCH   1  18
TORSDOF 7
