REMARK  Name = ZINC52003568
REMARK  6 active torsions:
REMARK  status: ('A' for Active; 'I' for Inactive)
REMARK    1  A    between atoms: C_3  and  N_21
REMARK    2  A    between atoms: C_6  and  C_7
REMARK    3  A    between atoms: C_7  and  S_8
REMARK    4  A    between atoms: S_8  and  N_11
REMARK    5  A    between atoms: N_11  and  C_12
REMARK    6  A    between atoms: C_18  and  O_20
REMARK                            x       y       z     vdW  Elec       q    Type
REMARK                         _______ _______ _______ _____ _____    ______ ____
ROOT
ATOM      1  S   UNL     1      -1.828  -1.075  -1.697  0.00  0.00    +0.034 S 
ATOM      2  O   UNL     1      -2.197   0.149  -2.317  0.00  0.00    -0.158 OA
ATOM      3  O   UNL     1      -0.933  -1.972  -2.340  0.00  0.00    -0.158 OA
ENDROOT
BRANCH   1   4
ATOM      4  N   UNL     1      -3.245  -1.921  -1.556  0.00  0.00    -0.189 NA
ATOM      5  H   UNL     1      -3.298  -2.835  -1.875  0.00  0.00    +0.148 HD
BRANCH   4   6
ATOM      6  C   UNL     1      -4.418  -1.288  -0.948  0.00  0.00    +0.105 C 
ATOM      7  C   UNL     1      -4.481  -1.649   0.538  0.00  0.00    +0.023 C 
ATOM      8  C   UNL     1      -4.584  -3.167   0.690  0.00  0.00    +0.002 C 
ATOM      9  C   UNL     1      -5.851  -3.665  -0.009  0.00  0.00    +0.003 C 
ATOM     10  C   UNL     1      -5.789  -3.304  -1.495  0.00  0.00    +0.033 C 
ATOM     11  C   UNL     1      -5.686  -1.785  -1.647  0.00  0.00    +0.133 C 
BRANCH  11  12
ATOM     12  O   UNL     1      -5.628  -1.448  -3.034  0.00  0.00    -0.390 OA
ATOM     13  H   UNL     1      -6.400  -1.734  -3.541  0.00  0.00    +0.210 HD
ENDBRANCH  11  12
ENDBRANCH   4   6
ENDBRANCH   1   4
BRANCH   1  14
ATOM     14  C   UNL     1      -1.293  -0.775   0.010  0.00  0.00    +0.220 C 
BRANCH  14  20
ATOM     15  C   UNL     1      -0.017   1.378   0.010  0.00  0.00    +0.007 A 
ATOM     16  C   UNL     1       1.171   2.086   0.002  0.00  0.00    +0.033 A 
ATOM     17  C   UNL     1       2.377   1.411  -0.013  0.00  0.00    +0.126 A 
ATOM     18  C   UNL     1       2.396   0.029  -0.020  0.00  0.00    +0.033 A 
ATOM     19  C   UNL     1       1.208  -0.679  -0.012  0.00  0.00    +0.007 A 
ATOM     20  C   UNL     1       0.002  -0.004   0.002  0.00  0.00    -0.025 A 
BRANCH  17  21
ATOM     21  N   UNL     1       3.649   2.168  -0.022  0.00  0.00    +0.056 N 
ATOM     22  O   UNL     1       3.633   3.377  -0.016  0.00  0.00    -0.126 OA
ATOM     23  O   UNL     1       4.704   1.578  -0.035  0.00  0.00    -0.126 OA
ENDBRANCH  17  21
ENDBRANCH  14  20
ENDBRANCH   1  14
TORSDOF 6
