REMARK  Name = ZINC03426141
REMARK  13 active torsions:
REMARK  status: ('A' for Active; 'I' for Inactive)
REMARK    1  A    between atoms: C_1  and  C_2
REMARK    2  A    between atoms: C_3  and  C_30
REMARK    3  A    between atoms: C_4  and  C_29
REMARK    4  A    between atoms: C_7  and  C_8
REMARK    5  A    between atoms: C_8  and  C_10
REMARK    6  A    between atoms: C_10  and  O_11
REMARK    7  A    between atoms: O_11  and  C_12
REMARK    8  A    between atoms: C_12  and  C_14
REMARK    9  A    between atoms: N_19  and  C_21
REMARK   10  A    between atoms: C_26  and  O_27
REMARK   11  A    between atoms: O_27  and  C_28
REMARK   12  A    between atoms: C_30  and  O_32
REMARK   13  A    between atoms: O_32  and  C_33
REMARK                            x       y       z     vdW  Elec       q    Type
REMARK                         _______ _______ _______ _____ _____    ______ ____
ROOT
ATOM      1  O   UNL     1       0.283   4.003   7.257  0.00  0.00    -0.456 OA
ENDROOT
BRANCH   1   2
ATOM      2  C   UNL     1      -0.410   3.046   6.619  0.00  0.00    +0.313 C 
ATOM      3  O   UNL     1      -0.970   2.182   7.252  0.00  0.00    -0.250 OA
BRANCH   2   4
ATOM      4  C   UNL     1      -0.492   3.051   5.114  0.00  0.00    +0.124 C 
ATOM      5  C   UNL     1      -1.309   4.262   4.608  0.00  0.00    +0.112 C 
ATOM      6  C   UNL     1      -2.071   3.721   3.418  0.00  0.00    +0.221 C 
ATOM      7  O   UNL     1      -2.606   4.402   2.568  0.00  0.00    -0.275 OA
ATOM      8  N   UNL     1      -2.071   2.377   3.440  0.00  0.00    -0.267 N 
ATOM      9  C   UNL     1      -1.338   1.864   4.603  0.00  0.00    +0.129 C 
BRANCH   8  10
ATOM     10  C   UNL     1      -2.687   1.571   2.474  0.00  0.00    +0.078 A 
ATOM     11  C   UNL     1      -4.008   1.180   2.634  0.00  0.00    +0.027 A 
ATOM     12  C   UNL     1      -4.612   0.379   1.683  0.00  0.00    +0.002 A 
ATOM     13  C   UNL     1      -3.904  -0.029   0.568  0.00  0.00    +0.004 A 
ATOM     14  C   UNL     1      -2.588   0.360   0.399  0.00  0.00    +0.047 A 
ATOM     15  C   UNL     1      -1.976   1.163   1.348  0.00  0.00    +0.141 A 
BRANCH  15  16
ATOM     16  O   UNL     1      -0.682   1.547   1.184  0.00  0.00    -0.493 OA
ATOM     17  C   UNL     1      -0.013   1.086   0.008  0.00  0.00    +0.277 C 
ENDBRANCH  15  16
ENDBRANCH   8  10
ENDBRANCH   2   4
ENDBRANCH   1   2
BRANCH   1  18
ATOM     18  C   UNL     1       0.319   3.936   8.707  0.00  0.00    +0.313 C 
BRANCH  18  19
ATOM     19  C   UNL     1       1.138   5.082   9.243  0.00  0.00    +0.217 C 
ATOM     20  O   UNL     1       1.642   5.877   8.477  0.00  0.00    -0.287 OA
BRANCH  19  27
ATOM     21  C   UNL     1       2.788   7.348  10.586  0.00  0.00    +0.047 C 
ATOM     22  C   UNL     1       2.044   6.224  11.260  0.00  0.00    -0.008 A 
ATOM     23  C   UNL     1       1.954   5.988  12.648  0.00  0.00    +0.083 A 
ATOM     24  C   UNL     1       1.182   4.853  12.821  0.00  0.00    +0.028 A 
ATOM     25  N   UNL     1       0.804   4.402  11.616  0.00  0.00    -0.355 N 
ATOM     26  H   UNL     1       0.255   3.619  11.456  0.00  0.00    +0.166 HD
ATOM     27  C   UNL     1       1.318   5.230  10.639  0.00  0.00    +0.090 A 
ATOM     28  C   UNL     1       0.824   4.226  14.144  0.00  0.00    +0.064 C 
BRANCH  23  29
ATOM     29  C   UNL     1       2.570   6.797  13.714  0.00  0.00    +0.341 C 
ATOM     30  O   UNL     1       3.690   6.534  14.105  0.00  0.00    -0.245 OA
BRANCH  29  31
ATOM     31  O   UNL     1       1.892   7.828  14.256  0.00  0.00    -0.464 OA
ATOM     32  C   UNL     1       2.561   8.580  15.301  0.00  0.00    +0.280 C 
ENDBRANCH  29  31
ENDBRANCH  23  29
ENDBRANCH  19  27
ENDBRANCH  18  19
ENDBRANCH   1  18
TORSDOF 9
