REMARK  Name = ZINC39955437
REMARK  4 active torsions:
REMARK  status: ('A' for Active; 'I' for Inactive)
REMARK    1  A    between atoms: C_4  and  N_7
REMARK    2  A    between atoms: C_8  and  N_20
REMARK    3  A    between atoms: C_9  and  C_18
REMARK    4  A    between atoms: C_10  and  C_12
REMARK                            x       y       z     vdW  Elec       q    Type
REMARK                         _______ _______ _______ _____ _____    ______ ____
ROOT
ATOM      1  N   UNL     1       3.623  -0.652  -0.037  0.00  0.00    -0.217 N 
ATOM      2  C   UNL     1       3.881  -1.828   0.579  0.00  0.00    +0.138 A 
ATOM      3  C   UNL     1       5.208  -2.149   0.309  0.00  0.00    +0.117 A 
ATOM      4  C   UNL     1       5.730  -1.109  -0.496  0.00  0.00    +0.111 A 
ATOM      5  N   UNL     1       4.784  -0.235  -0.697  0.00  0.00    -0.166 NA
ENDROOT
BRANCH   1   9
ATOM      6  C   UNL     1      -0.017   1.379   0.010  0.00  0.00    +0.000 A 
ATOM      7  C   UNL     1       1.170   2.089   0.002  0.00  0.00    +0.002 A 
ATOM      8  C   UNL     1       2.377   1.419  -0.013  0.00  0.00    +0.028 A 
ATOM      9  C   UNL     1       2.400   0.031  -0.021  0.00  0.00    +0.067 A 
ATOM     10  C   UNL     1       1.207  -0.680  -0.013  0.00  0.00    +0.028 A 
ATOM     11  C   UNL     1       0.002  -0.004   0.002  0.00  0.00    +0.002 A 
ENDBRANCH   1   9
BRANCH   4  12
ATOM     12  C   UNL     1       7.135  -1.030  -1.033  0.00  0.00    +0.170 C 
ATOM     13  C   UNL     1       7.942   0.020  -0.238  0.00  0.00    +0.040 C 
ATOM     14  C   UNL     1       8.785   0.701  -1.350  0.00  0.00    +0.031 C 
ATOM     15  C   UNL     1       7.797   0.645  -2.543  0.00  0.00    +0.161 C 
ATOM     16  O   UNL     1       7.109  -0.610  -2.403  0.00  0.00    -0.370 OA
ENDBRANCH   4  12
BRANCH   2  17
ATOM     17  N   UNL     1       2.994  -2.571   1.334  0.00  0.00    -0.342 N 
ATOM     18  H   UNL     1       2.085  -2.257   1.462  0.00  0.00    +0.144 HD
ATOM     19  H   UNL     1       3.279  -3.406   1.736  0.00  0.00    +0.144 HD
ENDBRANCH   2  17
BRANCH   3  20
ATOM     20  C   UNL     1       5.912  -3.311   0.762  0.00  0.00    +0.105 C 
ATOM     21  N   UNL     1       6.471  -4.232   1.121  0.00  0.00    -0.191 NA
ENDBRANCH   3  20
TORSDOF 4
