REMARK  Name = ZINC67262677
REMARK  5 active torsions:
REMARK  status: ('A' for Active; 'I' for Inactive)
REMARK    1  A    between atoms: C_3  and  N_11
REMARK    2  A    between atoms: C_5  and  O_7
REMARK    3  A    between atoms: O_7  and  C_8
REMARK    4  A    between atoms: C_8  and  C_9
REMARK    5  A    between atoms: C_18  and  C_20
REMARK                            x       y       z     vdW  Elec       q    Type
REMARK                         _______ _______ _______ _____ _____    ______ ____
ROOT
ATOM      1  N   UNL     1       3.583   2.131  -0.021  0.00  0.00    -0.269 N 
ATOM      2  C   UNL     1       3.564   3.476  -0.116  0.00  0.00    +0.307 C 
ATOM      3  O   UNL     1       2.503   4.070  -0.103  0.00  0.00    -0.252 OA
ATOM      4  N   UNL     1       4.719   4.161  -0.225  0.00  0.00    -0.278 N 
ATOM      5  C   UNL     1       6.069   3.569  -0.260  0.00  0.00    +0.110 C 
ATOM      6  C   UNL     1       7.010   4.699   0.226  0.00  0.00    +0.021 C 
ATOM      7  C   UNL     1       6.348   5.950  -0.408  0.00  0.00    +0.029 C 
ATOM      8  C   UNL     1       4.842   5.622  -0.336  0.00  0.00    +0.111 C 
ATOM      9  H   UNL     1       4.430   1.662   0.036  0.00  0.00    +0.156 HD
ENDROOT
BRANCH   8  10
ATOM     10  C   UNL     1       4.149   6.101  -1.585  0.00  0.00    +0.018 A 
ATOM     11  C   UNL     1       3.861   5.208  -2.601  0.00  0.00    +0.009 A 
ATOM     12  C   UNL     1       3.226   5.645  -3.748  0.00  0.00    +0.004 A 
ATOM     13  C   UNL     1       2.878   6.976  -3.885  0.00  0.00    +0.049 A 
ATOM     14  C   UNL     1       3.165   7.877  -2.870  0.00  0.00    +0.162 A 
ATOM     15  C   UNL     1       3.796   7.436  -1.713  0.00  0.00    +0.167 A 
ATOM     16  O   UNL     1       4.076   8.300  -0.700  0.00  0.00    -0.485 OA
ATOM     17  C   UNL     1       4.044   9.696  -1.017  0.00  0.00    +0.270 C 
ATOM     18  C   UNL     1       2.770   9.976  -1.825  0.00  0.00    +0.270 C 
ATOM     19  O   UNL     1       2.820   9.184  -3.021  0.00  0.00    -0.485 OA
ENDBRANCH   8  10
BRANCH   1  22
ATOM     20  C   UNL     1       1.124  -0.543  -0.597  0.00  0.00    +0.005 A 
ATOM     21  C   UNL     1       2.310   0.167  -0.613  0.00  0.00    +0.023 A 
ATOM     22  C   UNL     1       2.382   1.413  -0.005  0.00  0.00    +0.038 A 
ATOM     23  C   UNL     1       1.263   1.946   0.619  0.00  0.00    +0.069 A 
ATOM     24  C   UNL     1       0.075   1.231   0.633  0.00  0.00    +0.124 A 
ATOM     25  C   UNL     1       0.008  -0.014   0.024  0.00  0.00    +0.046 A 
BRANCH  24  26
ATOM     26  O   UNL     1      -1.022   1.750   1.244  0.00  0.00    -0.477 OA
BRANCH  26  27
ATOM     27  C   UNL     1      -2.212   0.959   1.220  0.00  0.00    +0.346 C 
BRANCH  27  28
ATOM     28  C   UNL     1      -3.291   1.673   1.923  0.00  0.00    +0.104 C 
ATOM     29  N   UNL     1      -4.123   2.224   2.466  0.00  0.00    -0.193 NA
ENDBRANCH  27  28
ENDBRANCH  26  27
ENDBRANCH  24  26
ENDBRANCH   1  22
TORSDOF 5
