REMARK  Name = ZINC54727961
REMARK  11 active torsions:
REMARK  status: ('A' for Active; 'I' for Inactive)
REMARK    1  A    between atoms: C_1  and  C_2
REMARK    2  A    between atoms: C_2  and  N_3
REMARK    3  A    between atoms: C_4  and  C_6
REMARK    4  A    between atoms: C_6  and  N_7
REMARK    5  A    between atoms: N_15  and  C_16
REMARK    6  A    between atoms: C_16  and  C_17
REMARK    7  A    between atoms: C_17  and  C_18
REMARK    8  A    between atoms: C_17  and  C_19
REMARK    9  A    between atoms: C_17  and  N_20
REMARK   10  A    between atoms: C_22  and  C_29
REMARK   11  A    between atoms: C_25  and  C_28
REMARK                            x       y       z     vdW  Elec       q    Type
REMARK                         _______ _______ _______ _____ _____    ______ ____
ROOT
ATOM      1  N   UNL     1       0.133  -5.101   2.405  0.00  0.00    -0.291 NA
ATOM      2  C   UNL     1       0.410  -5.816   3.657  0.00  0.00    +0.104 C 
ATOM      3  C   UNL     1       1.923  -5.836   3.905  0.00  0.00    +0.124 C 
ATOM      4  N   UNL     1       2.585  -6.388   2.713  0.00  0.00    -0.283 N 
ATOM      5  C   UNL     1       2.251  -5.811   1.402  0.00  0.00    +0.124 C 
ATOM      6  C   UNL     1       0.726  -5.792   1.253  0.00  0.00    +0.104 C 
ATOM      7  C   UNL     1       3.474  -7.395   2.820  0.00  0.00    +0.302 C 
ATOM      8  O   UNL     1       3.940  -7.903   1.819  0.00  0.00    -0.253 OA
ATOM      9  N   UNL     1       3.846  -7.839   4.037  0.00  0.00    -0.301 N 
ATOM     10  H   UNL     1       3.421  -7.485   4.834  0.00  0.00    +0.150 HD
ENDROOT
BRANCH   1  11
ATOM     11  C   UNL     1      -1.312  -4.909   2.217  0.00  0.00    +0.180 C 
BRANCH  11  13
ATOM     12  N   UNL     1      -3.149  -3.671   3.316  0.00  0.00    -0.315 N 
ATOM     13  C   UNL     1      -1.840  -3.991   3.288  0.00  0.00    +0.227 C 
ATOM     14  O   UNL     1      -1.088  -3.540   4.126  0.00  0.00    -0.274 OA
ATOM     15  H   UNL     1      -3.751  -4.031   2.646  0.00  0.00    +0.149 HD
BRANCH  12  17
ATOM     16  C   UNL     1      -5.168  -2.579   4.162  0.00  0.00    +0.024 C 
ATOM     17  C   UNL     1      -3.663  -2.778   4.358  0.00  0.00    +0.101 C 
ENDBRANCH  12  17
ENDBRANCH  11  13
ENDBRANCH   1  11
BRANCH   9  18
ATOM     18  C   UNL     1       4.892  -8.858   4.156  0.00  0.00    +0.093 C 
BRANCH  18  19
ATOM     19  C   UNL     1       5.121  -9.183   5.634  0.00  0.00    -0.055 C 
ATOM     20  C   UNL     1       6.214 -10.247   5.758  0.00  0.00    -0.008 C 
ATOM     21  C   UNL     1       5.557  -7.916   6.373  0.00  0.00    -0.008 C 
BRANCH  19  22
ATOM     22  N   UNL     1       3.875  -9.690   6.223  0.00  0.00    +0.384 N 
ATOM     23  C   UNL     1       3.454 -10.900   5.507  0.00  0.00    -0.075 C 
ATOM     24  C   UNL     1       2.114 -11.386   6.064  0.00  0.00    -0.031 C 
ATOM     25  C   UNL     1       2.271 -11.701   7.554  0.00  0.00    +0.003 C 
ATOM     26  C   UNL     1       2.781 -10.452   8.279  0.00  0.00    -0.031 C 
ATOM     27  C   UNL     1       4.096 -10.001   7.640  0.00  0.00    -0.075 C 
ATOM     28  C   UNL     1       1.744  -9.333   8.161  0.00  0.00    +0.005 C 
ATOM     29  C   UNL     1       1.678 -12.648   5.317  0.00  0.00    +0.005 C 
ATOM     30  H   UNL     1       3.156  -8.986   6.142  0.00  0.00    -0.081 HD
ENDBRANCH  19  22
ENDBRANCH  18  19
ENDBRANCH   9  18
TORSDOF 6
