REMARK  Name = ZINC66859807
REMARK  7 active torsions:
REMARK  status: ('A' for Active; 'I' for Inactive)
REMARK    1  A    between atoms: C_10  and  C_11
REMARK    2  A    between atoms: C_10  and  O_26
REMARK    3  A    between atoms: C_11  and  N_12
REMARK    4  A    between atoms: N_12  and  C_13
REMARK    5  A    between atoms: C_15  and  N_23
REMARK    6  A    between atoms: C_17  and  S_19
REMARK    7  A    between atoms: S_19  and  N_22
REMARK                            x       y       z     vdW  Elec       q    Type
REMARK                         _______ _______ _______ _____ _____    ______ ____
ROOT
ATOM      1  N   UNL     1       4.837   1.444   0.478  0.00  0.00    -0.341 N 
ATOM      2  H   UNL     1       4.306   1.786  -0.259  0.00  0.00    +0.146 HD
ENDROOT
BRANCH   1   3
ATOM      3  C   UNL     1       5.742   2.281   1.135  0.00  0.00    +0.031 A 
ATOM      4  C   UNL     1       6.506   1.790   2.186  0.00  0.00    +0.055 A 
ATOM      5  C   UNL     1       7.400   2.620   2.833  0.00  0.00    +0.130 A 
ATOM      6  C   UNL     1       7.535   3.938   2.436  0.00  0.00    +0.061 A 
ATOM      7  C   UNL     1       6.775   4.429   1.391  0.00  0.00    +0.109 A 
ATOM      8  C   UNL     1       5.883   3.603   0.735  0.00  0.00    +0.051 A 
BRANCH   7   9
ATOM      9  S   UNL     1       6.950   6.110   0.890  0.00  0.00    +0.056 S 
ATOM     10  O   UNL     1       5.735   6.470   0.247  0.00  0.00    -0.153 OA
ATOM     11  O   UNL     1       7.457   6.818   2.012  0.00  0.00    -0.153 OA
BRANCH   9  12
ATOM     12  N   UNL     1       8.130   6.154  -0.271  0.00  0.00    -0.204 NA
ATOM     13  H   UNL     1       8.101   6.829  -0.967  0.00  0.00    +0.144 HD
ATOM     14  H   UNL     1       8.852   5.506  -0.254  0.00  0.00    +0.144 HD
ENDBRANCH   9  12
ENDBRANCH   7   9
BRANCH   5  15
ATOM     15  N   UNL     1       8.215   2.099   3.954  0.00  0.00    +0.057 N 
ATOM     16  O   UNL     1       8.098   0.947   4.302  0.00  0.00    -0.126 OA
ATOM     17  O   UNL     1       8.998   2.825   4.521  0.00  0.00    -0.126 OA
ENDBRANCH   5  15
ENDBRANCH   1   3
BRANCH   1  18
ATOM     18  C   UNL     1       4.689   0.049   0.901  0.00  0.00    +0.141 C 
BRANCH  18  28
ATOM     19  C   UNL     1       3.464  -4.758   1.191  0.00  0.00    +0.000 A 
ATOM     20  C   UNL     1       3.461  -3.732   2.117  0.00  0.00    +0.000 A 
ATOM     21  C   UNL     1       3.556  -2.424   1.689  0.00  0.00    +0.007 A 
ATOM     22  C   UNL     1       3.656  -2.129   0.335  0.00  0.00    -0.011 A 
ATOM     23  C   UNL     1       3.664  -3.151  -0.586  0.00  0.00    -0.041 A 
ATOM     24  C   UNL     1       3.565  -4.468  -0.154  0.00  0.00    +0.004 A 
ATOM     25  C   UNL     1       3.786  -2.907  -2.067  0.00  0.00    +0.035 C 
ATOM     26  C   UNL     1       3.454  -1.454  -2.401  0.00  0.00    +0.008 C 
ATOM     27  C   UNL     1       4.283  -0.545  -1.486  0.00  0.00    +0.041 C 
ATOM     28  C   UNL     1       3.748  -0.679  -0.062  0.00  0.00    +0.106 C 
BRANCH  28  29
ATOM     29  O   UNL     1       2.450  -0.087   0.011  0.00  0.00    -0.382 OA
ATOM     30  H   UNL     1       2.052  -0.118   0.892  0.00  0.00    +0.211 HD
ENDBRANCH  28  29
ENDBRANCH  18  28
ENDBRANCH   1  18
TORSDOF 7
