REMARK  Name = ZINC24056203
REMARK  2 active torsions:
REMARK  status: ('A' for Active; 'I' for Inactive)
REMARK    1  A    between atoms: C_1  and  C_2
REMARK    2  A    between atoms: C_7  and  C_10
REMARK                            x       y       z     vdW  Elec       q    Type
REMARK                         _______ _______ _______ _____ _____    ______ ____
ROOT
ATOM      1  C   UNL     1      -1.696   5.966   0.069  0.00  0.00    +0.039 C 
ATOM      2  C   UNL     1      -0.265   5.433  -0.028  0.00  0.00    +0.133 C 
ATOM      3  C   UNL     1      -0.285   3.903   0.025  0.00  0.00    +0.138 C 
ATOM      4  N   UNL     1       1.096   3.399   0.009  0.00  0.00    -0.310 N 
ATOM      5  C   UNL     1       1.858   3.932   1.148  0.00  0.00    +0.138 C 
ATOM      6  C   UNL     1       1.856   5.462   1.084  0.00  0.00    +0.133 C 
ATOM      7  O   UNL     1       0.506   5.932   1.068  0.00  0.00    -0.371 OA
ATOM      8  C   UNL     1       2.572   5.921  -0.189  0.00  0.00    +0.039 C 
ATOM      9  C   UNL     1       1.119   2.014   0.002  0.00  0.00    +0.128 A 
ATOM     10  C   UNL     1       2.333   1.326  -0.013  0.00  0.00    +0.084 A 
ATOM     11  C   UNL     1       2.308  -0.057  -0.021  0.00  0.00    +0.136 A 
ATOM     12  N   UNL     1       1.139  -0.684  -0.013  0.00  0.00    -0.203 NA
ATOM     13  C   UNL     1       0.002  -0.004   0.002  0.00  0.00    +0.216 A 
ATOM     14  N   UNL     1      -0.016   1.320   0.009  0.00  0.00    -0.200 NA
ATOM     15  N   UNL     1      -1.197  -0.695   0.010  0.00  0.00    -0.327 N 
ATOM     16 CL   UNL     1       3.789  -0.962  -0.040  0.00  0.00    -0.062 Cl
ATOM     17  H   UNL     1      -2.149  -0.144   0.022  0.00  0.00    +0.145 HD
ATOM     18  H   UNL     1      -1.198  -1.795   0.004  0.00  0.00    +0.145 HD
ENDROOT
TORSDOF 0
