REMARK  Name = ZINC58302053
REMARK  6 active torsions:
REMARK  status: ('A' for Active; 'I' for Inactive)
REMARK    1  A    between atoms: C_1  and  C_2
REMARK    2  A    between atoms: C_2  and  C_20
REMARK    3  A    between atoms: N_5  and  C_9
REMARK    4  A    between atoms: C_9  and  C_10
REMARK    5  A    between atoms: N_12  and  C_13
REMARK    6  A    between atoms: C_23  and  C_26
REMARK                            x       y       z     vdW  Elec       q    Type
REMARK                         _______ _______ _______ _____ _____    ______ ____
ROOT
ATOM      1  C   UNL     1      -0.019   1.526   0.010  0.00  0.00    +0.047 C 
ATOM      2  C   UNL     1       0.002  -0.004   0.002  0.00  0.00    +0.135 C 
ATOM      3  C   UNL     1       0.815  -0.520  -1.169  0.00  0.00    +0.251 C 
ATOM      4  O   UNL     1       0.595  -0.342  -2.348  0.00  0.00    -0.272 OA
ATOM      5  N   UNL     1       1.833  -1.217  -0.627  0.00  0.00    -0.215 N 
ATOM      6  C   UNL     1       1.777  -1.214   0.710  0.00  0.00    +0.310 C 
ATOM      7  O   UNL     1       2.586  -1.776   1.421  0.00  0.00    -0.252 OA
ATOM      8  N   UNL     1       0.724  -0.519   1.178  0.00  0.00    -0.281 N 
ATOM      9  H   UNL     1       0.487  -0.383   2.109  0.00  0.00    +0.152 HD
ENDROOT
BRANCH   2  10
ATOM     10  C   UNL     1      -1.401  -0.551  -0.040  0.00  0.00    -0.015 A 
ATOM     11  C   UNL     1      -2.002  -0.814  -1.258  0.00  0.00    +0.007 A 
ATOM     12  C   UNL     1      -3.286  -1.315  -1.304  0.00  0.00    +0.019 A 
ATOM     13  C   UNL     1      -3.980  -1.558  -0.117  0.00  0.00    +0.052 A 
ATOM     14  C   UNL     1      -3.368  -1.292   1.109  0.00  0.00    +0.019 A 
ATOM     15  C   UNL     1      -2.081  -0.795   1.140  0.00  0.00    +0.007 A 
BRANCH  13  16
ATOM     16  C   UNL     1      -5.314  -2.078  -0.157  0.00  0.00    +0.099 C 
ATOM     17  N   UNL     1      -6.372  -2.490  -0.189  0.00  0.00    -0.191 NA
ENDBRANCH  13  16
ENDBRANCH   2  10
BRANCH   5  18
ATOM     18  C   UNL     1       2.871  -1.896  -1.406  0.00  0.00    +0.213 C 
BRANCH  18  19
ATOM     19  C   UNL     1       4.020  -0.950  -1.644  0.00  0.00    +0.231 C 
ATOM     20  O   UNL     1       3.975   0.180  -1.206  0.00  0.00    -0.274 OA
ATOM     21  N   UNL     1       5.097  -1.360  -2.343  0.00  0.00    -0.311 N 
ATOM     22  H   UNL     1       5.133  -2.264  -2.693  0.00  0.00    +0.149 HD
BRANCH  21  23
ATOM     23  C   UNL     1       6.213  -0.440  -2.574  0.00  0.00    +0.073 C 
ATOM     24  C   UNL     1       5.874   0.466  -3.775  0.00  0.00    +0.022 C 
ATOM     25  C   UNL     1       6.732   1.700  -3.701  0.00  0.00    +0.002 C 
ATOM     26  C   UNL     1       8.024   1.570  -4.530  0.00  0.00    +0.000 C 
ATOM     27  C   UNL     1       8.685   0.186  -4.392  0.00  0.00    +0.000 C 
ATOM     28  C   UNL     1       8.669  -0.322  -2.976  0.00  0.00    +0.002 C 
ATOM     29  C   UNL     1       7.426  -1.215  -2.789  0.00  0.00    +0.022 C 
ENDBRANCH  21  23
ENDBRANCH  18  19
ENDBRANCH   5  18
TORSDOF 5
