REMARK  Name = ZINC50829540
REMARK  5 active torsions:
REMARK  status: ('A' for Active; 'I' for Inactive)
REMARK    1  A    between atoms: C_1  and  C_2
REMARK    2  A    between atoms: C_3  and  C_20
REMARK    3  A    between atoms: C_7  and  N_19
REMARK    4  A    between atoms: C_9  and  C_11
REMARK    5  A    between atoms: C_11  and  N_12
REMARK                            x       y       z     vdW  Elec       q    Type
REMARK                         _______ _______ _______ _____ _____    ______ ____
ROOT
ATOM      1  C   UNL     1      -1.596   1.384   0.669  0.00  0.00    +0.045 C 
ATOM      2  C   UNL     1      -1.424  -0.111   0.597  0.00  0.00    -0.028 A 
ATOM      3  C   UNL     1      -2.079  -0.826  -0.330  0.00  0.00    -0.008 A 
ATOM      4  S   UNL     1      -1.557  -2.500  -0.011  0.00  0.00    -0.074 S 
ATOM      5  C   UNL     1      -0.472  -2.195   1.358  0.00  0.00    +0.114 A 
ATOM      6  C   UNL     1      -0.541  -0.794   1.526  0.00  0.00    +0.050 A 
ATOM      7  C   UNL     1       0.255  -0.267   2.579  0.00  0.00    +0.128 A 
ATOM      8  N   UNL     1       0.991  -1.091   3.307  0.00  0.00    -0.216 NA
ATOM      9  C   UNL     1       1.012  -2.394   3.089  0.00  0.00    +0.148 A 
ATOM     10  N   UNL     1       0.286  -2.944   2.134  0.00  0.00    -0.223 NA
ATOM     11  C   UNL     1      -3.032  -0.331  -1.388  0.00  0.00    +0.052 C 
ENDROOT
BRANCH   7  12
ATOM     12  N   UNL     1       0.262   1.092   2.839  0.00  0.00    -0.343 N 
ATOM     13  H   UNL     1       0.110   1.724   2.119  0.00  0.00    +0.144 HD
ATOM     14  H   UNL     1       0.418   1.412   3.741  0.00  0.00    +0.144 HD
ENDBRANCH   7  12
BRANCH   9  15
ATOM     15  C   UNL     1       1.873  -3.273   3.958  0.00  0.00    +0.185 C 
BRANCH  15  16
ATOM     16  N   UNL     1       1.100  -3.721   5.119  0.00  0.00    -0.174 NA
ATOM     17  C   UNL     1       0.899  -2.996   6.386  0.00  0.00    +0.111 C 
ATOM     18  C   UNL     1      -0.452  -3.370   7.023  0.00  0.00    +0.041 C 
ATOM     19  C   UNL     1      -0.532  -4.923   6.920  0.00  0.00    +0.186 C 
ATOM     20  S   UNL     1       0.255  -5.161   5.275  0.00  0.00    +0.032 S 
ATOM     21  O   UNL     1       1.246  -6.178   5.335  0.00  0.00    -0.158 OA
ATOM     22  O   UNL     1      -0.720  -5.143   4.241  0.00  0.00    -0.158 OA
ENDBRANCH  15  16
ENDBRANCH   9  15
TORSDOF 3
