REMARK  Name = ZINC66687262
REMARK  10 active torsions:
REMARK  status: ('A' for Active; 'I' for Inactive)
REMARK    1  A    between atoms: C_1  and  C_2
REMARK    2  A    between atoms: C_2  and  N_18
REMARK    3  A    between atoms: N_10  and  C_11
REMARK    4  A    between atoms: C_11  and  C_12
REMARK    5  A    between atoms: N_18  and  C_19
REMARK    6  A    between atoms: C_20  and  O_22
REMARK    7  A    between atoms: O_22  and  C_23
REMARK    8  A    between atoms: C_23  and  C_24
REMARK    9  A    between atoms: C_23  and  C_25
REMARK   10  A    between atoms: C_23  and  C_26
REMARK                            x       y       z     vdW  Elec       q    Type
REMARK                         _______ _______ _______ _____ _____    ______ ____
ROOT
ATOM      1  C   UNL     1      -0.387   1.723  -0.085  0.00  0.00    +0.032 C 
ATOM      2  C   UNL     1      -0.118   0.217  -0.100  0.00  0.00    +0.040 C 
ATOM      3  C   UNL     1       0.592  -0.161  -1.402  0.00  0.00    +0.045 C 
ATOM      4  C   UNL     1       0.829  -1.675  -1.429  0.00  0.00    +0.111 C 
ATOM      5  N   UNL     1       1.554  -2.062  -0.212  0.00  0.00    -0.286 N 
ATOM      6  C   UNL     1       1.004  -1.669   1.093  0.00  0.00    +0.111 C 
ATOM      7  C   UNL     1       0.766  -0.156   1.092  0.00  0.00    +0.045 C 
ATOM      8  C   UNL     1       2.701  -2.765  -0.290  0.00  0.00    +0.302 C 
ATOM      9  O   UNL     1       3.242  -3.160   0.725  0.00  0.00    -0.253 OA
ATOM     10  N   UNL     1       3.247  -3.031  -1.493  0.00  0.00    -0.297 N 
ATOM     11  H   UNL     1       2.857  -2.655  -2.297  0.00  0.00    +0.150 HD
ENDROOT
BRANCH   2  12
ATOM     12  N   UNL     1      -1.389  -0.506  -0.010  0.00  0.00    -0.265 N 
ATOM     13  C   UNL     1      -1.888  -1.257  -1.165  0.00  0.00    +0.136 C 
ATOM     14  C   UNL     1      -2.099  -0.481   1.135  0.00  0.00    +0.404 C 
ATOM     15  O   UNL     1      -1.685   0.141   2.093  0.00  0.00    -0.226 OA
BRANCH  14  16
ATOM     16  O   UNL     1      -3.267  -1.146   1.217  0.00  0.00    -0.445 OA
BRANCH  16  17
ATOM     17  C   UNL     1      -3.967  -1.076   2.461  0.00  0.00    +0.107 C 
ATOM     18  C   UNL     1      -4.301   0.384   2.777  0.00  0.00    +0.055 C 
ATOM     19  C   UNL     1      -5.261  -1.886   2.365  0.00  0.00    +0.055 C 
ATOM     20  C   UNL     1      -3.088  -1.650   3.574  0.00  0.00    +0.055 C 
ENDBRANCH  16  17
ENDBRANCH  14  16
ENDBRANCH   2  12
BRANCH  10  21
ATOM     21  C   UNL     1       4.432  -3.888  -1.586  0.00  0.00    +0.137 C 
BRANCH  21  22
ATOM     22  C   UNL     1       4.846  -4.028  -3.052  0.00  0.00    +0.135 C 
ATOM     23  C   UNL     1       6.078  -4.960  -3.176  0.00  0.00    +0.035 C 
ATOM     24  C   UNL     1       5.920  -5.465  -4.636  0.00  0.00    +0.031 C 
ATOM     25  C   UNL     1       4.385  -5.537  -4.793  0.00  0.00    +0.160 C 
ATOM     26  O   UNL     1       3.808  -4.674  -3.805  0.00  0.00    -0.375 OA
ENDBRANCH  21  22
ENDBRANCH  10  21
TORSDOF 5
