REMARK  Name = ZINC46811503
REMARK  6 active torsions:
REMARK  status: ('A' for Active; 'I' for Inactive)
REMARK    1  A    between atoms: C_1  and  N_2
REMARK    2  A    between atoms: C_4  and  S_10
REMARK    3  A    between atoms: C_6  and  C_7
REMARK    4  A    between atoms: S_10  and  N_13
REMARK    5  A    between atoms: N_13  and  C_14
REMARK    6  A    between atoms: N_23  and  C_24
REMARK                            x       y       z     vdW  Elec       q    Type
REMARK                         _______ _______ _______ _____ _____    ______ ____
ROOT
ATOM      1  S   UNL     1       0.225  -4.736  -2.549  0.00  0.00    +0.060 S 
ATOM      2  O   UNL     1       0.576  -6.100  -2.367  0.00  0.00    -0.153 OA
ATOM      3  O   UNL     1      -0.436  -4.268  -3.717  0.00  0.00    -0.153 OA
ENDROOT
BRANCH   1   7
ATOM      4  C   UNL     1      -3.321  -2.308   0.492  0.00  0.00    +0.149 C 
ATOM      5  N   UNL     1      -2.286  -3.253   0.065  0.00  0.00    -0.344 N 
ATOM      6  C   UNL     1      -1.700  -3.285  -1.157  0.00  0.00    +0.114 A 
ATOM      7  C   UNL     1      -0.794  -4.291  -1.182  0.00  0.00    +0.123 A 
ATOM      8  C   UNL     1      -0.811  -4.915   0.069  0.00  0.00    +0.061 A 
ATOM      9  C   UNL     1      -1.743  -4.253   0.840  0.00  0.00    +0.106 A 
BRANCH   9  10
ATOM     10  C   UNL     1      -2.095  -4.561   2.230  0.00  0.00    +0.258 C 
ATOM     11  O   UNL     1      -3.002  -3.960   2.776  0.00  0.00    -0.269 OA
ATOM     12  N   UNL     1      -1.413  -5.509   2.904  0.00  0.00    -0.324 N 
ATOM     13  H   UNL     1      -0.646  -5.938   2.494  0.00  0.00    +0.145 HD
ATOM     14  H   UNL     1      -1.690  -5.762   3.798  0.00  0.00    +0.145 HD
ENDBRANCH   9  10
ENDBRANCH   1   7
BRANCH   1  15
ATOM     15  N   UNL     1       1.627  -3.864  -2.418  0.00  0.00    -0.182 NA
ATOM     16  H   UNL     1       1.847  -3.196  -3.086  0.00  0.00    +0.149 HD
BRANCH  15  17
ATOM     17  C   UNL     1       2.535  -4.103  -1.294  0.00  0.00    +0.110 C 
ATOM     18  C   UNL     1       3.656  -5.054  -1.728  0.00  0.00    +0.025 C 
ATOM     19  C   UNL     1       4.737  -5.099  -0.645  0.00  0.00    +0.008 C 
ATOM     20  C   UNL     1       5.489  -3.762  -0.616  0.00  0.00    +0.055 C 
ATOM     21  C   UNL     1       4.474  -2.648  -0.559  0.00  0.00    +0.044 A 
ATOM     22  C   UNL     1       3.158  -2.799  -0.859  0.00  0.00    +0.012 A 
ATOM     23  C   UNL     1       2.533  -1.566  -0.693  0.00  0.00    +0.139 A 
ATOM     24  N   UNL     1       3.438  -0.700  -0.307  0.00  0.00    -0.179 NA
ATOM     25  N   UNL     1       4.673  -1.364  -0.219  0.00  0.00    -0.271 N 
ATOM     26  C   UNL     1       5.950  -0.764   0.177  0.00  0.00    +0.172 C 
ENDBRANCH  15  17
ENDBRANCH   1  15
TORSDOF 4
