REMARK  Name = ZINC41256553
REMARK  5 active torsions:
REMARK  status: ('A' for Active; 'I' for Inactive)
REMARK    1  A    between atoms: C_1  and  C_2
REMARK    2  A    between atoms: C_2  and  C_3
REMARK    3  A    between atoms: C_2  and  C_4
REMARK    4  A    between atoms: C_4  and  C_6
REMARK    5  A    between atoms: C_4  and  N_14
REMARK                            x       y       z     vdW  Elec       q    Type
REMARK                         _______ _______ _______ _____ _____    ______ ____
ROOT
ATOM      1  C   UNL     1      -1.466  -0.373  -0.102  0.00  0.00    +0.163 C 
ENDROOT
BRANCH   1   2
ATOM      2  N   UNL     1      -1.002  -1.740  -0.347  0.00  0.00    -0.288 N 
ATOM      3  C   UNL     1      -0.665  -2.534   0.689  0.00  0.00    +0.303 C 
ATOM      4  O   UNL     1      -0.868  -2.164   1.829  0.00  0.00    -0.253 OA
ATOM      5  N   UNL     1      -0.104  -3.738   0.461  0.00  0.00    -0.281 N 
ATOM      6  C   UNL     1       0.156  -4.674   1.567  0.00  0.00    +0.137 C 
ATOM      7  C   UNL     1      -0.428  -6.040   1.191  0.00  0.00    +0.179 C 
ATOM      8  O   UNL     1       0.064  -6.425  -0.095  0.00  0.00    -0.377 OA
ATOM      9  C   UNL     1      -0.324  -5.548  -1.156  0.00  0.00    +0.179 C 
ATOM     10  C   UNL     1       0.261  -4.158  -0.901  0.00  0.00    +0.137 C 
ATOM     11  H   UNL     1      -0.936  -2.075  -1.256  0.00  0.00    +0.151 HD
ENDBRANCH   1   2
BRANCH   1  12
ATOM     12  C   UNL     1      -2.326   0.080  -1.254  0.00  0.00    +0.236 C 
ATOM     13  O   UNL     1      -2.083  -0.302  -2.379  0.00  0.00    -0.274 OA
ATOM     14  N   UNL     1      -3.366   0.908  -1.033  0.00  0.00    -0.300 N 
ATOM     15  C   UNL     1      -3.736   1.297   0.335  0.00  0.00    +0.108 C 
ATOM     16  C   UNL     1      -3.786   2.826   0.416  0.00  0.00    +0.019 C 
ATOM     17  C   UNL     1      -4.727   3.360  -0.665  0.00  0.00    +0.003 C 
ATOM     18  C   UNL     1      -4.196   2.967  -2.046  0.00  0.00    +0.019 C 
ATOM     19  C   UNL     1      -4.148   1.444  -2.155  0.00  0.00    +0.108 C 
ENDBRANCH   1  12
BRANCH   1  21
ATOM     20  C   UNL     1      -0.743   1.979   0.332  0.00  0.00    +0.009 C 
ATOM     21  C   UNL     1      -0.260   0.559   0.030  0.00  0.00    +0.012 C 
ATOM     22  C   UNL     1       0.638   0.073   1.170  0.00  0.00    +0.009 C 
ENDBRANCH   1  21
TORSDOF 3
