REMARK  Name = ZINC66494604
REMARK  7 active torsions:
REMARK  status: ('A' for Active; 'I' for Inactive)
REMARK    1  A    between atoms: C_1  and  C_2
REMARK    2  A    between atoms: C_2  and  O_3
REMARK    3  A    between atoms: O_3  and  C_4
REMARK    4  A    between atoms: C_9  and  N_10
REMARK    5  A    between atoms: C_11  and  C_13
REMARK    6  A    between atoms: N_15  and  C_22
REMARK    7  A    between atoms: C_16  and  C_19
REMARK                            x       y       z     vdW  Elec       q    Type
REMARK                         _______ _______ _______ _____ _____    ______ ____
ROOT
ATOM      1  C   UNL     1       3.308  -1.061  -5.404  0.00  0.00    +0.123 C 
ATOM      2  N   UNL     1       3.278   0.232  -5.343  0.00  0.00    -0.178 NA
ATOM      3  N   UNL     1       3.980   0.863  -6.368  0.00  0.00    -0.212 N 
ATOM      4  C   UNL     1       4.568  -0.161  -7.245  0.00  0.00    +0.189 C 
ATOM      5  C   UNL     1       4.127  -1.490  -6.601  0.00  0.00    +0.096 C 
ENDROOT
BRANCH   3   6
ATOM      6  C   UNL     1       4.105   2.244  -6.535  0.00  0.00    +0.053 A 
ATOM      7  C   UNL     1       4.830   2.753  -7.606  0.00  0.00    +0.028 A 
ATOM      8  C   UNL     1       4.951   4.119  -7.769  0.00  0.00    +0.040 A 
ATOM      9  C   UNL     1       4.351   4.981  -6.867  0.00  0.00    +0.124 A 
ATOM     10  C   UNL     1       3.629   4.477  -5.798  0.00  0.00    +0.040 A 
ATOM     11  C   UNL     1       3.500   3.112  -5.634  0.00  0.00    +0.028 A 
ATOM     12  F   UNL     1       4.472   6.317  -7.028  0.00  0.00    -0.205 F 
ENDBRANCH   3   6
BRANCH   4  13
ATOM     13  C   UNL     1       6.071  -0.052  -7.254  0.00  0.00    +0.233 C 
ATOM     14  O   UNL     1       6.641   0.548  -6.367  0.00  0.00    -0.274 OA
ATOM     15  N   UNL     1       6.782  -0.621  -8.247  0.00  0.00    -0.328 N 
ATOM     16  H   UNL     1       6.327  -1.101  -8.957  0.00  0.00    +0.145 HD
ATOM     17  H   UNL     1       7.750  -0.551  -8.253  0.00  0.00    +0.145 HD
ENDBRANCH   4  13
BRANCH   1  19
ATOM     18  N   UNL     1       1.952  -1.467  -3.424  0.00  0.00    -0.277 N 
ATOM     19  C   UNL     1       2.658  -1.967  -4.458  0.00  0.00    +0.264 C 
ATOM     20  O   UNL     1       2.753  -3.171  -4.604  0.00  0.00    -0.268 OA
ATOM     21  H   UNL     1       1.808  -0.511  -3.352  0.00  0.00    +0.155 HD
BRANCH  18  27
ATOM     22  C   UNL     1       0.317  -1.944  -1.704  0.00  0.00    +0.142 A 
ATOM     23  C   UNL     1      -0.203  -2.802  -0.749  0.00  0.00    +0.050 A 
ATOM     24  C   UNL     1       0.381  -4.037  -0.537  0.00  0.00    +0.042 A 
ATOM     25  C   UNL     1       1.487  -4.420  -1.277  0.00  0.00    +0.125 A 
ATOM     26  C   UNL     1       2.012  -3.567  -2.232  0.00  0.00    +0.065 A 
ATOM     27  C   UNL     1       1.426  -2.329  -2.454  0.00  0.00    +0.079 A 
ATOM     28  F   UNL     1       2.055  -5.627  -1.066  0.00  0.00    -0.205 F 
BRANCH  22  29
ATOM     29  O   UNL     1      -0.257  -0.728  -1.913  0.00  0.00    -0.490 OA
BRANCH  29  31
ATOM     30  C   UNL     1      -1.896   0.995  -1.482  0.00  0.00    +0.048 C 
ATOM     31  C   UNL     1      -1.391  -0.400  -1.107  0.00  0.00    +0.226 C 
ENDBRANCH  29  31
ENDBRANCH  22  29
ENDBRANCH  18  27
ENDBRANCH   1  19
TORSDOF 6
