REMARK  Name = ZINC40428509
REMARK  5 active torsions:
REMARK  status: ('A' for Active; 'I' for Inactive)
REMARK    1  A    between atoms: C_1  and  C_2
REMARK    2  A    between atoms: C_5  and  O_8
REMARK    3  A    between atoms: O_8  and  C_9
REMARK    4  A    between atoms: C_10  and  N_17
REMARK    5  A    between atoms: C_13  and  C_15
REMARK                            x       y       z     vdW  Elec       q    Type
REMARK                         _______ _______ _______ _____ _____    ______ ____
ROOT
ATOM      1  C   UNL     1       0.177  -4.771   1.168  0.00  0.00    +0.246 A 
ATOM      2  C   UNL     1       0.312  -6.162   1.214  0.00  0.00    +0.125 A 
ATOM      3  C   UNL     1       0.431  -6.770   2.458  0.00  0.00    +0.157 A 
ATOM      4  N   UNL     1       0.413  -6.015   3.548  0.00  0.00    -0.219 NA
ATOM      5  C   UNL     1       0.284  -4.707   3.465  0.00  0.00    +0.132 A 
ATOM      6  N   UNL     1       0.173  -4.088   2.306  0.00  0.00    -0.196 NA
ATOM      7  C   UNL     1       0.268  -3.892   4.733  0.00  0.00    +0.088 C 
ATOM      8 CL   UNL     1       0.601  -8.493   2.584  0.00  0.00    -0.060 Cl
ENDROOT
BRANCH   2   9
ATOM      9  N   UNL     1       0.326  -6.923   0.038  0.00  0.00    -0.351 N 
ATOM     10  H   UNL     1       0.242  -6.486  -0.823  0.00  0.00    +0.143 HD
ATOM     11  H   UNL     1       0.420  -7.887   0.085  0.00  0.00    +0.143 HD
ENDBRANCH   2   9
BRANCH   1  12
ATOM     12  O   UNL     1       0.058  -4.129  -0.021  0.00  0.00    -0.436 OA
BRANCH  12  17
ATOM     13  C   UNL     1      -0.025   1.503   0.009  0.00  0.00    +0.044 C 
ATOM     14  C   UNL     1      -0.003  -0.004   0.001  0.00  0.00    -0.050 A 
ATOM     15  C   UNL     1       1.193  -0.677   0.167  0.00  0.00    +0.007 A 
ATOM     16  C   UNL     1       1.216  -2.059   0.160  0.00  0.00    +0.046 A 
ATOM     17  C   UNL     1       0.038  -2.770  -0.013  0.00  0.00    +0.130 A 
ATOM     18  C   UNL     1      -1.161  -2.092  -0.179  0.00  0.00    +0.046 A 
ATOM     19  C   UNL     1      -1.180  -0.711  -0.166  0.00  0.00    +0.007 A 
ENDBRANCH  12  17
ENDBRANCH   1  12
TORSDOF 3
