REMARK  Name = ZINC48793980
REMARK  6 active torsions:
REMARK  status: ('A' for Active; 'I' for Inactive)
REMARK    1  A    between atoms: C_1  and  C_2
REMARK    2  A    between atoms: C_2  and  N_3
REMARK    3  A    between atoms: C_4  and  C_6
REMARK    4  A    between atoms: C_6  and  N_12
REMARK    5  A    between atoms: C_13  and  C_15
REMARK    6  A    between atoms: C_16  and  C_20
REMARK                            x       y       z     vdW  Elec       q    Type
REMARK                         _______ _______ _______ _____ _____    ______ ____
ROOT
ATOM      1  C   UNL     1       1.510  -2.183  -2.712  0.00  0.00    +0.111 C 
ATOM      2  C   UNL     1       0.498  -2.130  -3.858  0.00  0.00    +0.035 C 
ATOM      3  C   UNL     1       1.190  -2.518  -5.167  0.00  0.00    +0.003 C 
ATOM      4  C   UNL     1       1.750  -3.936  -5.047  0.00  0.00    +0.000 C 
ATOM      5  C   UNL     1       2.762  -3.990  -3.901  0.00  0.00    +0.003 C 
ATOM      6  C   UNL     1       2.071  -3.602  -2.592  0.00  0.00    +0.035 C 
ENDROOT
BRANCH   1   8
ATOM      7  N   UNL     1       1.554  -1.307  -0.399  0.00  0.00    -0.314 N 
ATOM      8  C   UNL     1       0.830  -1.801  -1.423  0.00  0.00    +0.237 C 
ATOM      9  O   UNL     1      -0.370  -1.938  -1.307  0.00  0.00    -0.273 OA
ATOM     10  H   UNL     1       2.520  -1.265  -0.465  0.00  0.00    +0.149 HD
BRANCH   7  12
ATOM     11  C   UNL     1       1.923  -0.327   1.811  0.00  0.00    +0.024 C 
ATOM     12  C   UNL     1       0.880  -0.833   0.813  0.00  0.00    +0.101 C 
ENDBRANCH   7  12
ENDBRANCH   1   8
BRANCH   1  13
ATOM     13  N   UNL     1       2.604  -1.247  -2.982  0.00  0.00    -0.297 N 
ATOM     14  C   UNL     1       2.361   0.077  -3.031  0.00  0.00    +0.253 C 
ATOM     15  O   UNL     1       1.220   0.490  -2.942  0.00  0.00    -0.270 OA
ATOM     16  H   UNL     1       3.504  -1.581  -3.126  0.00  0.00    +0.150 HD
BRANCH  14  17
ATOM     17  C   UNL     1       3.473   1.021  -3.192  0.00  0.00    +0.096 A 
ATOM     18  C   UNL     1       3.456   2.397  -3.261  0.00  0.00    +0.058 A 
ATOM     19  N   UNL     1       4.615   2.990  -3.409  0.00  0.00    -0.252 NA
ATOM     20  C   UNL     1       5.733   2.305  -3.488  0.00  0.00    +0.156 A 
ATOM     21  S   UNL     1       5.224   0.708  -3.347  0.00  0.00    -0.071 S 
ATOM     22  C   UNL     1       2.172   3.180  -3.170  0.00  0.00    +0.067 C 
ENDBRANCH  14  17
ENDBRANCH   1  13
TORSDOF 4
