REMARK  Name = ZINC13686317
REMARK  5 active torsions:
REMARK  status: ('A' for Active; 'I' for Inactive)
REMARK    1  A    between atoms: C_3  and  C_6
REMARK    2  A    between atoms: C_6  and  N_7
REMARK    3  A    between atoms: C_12  and  C_15
REMARK    4  A    between atoms: C_15  and  C_16
REMARK    5  A    between atoms: N_18  and  C_19
REMARK                            x       y       z     vdW  Elec       q    Type
REMARK                         _______ _______ _______ _____ _____    ______ ____
ROOT
ATOM      1  N   UNL     1      -0.684   1.569  -1.192  0.00  0.00    -0.312 N 
ATOM      2  C   UNL     1      -0.234   1.256  -2.439  0.00  0.00    +0.173 C 
ATOM      3  N   UNL     1       0.839   0.530  -2.670  0.00  0.00    -0.150 NA
ATOM      4  C   UNL     1       1.071   0.361  -3.969  0.00  0.00    +0.260 C 
ATOM      5  O   UNL     1       1.983  -0.263  -4.474  0.00  0.00    -0.272 OA
ATOM      6  C   UNL     1      -0.033   1.110  -4.690  0.00  0.00    +0.169 C 
ATOM      7  N   UNL     1      -0.840   1.665  -3.588  0.00  0.00    -0.307 N 
ATOM      8  H   UNL     1      -1.480   2.113  -1.086  0.00  0.00    +0.149 HD
ATOM      9  H   UNL     1      -1.639   2.209  -3.665  0.00  0.00    +0.149 HD
ENDROOT
BRANCH   1  10
ATOM     10  C   UNL     1       0.034   1.084  -0.011  0.00  0.00    +0.178 C 
BRANCH  10  13
ATOM     11  C   UNL     1      -2.004   1.723   2.992  0.00  0.00    +0.041 A 
ATOM     12  C   UNL     1      -1.647   0.919   1.886  0.00  0.00    +0.046 A 
ATOM     13  C   UNL     1      -0.664   1.566   1.235  0.00  0.00    +0.122 A 
ATOM     14  O   UNL     1      -0.414   2.717   1.880  0.00  0.00    -0.466 OA
ATOM     15  C   UNL     1      -1.224   2.818   2.946  0.00  0.00    +0.195 A 
ENDBRANCH  10  13
ENDBRANCH   1  10
BRANCH   6  16
ATOM     16  C   UNL     1      -0.868   0.152  -5.542  0.00  0.00    +0.128 C 
BRANCH  16  17
ATOM     17  C   UNL     1      -1.973   0.918  -6.222  0.00  0.00    +0.219 C 
ATOM     18  O   UNL     1      -2.082   2.113  -6.043  0.00  0.00    -0.275 OA
ATOM     19  N   UNL     1      -2.840   0.276  -7.030  0.00  0.00    -0.284 N 
ATOM     20  H   UNL     1      -2.715  -0.666  -7.224  0.00  0.00    +0.155 HD
BRANCH  19  21
ATOM     21  C   UNL     1      -3.922   0.969  -7.587  0.00  0.00    +0.052 A 
ATOM     22  C   UNL     1      -3.782   2.302  -7.950  0.00  0.00    +0.026 A 
ATOM     23  C   UNL     1      -4.849   2.982  -8.504  0.00  0.00    +0.022 A 
ATOM     24  C   UNL     1      -6.060   2.338  -8.689  0.00  0.00    +0.042 A 
ATOM     25  C   UNL     1      -6.205   1.012  -8.324  0.00  0.00    +0.041 A 
ATOM     26  C   UNL     1      -5.139   0.325  -7.774  0.00  0.00    +0.064 A 
ATOM     27 CL   UNL     1      -5.321  -1.339  -7.316  0.00  0.00    -0.082 Cl
ATOM     28 CL   UNL     1      -7.401   3.198  -9.380  0.00  0.00    -0.083 Cl
ENDBRANCH  19  21
ENDBRANCH  16  17
ENDBRANCH   6  16
TORSDOF 5
