REMARK  Name = ZINC14655116
REMARK  12 active torsions:
REMARK  status: ('A' for Active; 'I' for Inactive)
REMARK    1  A    between atoms: C_1  and  C_2
REMARK    2  A    between atoms: C_2  and  C_3
REMARK    3  A    between atoms: C_3  and  C_4
REMARK    4  A    between atoms: C_4  and  N_5
REMARK    5  A    between atoms: C_6  and  N_34
REMARK    6  A    between atoms: C_7  and  N_14
REMARK    7  A    between atoms: N_14  and  C_15
REMARK    8  A    between atoms: C_16  and  C_18
REMARK    9  A    between atoms: C_21  and  S_27
REMARK   10  A    between atoms: C_22  and  N_24
REMARK   11  A    between atoms: S_27  and  C_28
REMARK   12  A    between atoms: C_30  and  C_33
REMARK                            x       y       z     vdW  Elec       q    Type
REMARK                         _______ _______ _______ _____ _____    ______ ____
ROOT
ATOM      1  N   UNL     1      -6.304   4.939   7.663  0.00  0.00    -0.263 N 
ATOM      2  C   UNL     1      -6.654   4.812   6.246  0.00  0.00    +0.139 C 
ATOM      3  C   UNL     1      -5.055   4.646   8.077  0.00  0.00    +0.251 C 
ATOM      4  O   UNL     1      -4.240   4.205   7.289  0.00  0.00    -0.270 OA
ENDROOT
BRANCH   1   7
ATOM      5  N   UNL     1      -9.327   5.049   9.748  0.00  0.00    -0.280 N 
ATOM      6  C   UNL     1      -8.401   4.607   8.831  0.00  0.00    +0.127 A 
ATOM      7  C   UNL     1      -7.273   5.366   8.594  0.00  0.00    +0.140 A 
ATOM      8  C   UNL     1      -7.110   6.578   9.292  0.00  0.00    +0.277 A 
ATOM      9  O   UNL     1      -6.125   7.270   9.098  0.00  0.00    -0.266 OA
ATOM     10  N   UNL     1      -8.049   6.967  10.176  0.00  0.00    -0.273 N 
ATOM     11  H   UNL     1      -7.934   7.827  10.673  0.00  0.00    +0.173 HD
ATOM     12  C   UNL     1      -9.140   6.212  10.398  0.00  0.00    +0.331 A 
ATOM     13  O   UNL     1      -9.972   6.587  11.201  0.00  0.00    -0.246 OA
BRANCH   6  14
ATOM     14  N   UNL     1      -8.595   3.422   8.163  0.00  0.00    -0.343 N 
ATOM     15  H   UNL     1      -7.888   3.056   7.609  0.00  0.00    +0.144 HD
ATOM     16  H   UNL     1      -9.440   2.952   8.244  0.00  0.00    +0.144 HD
ENDBRANCH   6  14
BRANCH   5  17
ATOM     17  C   UNL     1     -10.526   4.250  10.014  0.00  0.00    +0.128 C 
BRANCH  17  18
ATOM     18  C   UNL     1     -11.642   4.672   9.056  0.00  0.00    +0.021 C 
BRANCH  18  20
ATOM     19  C   UNL     1     -14.011   4.260   8.376  0.00  0.00    +0.004 C 
ATOM     20  C   UNL     1     -12.895   3.838   9.334  0.00  0.00    -0.002 C 
ENDBRANCH  18  20
ENDBRANCH  17  18
ENDBRANCH   5  17
ENDBRANCH   1   7
BRANCH   3  21
ATOM     21  C   UNL     1      -4.676   4.861   9.486  0.00  0.00    +0.039 A 
ATOM     22  C   UNL     1      -5.641   4.766  10.493  0.00  0.00    +0.014 A 
ATOM     23  C   UNL     1      -5.289   4.959  11.799  0.00  0.00    +0.018 A 
ATOM     24  C   UNL     1      -3.971   5.262  12.131  0.00  0.00    +0.045 A 
ATOM     25  C   UNL     1      -3.003   5.359  11.134  0.00  0.00    +0.141 A 
ATOM     26  C   UNL     1      -3.351   5.160   9.818  0.00  0.00    +0.047 A 
BRANCH  25  27
ATOM     27  N   UNL     1      -1.602   5.675  11.491  0.00  0.00    +0.058 N 
ATOM     28  O   UNL     1      -0.755   5.760  10.619  0.00  0.00    -0.126 OA
ATOM     29  O   UNL     1      -1.295   5.852  12.656  0.00  0.00    -0.126 OA
ENDBRANCH  25  27
BRANCH  24  30
ATOM     30  S   UNL     1      -3.526   5.517  13.817  0.00  0.00    -0.061 S 
BRANCH  30  31
ATOM     31  C   UNL     1      -3.405   7.268  13.966  0.00  0.00    +0.139 A 
ATOM     32  N   UNL     1      -3.170   7.995  15.042  0.00  0.00    -0.238 NA
ATOM     33  C   UNL     1      -3.111   9.311  14.978  0.00  0.00    +0.047 A 
ATOM     34  C   UNL     1      -3.303   9.908  13.777  0.00  0.00    +0.070 A 
ATOM     35  S   UNL     1      -3.564   8.482  12.734  0.00  0.00    -0.069 S 
ATOM     36  C   UNL     1      -2.843  10.132  16.213  0.00  0.00    +0.066 C 
ENDBRANCH  30  31
ENDBRANCH  24  30
ENDBRANCH   3  21
TORSDOF 9
