REMARK  Name = ZINC44227153
REMARK  7 active torsions:
REMARK  status: ('A' for Active; 'I' for Inactive)
REMARK    1  A    between atoms: C_1  and  O_2
REMARK    2  A    between atoms: O_2  and  C_3
REMARK    3  A    between atoms: C_6  and  C_11
REMARK    4  A    between atoms: C_8  and  O_9
REMARK    5  A    between atoms: O_9  and  C_10
REMARK    6  A    between atoms: C_12  and  C_24
REMARK    7  A    between atoms: C_13  and  N_23
REMARK                            x       y       z     vdW  Elec       q    Type
REMARK                         _______ _______ _______ _____ _____    ______ ____
ROOT
ATOM      1  C   UNL     1      -4.962  -2.614   0.035  0.00  0.00    +0.008 C 
ATOM      2  C   UNL     1      -5.375  -3.396  -1.036  0.00  0.00    +0.071 C 
ATOM      3  C   UNL     1      -6.728  -4.059  -0.963  0.00  0.00    +0.155 C 
ATOM      4  O   UNL     1      -7.043  -4.374   0.393  0.00  0.00    -0.506 OA
ATOM      5  C   UNL     1      -6.914  -3.398   1.311  0.00  0.00    +0.107 C 
ATOM      6  C   UNL     1      -5.880  -2.498   1.186  0.00  0.00    +0.063 C 
ATOM      7  C   UNL     1      -5.688  -1.440   2.178  0.00  0.00    +0.167 C 
ATOM      8  O   UNL     1      -4.673  -0.776   2.200  0.00  0.00    -0.292 OA
ATOM      9  C   UNL     1      -6.802  -1.202   3.178  0.00  0.00    +0.080 C 
ATOM     10  C   UNL     1      -7.305  -2.576   3.639  0.00  0.00    +0.016 C 
ATOM     11  C   UNL     1      -7.900  -3.316   2.443  0.00  0.00    +0.075 C 
ENDROOT
BRANCH   1  15
ATOM     12  C   UNL     1      -1.200  -0.637   0.010  0.00  0.00    +0.162 A 
ATOM     13  C   UNL     1      -2.373   0.105   0.019  0.00  0.00    +0.050 A 
ATOM     14  C   UNL     1      -3.595  -0.533   0.028  0.00  0.00    +0.012 A 
ATOM     15  C   UNL     1      -3.655  -1.929   0.026  0.00  0.00    -0.013 A 
ATOM     16  C   UNL     1      -2.473  -2.676   0.016  0.00  0.00    +0.058 A 
ATOM     17  C   UNL     1      -1.252  -2.030   0.003  0.00  0.00    +0.162 A 
BRANCH  12  19
ATOM     18  C   UNL     1      -0.017   1.425   0.010  0.00  0.00    +0.277 C 
ATOM     19  O   UNL     1       0.002  -0.004   0.002  0.00  0.00    -0.491 OA
ENDBRANCH  12  19
BRANCH  17  20
ATOM     20  O   UNL     1      -0.100  -2.754  -0.011  0.00  0.00    -0.491 OA
ATOM     21  C   UNL     1      -0.229  -4.177  -0.018  0.00  0.00    +0.277 C 
ENDBRANCH  17  20
ENDBRANCH   1  15
BRANCH   3  22
ATOM     22  N   UNL     1      -7.748  -3.148  -1.500  0.00  0.00    +0.405 N 
ATOM     23  H   UNL     1      -7.532  -2.930  -2.461  0.00  0.00    -0.084 HD
ATOM     24  H   UNL     1      -8.653  -3.591  -1.451  0.00  0.00    -0.084 HD
ATOM     25  H   UNL     1      -7.760  -2.299  -0.956  0.00  0.00    -0.084 HD
ENDBRANCH   3  22
BRANCH   2  26
ATOM     26  C   UNL     1      -4.554  -3.565  -2.159  0.00  0.00    +0.385 C 
ATOM     27  O   UNL     1      -3.360  -2.970  -2.208  0.00  0.00    -0.241 OA
ATOM     28  O   UNL     1      -4.965  -4.319  -3.179  0.00  0.00    -0.241 OA
ENDBRANCH   2  26
TORSDOF 5
