REMARK  Name = ZINC50865359
REMARK  10 active torsions:
REMARK  status: ('A' for Active; 'I' for Inactive)
REMARK    1  A    between atoms: C_1  and  C_2
REMARK    2  A    between atoms: C_2  and  C_3
REMARK    3  A    between atoms: C_3  and  N_4
REMARK    4  A    between atoms: C_7  and  C_19
REMARK    5  A    between atoms: C_9  and  C_11
REMARK    6  A    between atoms: C_12  and  C_18
REMARK    7  A    between atoms: N_14  and  C_17
REMARK    8  A    between atoms: C_15  and  C_16
REMARK    9  A    between atoms: C_19  and  C_20
REMARK   10  A    between atoms: C_19  and  C_21
REMARK                            x       y       z     vdW  Elec       q    Type
REMARK                         _______ _______ _______ _____ _____    ______ ____
ROOT
ATOM      1  N   UNL     1      -1.413  -1.998   0.005  0.00  0.00    -0.329 N 
ATOM      2  C   UNL     1      -2.604  -2.708   0.012  0.00  0.00    +0.123 A 
ATOM      3  C   UNL     1      -3.829  -2.036   0.022  0.00  0.00    +0.067 A 
ATOM      4  C   UNL     1      -4.991  -2.783   0.029  0.00  0.00    +0.049 A 
ATOM      5  N   UNL     1      -4.911  -4.105   0.026  0.00  0.00    -0.232 NA
ATOM      6  C   UNL     1      -3.735  -4.717   0.017  0.00  0.00    +0.165 A 
ATOM      7  N   UNL     1      -2.597  -4.036   0.005  0.00  0.00    -0.213 NA
ATOM      8  H   UNL     1      -0.567  -2.472  -0.006  0.00  0.00    +0.147 HD
ENDROOT
BRANCH   6   9
ATOM      9  C   UNL     1      -3.691  -6.198   0.015  0.00  0.00    +0.062 A 
ATOM     10  C   UNL     1      -4.802  -7.065   0.015  0.00  0.00    +0.071 A 
ATOM     11  N   UNL     1      -4.357  -8.293   0.012  0.00  0.00    -0.176 NA
ATOM     12  N   UNL     1      -2.958  -8.261   0.010  0.00  0.00    -0.271 N 
ATOM     13  C   UNL     1      -2.566  -6.973   0.006  0.00  0.00    +0.047 A 
ATOM     14  C   UNL     1      -1.143  -6.476  -0.003  0.00  0.00    +0.066 C 
ATOM     15  C   UNL     1      -2.072  -9.428   0.007  0.00  0.00    +0.172 C 
ATOM     16  C   UNL     1      -6.250  -6.648   0.017  0.00  0.00    +0.068 C 
ENDBRANCH   6   9
BRANCH   4  17
ATOM     17  C   UNL     1      -6.335  -2.101   0.039  0.00  0.00    +0.032 C 
ATOM     18  C   UNL     1      -6.722  -1.761   1.480  0.00  0.00    +0.014 C 
ATOM     19  C   UNL     1      -6.261  -0.815  -0.786  0.00  0.00    +0.014 C 
ENDBRANCH   4  17
BRANCH   1  20
ATOM     20  C   UNL     1      -1.433  -0.534   0.013  0.00  0.00    +0.102 C 
BRANCH  20  22
ATOM     21  C   UNL     1      -0.019   1.526   0.010  0.00  0.00    +0.005 C 
ATOM     22  C   UNL     1       0.002  -0.004   0.002  0.00  0.00    +0.015 C 
ENDBRANCH  20  22
ENDBRANCH   1  20
TORSDOF 4
