REMARK  Name = ZINC43376057
REMARK  6 active torsions:
REMARK  status: ('A' for Active; 'I' for Inactive)
REMARK    1  A    between atoms: C_1  and  C_2
REMARK    2  A    between atoms: C_2  and  C_3
REMARK    3  A    between atoms: C_2  and  C_4
REMARK    4  A    between atoms: C_4  and  C_5
REMARK    5  A    between atoms: C_6  and  C_11
REMARK    6  A    between atoms: C_9  and  N_10
REMARK                            x       y       z     vdW  Elec       q    Type
REMARK                         _______ _______ _______ _____ _____    ______ ____
ROOT
ATOM      1  C   UNL     1       2.078  -0.082  -1.268  0.00  0.00    +0.042 A 
ATOM      2  C   UNL     1       2.460   1.270  -1.407  0.00  0.00    +0.119 A 
ATOM      3  N   UNL     1       3.704   1.382  -0.997  0.00  0.00    -0.076 NA
ATOM      4  O   UNL     1       4.146   0.102  -0.586  0.00  0.00    -0.339 OA
ATOM      5  C   UNL     1       3.134  -0.765  -0.758  0.00  0.00    +0.219 A 
ENDROOT
BRANCH   2   6
ATOM      6  C   UNL     1       1.609   2.368  -1.923  0.00  0.00    +0.012 A 
ATOM      7  C   UNL     1       0.336   2.562  -1.418  0.00  0.00    +0.011 A 
ATOM      8  C   UNL     1      -0.468   3.590  -1.897  0.00  0.00    +0.001 A 
ATOM      9  C   UNL     1      -0.029   4.432  -2.873  0.00  0.00    +0.008 A 
ATOM     10  C   UNL     1       1.258   4.270  -3.415  0.00  0.00    -0.017 A 
ATOM     11  C   UNL     1       2.092   3.232  -2.934  0.00  0.00    -0.009 A 
ATOM     12  C   UNL     1       3.378   3.076  -3.471  0.00  0.00    +0.009 A 
ATOM     13  C   UNL     1       3.811   3.926  -4.443  0.00  0.00    +0.001 A 
ATOM     14  C   UNL     1       2.994   4.952  -4.914  0.00  0.00    +0.001 A 
ATOM     15  C   UNL     1       1.736   5.125  -4.424  0.00  0.00    +0.008 A 
ENDBRANCH   2   6
BRANCH   5  16
ATOM     16  N   UNL     1       3.163  -2.117  -0.468  0.00  0.00    -0.327 N 
ATOM     17  H   UNL     1       2.379  -2.665  -0.629  0.00  0.00    +0.145 HD
ATOM     18  H   UNL     1       3.968  -2.517  -0.104  0.00  0.00    +0.145 HD
ENDBRANCH   5  16
BRANCH   1  19
ATOM     19  C   UNL     1       0.733  -0.663  -1.619  0.00  0.00    +0.045 C 
BRANCH  19  21
ATOM     20  C   UNL     1       1.708  -2.123  -3.397  0.00  0.00    +0.007 C 
ATOM     21  C   UNL     1       0.699  -1.009  -3.109  0.00  0.00    -0.013 C 
ATOM     22  C   UNL     1      -0.705  -1.481  -3.492  0.00  0.00    +0.007 C 
ENDBRANCH  19  21
ENDBRANCH   1  19
TORSDOF 4
