REMARK  Name = ZINC40334418
REMARK  5 active torsions:
REMARK  status: ('A' for Active; 'I' for Inactive)
REMARK    1  A    between atoms: C_1  and  C_2
REMARK    2  A    between atoms: C_6  and  C_21
REMARK    3  A    between atoms: N_9  and  S_10
REMARK    4  A    between atoms: S_10  and  C_13
REMARK    5  A    between atoms: C_17  and  N_19
REMARK                            x       y       z     vdW  Elec       q    Type
REMARK                         _______ _______ _______ _____ _____    ______ ____
ROOT
ATOM      1  S   UNL     1       1.415   0.561   2.252  0.00  0.00    +0.061 S 
ATOM      2  O   UNL     1       2.621  -0.009   2.743  0.00  0.00    -0.153 OA
ATOM      3  O   UNL     1       1.367   1.855   1.668  0.00  0.00    -0.153 OA
ENDROOT
BRANCH   1  10
ATOM      4  C   UNL     1      -0.405   1.457   0.278  0.00  0.00    +0.026 C 
ATOM      5  C   UNL     1      -0.190  -0.052   0.148  0.00  0.00    +0.077 C 
ATOM      6  C   UNL     1       0.307  -0.381  -1.263  0.00  0.00    +0.021 C 
ATOM      7  C   UNL     1       0.652  -1.869  -1.345  0.00  0.00    +0.015 C 
ATOM      8  C   UNL     1       1.772  -2.190  -0.352  0.00  0.00    +0.090 C 
ATOM      9  C   UNL     1       1.292  -1.882   1.070  0.00  0.00    +0.122 C 
ATOM     10  N   UNL     1       0.819  -0.492   1.122  0.00  0.00    -0.173 NA
BRANCH   8  11
ATOM     11  C   UNL     1       2.134  -3.649  -0.457  0.00  0.00    +0.215 C 
ATOM     12  O   UNL     1       2.022  -4.372   0.511  0.00  0.00    -0.276 OA
ATOM     13  N   UNL     1       2.582  -4.150  -1.625  0.00  0.00    -0.329 N 
ATOM     14  H   UNL     1       2.671  -3.572  -2.398  0.00  0.00    +0.145 HD
ATOM     15  H   UNL     1       2.815  -5.090  -1.692  0.00  0.00    +0.145 HD
ENDBRANCH   8  11
ENDBRANCH   1  10
BRANCH   1  16
ATOM     16  C   UNL     1       0.280   0.575   3.600  0.00  0.00    +0.107 A 
ATOM     17  C   UNL     1      -0.771   1.473   3.609  0.00  0.00    +0.030 A 
ATOM     18  C   UNL     1      -1.664   1.488   4.665  0.00  0.00    +0.024 A 
ATOM     19  C   UNL     1      -1.508   0.604   5.716  0.00  0.00    +0.062 A 
ATOM     20  C   UNL     1      -0.452  -0.300   5.710  0.00  0.00    +0.045 A 
ATOM     21  C   UNL     1       0.439  -0.316   4.644  0.00  0.00    +0.052 A 
ATOM     22 CL   UNL     1      -2.628   0.624   7.042  0.00  0.00    -0.082 Cl
BRANCH  20  23
ATOM     23  N   UNL     1      -0.291  -1.196   6.770  0.00  0.00    -0.357 N 
ATOM     24  H   UNL     1      -0.916  -1.187   7.512  0.00  0.00    +0.142 HD
ATOM     25  H   UNL     1       0.446  -1.827   6.765  0.00  0.00    +0.142 HD
ENDBRANCH  20  23
ENDBRANCH   1  16
TORSDOF 4
