REMARK  Name = ZINC32041578
REMARK  8 active torsions:
REMARK  status: ('A' for Active; 'I' for Inactive)
REMARK    1  A    between atoms: C_1  and  O_2
REMARK    2  A    between atoms: O_2  and  C_3
REMARK    3  A    between atoms: C_8  and  C_9
REMARK    4  A    between atoms: C_9  and  C_11
REMARK    5  A    between atoms: C_9  and  N_28
REMARK    6  A    between atoms: C_11  and  N_12
REMARK    7  A    between atoms: C_13  and  C_15
REMARK    8  A    between atoms: C_15  and  N_16
REMARK                            x       y       z     vdW  Elec       q    Type
REMARK                         _______ _______ _______ _____ _____    ______ ____
ROOT
ATOM      1  N   UNL     1      -0.426  -0.994  -0.766  0.00  0.00    -0.315 N 
ATOM      2  C   UNL     1      -0.847  -2.147  -0.208  0.00  0.00    +0.231 C 
ATOM      3  O   UNL     1      -1.746  -2.777  -0.723  0.00  0.00    -0.274 OA
ATOM      4  H   UNL     1       0.390  -0.423  -0.298  0.00  0.00    +0.149 HD
ENDROOT
BRANCH   1   5
ATOM      5  C   UNL     1      -1.054  -0.502  -1.994  0.00  0.00    +0.093 C 
BRANCH   5   6
ATOM      6  C   UNL     1      -0.505   0.886  -2.327  0.00  0.00    -0.017 C 
BRANCH   6  12
ATOM      7  C   UNL     1      -0.417   1.012  -4.830  0.00  0.00    +0.122 A 
ATOM      8  C   UNL     1      -0.937   1.430  -6.046  0.00  0.00    +0.046 A 
ATOM      9  C   UNL     1      -2.094   2.185  -6.078  0.00  0.00    +0.004 A 
ATOM     10  C   UNL     1      -2.735   2.519  -4.899  0.00  0.00    +0.000 A 
ATOM     11  C   UNL     1      -2.221   2.099  -3.687  0.00  0.00    +0.005 A 
ATOM     12  C   UNL     1      -1.065   1.344  -3.650  0.00  0.00    -0.018 A 
BRANCH   7  14
ATOM     13  C   UNL     1       1.338  -0.031  -6.050  0.00  0.00    +0.277 C 
ATOM     14  O   UNL     1       0.724   0.274  -4.796  0.00  0.00    -0.495 OA
ENDBRANCH   7  14
ENDBRANCH   6  12
BRANCH   6  15
ATOM     15  N   UNL     1      -0.897   1.833  -1.275  0.00  0.00    +0.385 N 
ATOM     16  C   UNL     1      -0.395   3.199  -1.574  0.00  0.00    -0.078 C 
ATOM     17  C   UNL     1      -0.393   3.923  -0.210  0.00  0.00    -0.020 C 
ATOM     18  C   UNL     1      -0.303   2.792   0.840  0.00  0.00    -0.020 C 
ATOM     19  C   UNL     1      -0.259   1.485   0.020  0.00  0.00    -0.078 C 
ATOM     20  H   UNL     1      -1.996   1.784  -1.236  0.00  0.00    -0.081 HD
ENDBRANCH   6  15
ENDBRANCH   5   6
ENDBRANCH   1   5
BRANCH   2  21
ATOM     21  C   UNL     1      -0.200  -2.653   1.055  0.00  0.00    +0.209 C 
BRANCH  21  22
ATOM     22  N   UNL     1      -0.831  -3.913   1.456  0.00  0.00    -0.257 N 
ATOM     23  C   UNL     1      -1.940  -3.913   2.314  0.00  0.00    +0.079 A 
ATOM     24  C   UNL     1      -2.661  -2.749   2.536  0.00  0.00    +0.028 A 
ATOM     25  C   UNL     1      -3.755  -2.770   3.381  0.00  0.00    +0.017 A 
ATOM     26  C   UNL     1      -4.135  -3.948   3.999  0.00  0.00    +0.021 A 
ATOM     27  C   UNL     1      -3.422  -5.113   3.776  0.00  0.00    +0.062 A 
ATOM     28  C   UNL     1      -2.326  -5.100   2.932  0.00  0.00    +0.144 A 
ATOM     29  O   UNL     1      -1.615  -6.235   2.701  0.00  0.00    -0.481 OA
ATOM     30  C   UNL     1      -1.034  -6.378   1.401  0.00  0.00    +0.325 C 
ATOM     31  C   UNL     1      -0.349  -5.093   1.009  0.00  0.00    +0.258 C 
ATOM     32  O   UNL     1       0.631  -5.120   0.295  0.00  0.00    -0.271 OA
ATOM     33 BR   UNL     1      -5.633  -3.966   5.153  0.00  0.00    -0.050 Br
ENDBRANCH  21  22
ENDBRANCH   2  21
TORSDOF 7
