REMARK  Name = ZINC08592304
REMARK  6 active torsions:
REMARK  status: ('A' for Active; 'I' for Inactive)
REMARK    1  A    between atoms: C_1  and  C_2
REMARK    2  A    between atoms: C_2  and  C_3
REMARK    3  A    between atoms: C_2  and  N_4
REMARK    4  A    between atoms: C_5  and  C_7
REMARK    5  A    between atoms: C_7  and  S_8
REMARK    6  A    between atoms: S_8  and  C_9
REMARK                            x       y       z     vdW  Elec       q    Type
REMARK                         _______ _______ _______ _____ _____    ______ ____
ROOT
ATOM      1  C   UNL     1      -4.824  -4.323  -1.268  0.00  0.00    +0.138 A 
ATOM      2  C   UNL     1      -5.201  -5.646  -1.607  0.00  0.00    +0.154 A 
ATOM      3  N   UNL     1      -6.436  -6.058  -1.413  0.00  0.00    -0.228 NA
ATOM      4  C   UNL     1      -7.344  -5.220  -0.891  0.00  0.00    +0.091 A 
ATOM      5  C   UNL     1      -8.667  -5.636  -0.674  0.00  0.00    +0.030 A 
ATOM      6  C   UNL     1      -9.571  -4.767  -0.142  0.00  0.00    +0.002 A 
ATOM      7  C   UNL     1      -9.202  -3.467   0.192  0.00  0.00    +0.002 A 
ATOM      8  C   UNL     1      -7.927  -3.029  -0.005  0.00  0.00    +0.030 A 
ATOM      9  C   UNL     1      -6.969  -3.898  -0.551  0.00  0.00    +0.091 A 
ATOM     10  N   UNL     1      -5.705  -3.492  -0.749  0.00  0.00    -0.235 NA
ATOM     11  N   UNL     1      -4.262  -6.512  -2.147  0.00  0.00    -0.313 N 
ATOM     12  C   UNL     1      -3.486  -7.410  -1.282  0.00  0.00    +0.106 C 
ATOM     13  C   UNL     1      -3.641  -8.845  -1.795  0.00  0.00    +0.019 C 
ATOM     14  C   UNL     1      -3.246  -8.900  -3.272  0.00  0.00    +0.003 C 
ATOM     15  C   UNL     1      -4.174  -7.994  -4.084  0.00  0.00    +0.019 C 
ATOM     16  C   UNL     1      -4.029  -6.553  -3.598  0.00  0.00    +0.106 C 
ENDROOT
BRANCH   1  17
ATOM     17  S   UNL     1      -3.167  -3.789  -1.534  0.00  0.00    -0.093 S 
BRANCH  17  18
ATOM     18  C   UNL     1      -3.162  -2.070  -0.954  0.00  0.00    +0.171 C 
BRANCH  18  20
ATOM     19  N   UNL     1      -1.541  -0.211  -0.762  0.00  0.00    -0.312 N 
ATOM     20  C   UNL     1      -1.784  -1.485  -1.128  0.00  0.00    +0.223 C 
ATOM     21  O   UNL     1      -0.893  -2.161  -1.597  0.00  0.00    -0.275 OA
ATOM     22  H   UNL     1      -2.254   0.330  -0.387  0.00  0.00    +0.149 HD
BRANCH  19  24
ATOM     23  C   UNL     1      -0.305   1.879  -1.053  0.00  0.00    +0.027 C 
ATOM     24  C   UNL     1      -0.202   0.358  -0.932  0.00  0.00    +0.067 C 
ATOM     25  C   UNL     1       0.661   0.000   0.281  0.00  0.00    +0.027 C 
ENDBRANCH  19  24
ENDBRANCH  18  20
ENDBRANCH  17  18
ENDBRANCH   1  17
TORSDOF 4
