REMARK  Name = ZINC47872122
REMARK  12 active torsions:
REMARK  status: ('A' for Active; 'I' for Inactive)
REMARK    1  A    between atoms: C_1  and  C_2
REMARK    2  A    between atoms: C_7  and  N_12
REMARK    3  A    between atoms: C_9  and  C_11
REMARK    4  A    between atoms: N_12  and  C_13
REMARK    5  A    between atoms: C_13  and  N_15
REMARK    6  A    between atoms: N_15  and  N_16
REMARK    7  A    between atoms: C_17  and  C_19
REMARK    8  A    between atoms: C_19  and  C_21
REMARK    9  A    between atoms: C_19  and  N_24
REMARK   10  A    between atoms: C_21  and  C_22
REMARK   11  A    between atoms: C_21  and  C_23
REMARK   12  A    between atoms: C_25  and  C_27
REMARK                            x       y       z     vdW  Elec       q    Type
REMARK                         _______ _______ _______ _____ _____    ______ ____
ROOT
ATOM      1  N   UNL     1       2.767  -3.696   4.809  0.00  0.00    -0.234 N 
ATOM      2  C   UNL     1       3.545  -3.974   5.873  0.00  0.00    +0.250 C 
ATOM      3  O   UNL     1       3.405  -5.019   6.472  0.00  0.00    -0.272 OA
ATOM      4  H   UNL     1       2.828  -2.831   4.375  0.00  0.00    +0.173 HD
ENDROOT
BRANCH   1   5
ATOM      5  N   UNL     1       1.867  -4.657   4.329  0.00  0.00    -0.246 N 
ATOM      6  H   UNL     1       1.806  -5.523   4.763  0.00  0.00    +0.172 HD
BRANCH   5   7
ATOM      7  C   UNL     1       1.088  -4.380   3.265  0.00  0.00    +0.147 C 
ATOM      8  S   UNL     1      -0.010  -5.555   2.679  0.00  0.00    -0.017 S 
BRANCH   7   9
ATOM      9  N   UNL     1       1.174  -3.177   2.662  0.00  0.00    -0.322 N 
ATOM     10  H   UNL     1       1.797  -2.512   2.995  0.00  0.00    +0.148 HD
BRANCH   9  16
ATOM     11  C   UNL     1      -0.944   0.467   0.079  0.00  0.00    +0.008 C 
ATOM     12  C   UNL     1      -0.750  -1.047   0.188  0.00  0.00    -0.009 C 
ATOM     13  C   UNL     1      -0.080  -1.569  -1.085  0.00  0.00    +0.003 C 
ATOM     14  C   UNL     1       0.113  -3.082  -0.975  0.00  0.00    +0.002 C 
ATOM     15  C   UNL     1       0.998  -3.397   0.233  0.00  0.00    +0.022 C 
ATOM     16  C   UNL     1       0.328  -2.876   1.506  0.00  0.00    +0.075 C 
ATOM     17  C   UNL     1       0.134  -1.362   1.396  0.00  0.00    +0.009 C 
ATOM     18  C   UNL     1      -0.536  -0.840   2.669  0.00  0.00    +0.009 C 
ENDBRANCH   9  16
ENDBRANCH   7   9
ENDBRANCH   5   7
ENDBRANCH   1   5
BRANCH   2  19
ATOM     19  C   UNL     1       4.591  -2.985   6.320  0.00  0.00    +0.163 C 
BRANCH  19  20
ATOM     20  N   UNL     1       5.681  -3.697   6.992  0.00  0.00    -0.297 N 
ATOM     21  C   UNL     1       6.916  -3.158   7.030  0.00  0.00    +0.280 C 
ATOM     22  O   UNL     1       7.125  -2.080   6.506  0.00  0.00    -0.267 OA
ATOM     23  H   UNL     1       5.514  -4.556   7.410  0.00  0.00    +0.150 HD
BRANCH  21  24
ATOM     24  C   UNL     1       8.007  -3.871   7.703  0.00  0.00    +0.189 A 
ATOM     25  C   UNL     1       9.296  -3.438   7.820  0.00  0.00    +0.054 A 
ATOM     26  C   UNL     1       9.991  -4.426   8.534  0.00  0.00    +0.042 A 
ATOM     27  C   UNL     1       9.106  -5.407   8.819  0.00  0.00    +0.196 A 
ATOM     28  O   UNL     1       7.910  -5.066   8.321  0.00  0.00    -0.458 OA
ENDBRANCH  21  24
ENDBRANCH  19  20
BRANCH  19  29
ATOM     29  C   UNL     1       3.964  -1.981   7.289  0.00  0.00    +0.012 C 
ATOM     30  C   UNL     1       2.914  -1.148   6.551  0.00  0.00    +0.009 C 
ATOM     31  C   UNL     1       3.298  -2.734   8.443  0.00  0.00    +0.009 C 
ENDBRANCH  19  29
ENDBRANCH   2  19
TORSDOF 8
