REMARK  Name = ZINC64372314
REMARK  6 active torsions:
REMARK  status: ('A' for Active; 'I' for Inactive)
REMARK    1  A    between atoms: C_1  and  N_2
REMARK    2  A    between atoms: C_3  and  C_5
REMARK    3  A    between atoms: C_8  and  C_11
REMARK    4  A    between atoms: C_12  and  C_13
REMARK    5  A    between atoms: C_13  and  N_15
REMARK    6  A    between atoms: C_19  and  C_22
REMARK                            x       y       z     vdW  Elec       q    Type
REMARK                         _______ _______ _______ _____ _____    ______ ____
ROOT
ATOM      1  C   UNL     1      -2.214  -8.577  -0.029  0.00  0.00    +0.263 C 
ATOM      2  O   UNL     1      -1.149  -9.173  -0.038  0.00  0.00    -0.269 OA
ENDROOT
BRANCH   1   3
ATOM      3  N   UNL     1      -3.364  -9.262  -0.028  0.00  0.00    -0.142 NA
ATOM      4  C   UNL     1      -3.346 -10.592  -0.035  0.00  0.00    +0.216 A 
ATOM      5  N   UNL     1      -2.239 -11.383  -0.040  0.00  0.00    -0.308 N 
ATOM      6  H   UNL     1      -1.319 -11.075  -0.038  0.00  0.00    +0.170 HD
ATOM      7  C   UNL     1      -2.651 -12.698  -0.047  0.00  0.00    +0.179 A 
ATOM      8  N   UNL     1      -3.955 -12.728  -0.047  0.00  0.00    -0.151 NA
ATOM      9  N   UNL     1      -4.425 -11.408  -0.034  0.00  0.00    -0.246 N 
ATOM     10  H   UNL     1      -5.355 -11.130  -0.028  0.00  0.00    +0.192 HD
BRANCH   7  11
ATOM     11  C   UNL     1      -1.762 -13.881  -0.054  0.00  0.00    +0.108 A 
ATOM     12  C   UNL     1      -2.314 -15.162  -0.067  0.00  0.00    +0.031 A 
ATOM     13  C   UNL     1      -1.470 -16.258  -0.074  0.00  0.00    +0.004 A 
ATOM     14  C   UNL     1      -0.099 -16.038  -0.068  0.00  0.00    +0.020 A 
ATOM     15  C   UNL     1       0.381 -14.741  -0.055  0.00  0.00    +0.111 A 
ATOM     16  N   UNL     1      -0.445 -13.714  -0.054  0.00  0.00    -0.252 NA
ENDBRANCH   7  11
ENDBRANCH   1   3
BRANCH   1  18
ATOM     17  C   UNL     1      -1.078  -6.418  -0.023  0.00  0.00    +0.013 C 
ATOM     18  C   UNL     1      -2.234  -7.107  -0.021  0.00  0.00    +0.070 C 
BRANCH  17  22
ATOM     19  C   UNL     1      -1.136  -2.172   0.001  0.00  0.00    +0.037 A 
ATOM     20  C   UNL     1       0.084  -2.853  -0.008  0.00  0.00    +0.013 A 
ATOM     21  C   UNL     1       0.103  -4.229  -0.016  0.00  0.00    +0.008 A 
ATOM     22  C   UNL     1      -1.098  -4.946  -0.014  0.00  0.00    -0.025 A 
ATOM     23  C   UNL     1      -2.319  -4.262  -0.004  0.00  0.00    +0.008 A 
ATOM     24  C   UNL     1      -2.336  -2.886   0.009  0.00  0.00    +0.013 A 
BRANCH  19  27
ATOM     25  C   UNL     1      -0.018   1.461   0.010  0.00  0.00    +0.128 C 
ATOM     26  N   UNL     1       0.002  -0.004   0.002  0.00  0.00    -0.314 N 
ATOM     27  C   UNL     1      -1.156  -0.694   0.009  0.00  0.00    +0.244 C 
ATOM     28  O   UNL     1      -2.217  -0.100   0.023  0.00  0.00    -0.270 OA
ATOM     29  H   UNL     1       0.849  -0.478  -0.009  0.00  0.00    +0.149 HD
ENDBRANCH  19  27
ENDBRANCH  17  22
ENDBRANCH   1  18
TORSDOF 5
