REMARK  Name = ZINC65933080
REMARK  11 active torsions:
REMARK  status: ('A' for Active; 'I' for Inactive)
REMARK    1  A    between atoms: C_1  and  C_2
REMARK    2  A    between atoms: C_2  and  C_3
REMARK    3  A    between atoms: C_2  and  N_15
REMARK    4  A    between atoms: C_6  and  O_11
REMARK    5  A    between atoms: C_7  and  O_9
REMARK    6  A    between atoms: O_9  and  C_10
REMARK    7  A    between atoms: O_11  and  C_12
REMARK    8  A    between atoms: C_12  and  C_13
REMARK    9  A    between atoms: C_13  and  O_14
REMARK   10  A    between atoms: N_15  and  C_16
REMARK   11  A    between atoms: C_16  and  C_17
REMARK                            x       y       z     vdW  Elec       q    Type
REMARK                         _______ _______ _______ _____ _____    ______ ____
ROOT
ATOM      1  C   UNL     1      -0.019   1.526   0.010  0.00  0.00    -0.009 C 
ATOM      2  C   UNL     1       0.002  -0.004   0.002  0.00  0.00    -0.043 C 
ENDROOT
BRANCH   2   3
ATOM      3  C   UNL     1       0.731  -0.503   1.223  0.00  0.00    -0.058 A 
ATOM      4  C   UNL     1       2.113  -0.513   1.245  0.00  0.00    +0.006 A 
ATOM      5  C   UNL     1       2.787  -0.970   2.363  0.00  0.00    +0.049 A 
ATOM      6  C   UNL     1       2.076  -1.419   3.464  0.00  0.00    +0.162 A 
ATOM      7  C   UNL     1       0.684  -1.409   3.442  0.00  0.00    +0.162 A 
ATOM      8  C   UNL     1       0.016  -0.945   2.320  0.00  0.00    +0.051 A 
BRANCH   7   9
ATOM      9  O   UNL     1      -0.017  -1.849   4.521  0.00  0.00    -0.491 OA
ATOM     10  C   UNL     1      -1.443  -1.809   4.427  0.00  0.00    +0.277 C 
ENDBRANCH   7   9
BRANCH   6  11
ATOM     11  O   UNL     1       2.737  -1.869   4.564  0.00  0.00    -0.486 OA
BRANCH  11  12
ATOM     12  C   UNL     1       4.165  -1.851   4.516  0.00  0.00    +0.257 C 
BRANCH  12  13
ATOM     13  C   UNL     1       4.726  -2.390   5.833  0.00  0.00    +0.196 C 
BRANCH  13  14
ATOM     14  O   UNL     1       4.370  -3.767   5.975  0.00  0.00    -0.392 OA
ATOM     15  H   UNL     1       4.694  -4.175   6.790  0.00  0.00    +0.210 HD
ENDBRANCH  13  14
ENDBRANCH  12  13
ENDBRANCH  11  12
ENDBRANCH   6  11
ENDBRANCH   2   3
BRANCH   2  16
ATOM     16  N   UNL     1       0.690  -0.478  -1.207  0.00  0.00    +0.386 N 
ATOM     17  H   UNL     1       1.608  -0.063  -1.256  0.00  0.00    -0.085 HD
ATOM     18  H   UNL     1       0.776  -1.482  -1.172  0.00  0.00    -0.085 HD
BRANCH  16  19
ATOM     19  C   UNL     1      -0.086  -0.093  -2.394  0.00  0.00    -0.042 C 
BRANCH  19  20
ATOM     20  C   UNL     1       0.620  -0.579  -3.634  0.00  0.00    -0.019 A 
ATOM     21  C   UNL     1       1.393   0.294  -4.376  0.00  0.00    +0.005 A 
ATOM     22  C   UNL     1       2.041  -0.148  -5.514  0.00  0.00    +0.004 A 
ATOM     23  C   UNL     1       1.920  -1.466  -5.914  0.00  0.00    +0.049 A 
ATOM     24  C   UNL     1       1.148  -2.346  -5.175  0.00  0.00    +0.166 A 
ATOM     25  C   UNL     1       0.498  -1.902  -4.025  0.00  0.00    +0.168 A 
ATOM     26  O   UNL     1      -0.185  -2.949  -3.478  0.00  0.00    -0.452 OA
ATOM     27  C   UNL     1      -0.275  -3.937  -4.522  0.00  0.00    +0.466 C 
ATOM     28  O   UNL     1       0.869  -3.671  -5.349  0.00  0.00    -0.453 OA
ENDBRANCH  19  20
ENDBRANCH  16  19
ENDBRANCH   2  16
TORSDOF 9
