REMARK  Name = ZINC67193255
REMARK  9 active torsions:
REMARK  status: ('A' for Active; 'I' for Inactive)
REMARK    1  A    between atoms: C_1  and  C_2
REMARK    2  A    between atoms: C_5  and  C_28
REMARK    3  A    between atoms: C_6  and  N_8
REMARK    4  A    between atoms: N_8  and  C_9
REMARK    5  A    between atoms: C_9  and  N_11
REMARK    6  A    between atoms: N_11  and  N_12
REMARK    7  A    between atoms: C_13  and  C_15
REMARK    8  A    between atoms: C_15  and  N_16
REMARK    9  A    between atoms: C_17  and  C_19
REMARK                            x       y       z     vdW  Elec       q    Type
REMARK                         _______ _______ _______ _____ _____    ______ ____
ROOT
ATOM      1  N   UNL     1       0.281  -4.220   4.702  0.00  0.00    -0.234 N 
ATOM      2  C   UNL     1       0.397  -4.905   5.857  0.00  0.00    +0.246 C 
ATOM      3  O   UNL     1       0.485  -4.309   6.909  0.00  0.00    -0.273 OA
ATOM      4  H   UNL     1       0.210  -4.697   3.860  0.00  0.00    +0.173 HD
ENDROOT
BRANCH   1   5
ATOM      5  N   UNL     1       0.264  -2.820   4.717  0.00  0.00    -0.246 N 
ATOM      6  H   UNL     1       0.335  -2.342   5.558  0.00  0.00    +0.172 HD
BRANCH   5   7
ATOM      7  C   UNL     1       0.148  -2.135   3.562  0.00  0.00    +0.151 C 
ATOM      8  S   UNL     1       0.127  -0.423   3.580  0.00  0.00    -0.017 S 
BRANCH   7   9
ATOM      9  N   UNL     1       0.050  -2.797   2.392  0.00  0.00    -0.296 N 
ATOM     10  H   UNL     1      -0.018  -3.765   2.387  0.00  0.00    +0.154 HD
BRANCH   9  16
ATOM     11  C   UNL     1       1.922   0.766  -0.430  0.00  0.00    +0.044 C 
ATOM     12  C   UNL     1       0.942  -0.358  -0.209  0.00  0.00    -0.049 A 
ATOM     13  C   UNL     1       0.037  -0.689  -1.201  0.00  0.00    +0.004 A 
ATOM     14  C   UNL     1      -0.864  -1.719  -1.002  0.00  0.00    +0.005 A 
ATOM     15  C   UNL     1      -0.863  -2.420   0.188  0.00  0.00    -0.029 A 
ATOM     16  C   UNL     1       0.046  -2.090   1.185  0.00  0.00    +0.036 A 
ATOM     17  C   UNL     1       0.953  -1.058   0.980  0.00  0.00    +0.027 A 
ATOM     18  C   UNL     1      -1.845  -3.542   0.405  0.00  0.00    +0.045 C 
ENDBRANCH   9  16
ENDBRANCH   7   9
ENDBRANCH   5   7
ENDBRANCH   1   5
BRANCH   2  19
ATOM     19  C   UNL     1       0.415  -6.412   5.841  0.00  0.00    +0.202 C 
BRANCH  19  20
ATOM     20  N   UNL     1       0.548  -6.913   7.211  0.00  0.00    -0.303 N 
ATOM     21  C   UNL     1       0.587  -8.241   7.442  0.00  0.00    +0.244 C 
ATOM     22  O   UNL     1       0.512  -9.022   6.514  0.00  0.00    -0.270 OA
ATOM     23  H   UNL     1       0.608  -6.290   7.952  0.00  0.00    +0.150 HD
BRANCH  21  24
ATOM     24  C   UNL     1       0.721  -8.746   8.825  0.00  0.00    +0.037 A 
ATOM     25  C   UNL     1       0.801  -7.853   9.894  0.00  0.00    +0.013 A 
ATOM     26  C   UNL     1       0.925  -8.334  11.180  0.00  0.00    +0.004 A 
ATOM     27  C   UNL     1       0.971  -9.699  11.417  0.00  0.00    -0.044 A 
ATOM     28  C   UNL     1       0.891 -10.590  10.361  0.00  0.00    -0.043 A 
ATOM     29  C   UNL     1       0.761 -10.119   9.068  0.00  0.00    +0.017 A 
ATOM     30  C   UNL     1       0.963 -12.009  10.883  0.00  0.00    +0.036 C 
ATOM     31  C   UNL     1       1.532 -11.886  12.312  0.00  0.00    +0.009 C 
ATOM     32  C   UNL     1       1.101 -10.461  12.719  0.00  0.00    +0.036 C 
ENDBRANCH  21  24
ENDBRANCH  19  20
ENDBRANCH   2  19
TORSDOF 7
