REMARK  Name = ZINC65148075
REMARK  5 active torsions:
REMARK  status: ('A' for Active; 'I' for Inactive)
REMARK    1  A    between atoms: C_4  and  C_8
REMARK    2  A    between atoms: C_8  and  C_9
REMARK    3  A    between atoms: N_11  and  N_12
REMARK    4  A    between atoms: N_15  and  C_16
REMARK    5  A    between atoms: C_16  and  C_17
REMARK                            x       y       z     vdW  Elec       q    Type
REMARK                         _______ _______ _______ _____ _____    ______ ____
ROOT
ATOM      1  C   UNL     1       4.166  -0.960   1.376  0.00  0.00    +0.234 C 
ATOM      2  O   UNL     1       3.488  -0.580   2.307  0.00  0.00    -0.274 OA
ATOM      3  N   UNL     1       5.325  -1.608   1.607  0.00  0.00    -0.233 N 
ATOM      4  H   UNL     1       5.868  -1.911   0.863  0.00  0.00    +0.173 HD
ENDROOT
BRANCH   3   5
ATOM      5  N   UNL     1       5.746  -1.843   2.923  0.00  0.00    -0.218 N 
ATOM      6  C   UNL     1       6.905  -2.491   3.154  0.00  0.00    +0.316 C 
ATOM      7  O   UNL     1       7.271  -2.694   4.295  0.00  0.00    -0.251 OA
ATOM      8  N   UNL     1       7.659  -2.913   2.119  0.00  0.00    -0.296 N 
ATOM      9  H   UNL     1       5.204  -1.539   3.667  0.00  0.00    +0.174 HD
ATOM     10  H   UNL     1       7.368  -2.750   1.208  0.00  0.00    +0.150 HD
BRANCH   8  11
ATOM     11  C   UNL     1       8.919  -3.617   2.370  0.00  0.00    +0.137 C 
BRANCH  11  12
ATOM     12  C   UNL     1       9.573  -3.983   1.036  0.00  0.00    +0.135 C 
ATOM     13  C   UNL     1      10.842  -4.825   1.289  0.00  0.00    +0.035 C 
ATOM     14  C   UNL     1      11.823  -4.272   0.220  0.00  0.00    +0.031 C 
ATOM     15  C   UNL     1      11.400  -2.782   0.175  0.00  0.00    +0.160 C 
ATOM     16  O   UNL     1       9.974  -2.792   0.348  0.00  0.00    -0.375 OA
ENDBRANCH  11  12
ENDBRANCH   8  11
ENDBRANCH   3   5
BRANCH   1  17
ATOM     17  C   UNL     1       3.713  -0.707  -0.038  0.00  0.00    +0.135 C 
BRANCH  17  21
ATOM     18  C   UNL     1      -0.017   1.378   0.010  0.00  0.00    +0.003 A 
ATOM     19  C   UNL     1       1.171   2.086   0.002  0.00  0.00    +0.020 A 
ATOM     20  C   UNL     1       2.378   1.411  -0.013  0.00  0.00    +0.046 A 
ATOM     21  C   UNL     1       2.398   0.028  -0.021  0.00  0.00    -0.002 A 
ATOM     22  C   UNL     1       1.209  -0.680  -0.013  0.00  0.00    +0.046 A 
ATOM     23  C   UNL     1       0.002  -0.004   0.002  0.00  0.00    +0.020 A 
ATOM     24 CL   UNL     1       1.233  -2.416  -0.023  0.00  0.00    -0.083 Cl
ATOM     25 CL   UNL     1       3.869   2.300  -0.024  0.00  0.00    -0.083 Cl
ENDBRANCH  17  21
ENDBRANCH   1  17
TORSDOF 5
