REMARK  Name = ZINC06904925
REMARK  11 active torsions:
REMARK  status: ('A' for Active; 'I' for Inactive)
REMARK    1  A    between atoms: C_1  and  O_2
REMARK    2  A    between atoms: O_2  and  C_3
REMARK    3  A    between atoms: C_3  and  C_4
REMARK    4  A    between atoms: C_4  and  N_5
REMARK    5  A    between atoms: C_6  and  C_8
REMARK    6  A    between atoms: C_8  and  C_10
REMARK    7  A    between atoms: C_8  and  N_17
REMARK    8  A    between atoms: N_17  and  C_18
REMARK    9  A    between atoms: C_23  and  C_25
REMARK   10  A    between atoms: C_26  and  N_33
REMARK   11  A    between atoms: C_27  and  C_30
REMARK                            x       y       z     vdW  Elec       q    Type
REMARK                         _______ _______ _______ _____ _____    ______ ____
ROOT
ATOM      1  N   UNL     1       0.119   1.481   0.056  0.00  0.00    -0.278 N 
ATOM      2  C   UNL     1       1.254   2.108  -0.312  0.00  0.00    +0.258 C 
ATOM      3  O   UNL     1       1.295   3.324  -0.340  0.00  0.00    -0.269 OA
ENDROOT
BRANCH   1   4
ATOM      4  C   UNL     1       0.100   0.023   0.197  0.00  0.00    +0.077 C 
ATOM      5  C   UNL     1      -1.335  -0.462   0.487  0.00  0.00    +0.022 C 
ATOM      6  C   UNL     1      -1.146  -1.629   1.489  0.00  0.00    +0.002 C 
ATOM      7  C   UNL     1       0.017  -1.129   2.381  0.00  0.00    +0.002 C 
ATOM      8  C   UNL     1       0.960  -0.402   1.400  0.00  0.00    +0.022 C 
ENDBRANCH   1   4
BRANCH   2   9
ATOM      9  C   UNL     1       2.436   1.327  -0.678  0.00  0.00    +0.115 A 
ATOM     10  C   UNL     1       3.699   1.767  -1.080  0.00  0.00    +0.076 A 
ATOM     11  C   UNL     1       4.572   0.713  -1.346  0.00  0.00    +0.155 A 
ATOM     12  N   UNL     1       4.151  -0.524  -1.202  0.00  0.00    -0.203 NA
ATOM     13  S   UNL     1       2.652  -0.441  -0.722  0.00  0.00    +0.019 S 
BRANCH  11  14
ATOM     14  C   UNL     1       5.954   0.983  -1.784  0.00  0.00    +0.262 C 
ATOM     15  O   UNL     1       6.337   2.130  -1.915  0.00  0.00    -0.269 OA
ATOM     16  N   UNL     1       6.793  -0.041  -2.039  0.00  0.00    -0.324 N 
ATOM     17  H   UNL     1       6.487  -0.956  -1.935  0.00  0.00    +0.145 HD
ATOM     18  H   UNL     1       7.702   0.137  -2.327  0.00  0.00    +0.145 HD
ENDBRANCH  11  14
BRANCH  10  19
ATOM     19  N   UNL     1       4.045   3.106  -1.202  0.00  0.00    -0.355 N 
ATOM     20  H   UNL     1       3.393   3.796  -1.002  0.00  0.00    +0.142 HD
ATOM     21  H   UNL     1       4.940   3.351  -1.486  0.00  0.00    +0.142 HD
ENDBRANCH  10  19
ENDBRANCH   2   9
BRANCH   1  22
ATOM     22  C   UNL     1      -1.098   2.257   0.310  0.00  0.00    +0.193 C 
BRANCH  22  23
ATOM     23  C   UNL     1      -1.555   2.026   1.727  0.00  0.00    -0.018 A 
ATOM     24  C   UNL     1      -2.902   1.896   2.006  0.00  0.00    +0.009 A 
ATOM     25  C   UNL     1      -3.322   1.679   3.305  0.00  0.00    +0.038 A 
ATOM     26  C   UNL     1      -2.393   1.603   4.328  0.00  0.00    +0.123 A 
ATOM     27  C   UNL     1      -1.044   1.740   4.049  0.00  0.00    +0.038 A 
ATOM     28  C   UNL     1      -0.626   1.951   2.748  0.00  0.00    +0.009 A 
ATOM     29  F   UNL     1      -2.802   1.397   5.599  0.00  0.00    -0.205 F 
ENDBRANCH  22  23
BRANCH  22  31
ATOM     30  N   UNL     1      -3.373   2.447  -0.641  0.00  0.00    -0.311 N 
ATOM     31  C   UNL     1      -2.180   1.821  -0.644  0.00  0.00    +0.238 C 
ATOM     32  O   UNL     1      -1.977   0.906  -1.414  0.00  0.00    -0.273 OA
ATOM     33  H   UNL     1      -3.511   3.225  -0.079  0.00  0.00    +0.149 HD
BRANCH  30  34
ATOM     34  C   UNL     1      -4.462   1.952  -1.487  0.00  0.00    +0.132 C 
BRANCH  34  35
ATOM     35  C   UNL     1      -5.697   2.834  -1.297  0.00  0.00    +0.178 C 
BRANCH  35  37
ATOM     36  C   UNL     1      -6.513   5.062  -1.641  0.00  0.00    +0.194 C 
ATOM     37  O   UNL     1      -5.418   4.153  -1.773  0.00  0.00    -0.381 OA
ENDBRANCH  35  37
ENDBRANCH  34  35
ENDBRANCH  30  34
ENDBRANCH  22  31
ENDBRANCH   1  22
TORSDOF 10
