REMARK  Name = ZINC56196037
REMARK  7 active torsions:
REMARK  status: ('A' for Active; 'I' for Inactive)
REMARK    1  A    between atoms: C_1  and  C_2
REMARK    2  A    between atoms: C_2  and  C_3
REMARK    3  A    between atoms: C_2  and  N_4
REMARK    4  A    between atoms: C_5  and  C_7
REMARK    5  A    between atoms: N_9  and  N_10
REMARK    6  A    between atoms: C_11  and  C_13
REMARK    7  A    between atoms: N_21  and  C_22
REMARK                            x       y       z     vdW  Elec       q    Type
REMARK                         _______ _______ _______ _____ _____    ______ ____
ROOT
ATOM      1  N   UNL     1       4.728  -1.615  -3.619  0.00  0.00    -0.229 N 
ATOM      2  C   UNL     1       6.070  -1.742  -3.622  0.00  0.00    +0.278 C 
ATOM      3  O   UNL     1       6.717  -1.378  -2.658  0.00  0.00    -0.267 OA
ATOM      4  H   UNL     1       4.218  -1.835  -4.415  0.00  0.00    +0.173 HD
ENDROOT
BRANCH   2   5
ATOM      5  C   UNL     1       6.751  -2.318  -4.789  0.00  0.00    +0.121 A 
ATOM      6  C   UNL     1       7.369  -1.610  -5.772  0.00  0.00    +0.056 A 
ATOM      7  C   UNL     1       7.897  -2.536  -6.704  0.00  0.00    +0.015 A 
ATOM      8  C   UNL     1       8.620  -2.395  -7.896  0.00  0.00    +0.011 A 
ATOM      9  C   UNL     1       9.000  -3.504  -8.595  0.00  0.00    +0.001 A 
ATOM     10  C   UNL     1       8.676  -4.775  -8.136  0.00  0.00    +0.002 A 
ATOM     11  C   UNL     1       7.966  -4.939  -6.968  0.00  0.00    +0.026 A 
ATOM     12  C   UNL     1       7.567  -3.823  -6.237  0.00  0.00    +0.050 A 
ATOM     13  N   UNL     1       6.871  -3.669  -5.061  0.00  0.00    -0.338 N 
ATOM     14  C   UNL     1       6.341  -4.756  -4.235  0.00  0.00    +0.149 C 
ATOM     15 BR   UNL     1       7.500   0.274  -5.875  0.00  0.00    -0.047 Br
ENDBRANCH   2   5
BRANCH   1  18
ATOM     16  C   UNL     1       2.727  -1.041  -2.464  0.00  0.00    +0.315 C 
ATOM     17  O   UNL     1       2.090  -1.316  -3.460  0.00  0.00    -0.264 OA
ATOM     18  N   UNL     1       4.069  -1.167  -2.467  0.00  0.00    -0.226 N 
ATOM     19  H   UNL     1       4.578  -0.948  -1.671  0.00  0.00    +0.173 HD
BRANCH  16  21
ATOM     20  N   UNL     1       0.682  -0.437  -1.232  0.00  0.00    -0.305 N 
ATOM     21  C   UNL     1       2.024  -0.563  -1.235  0.00  0.00    +0.301 C 
ATOM     22  O   UNL     1       2.661  -0.289  -0.239  0.00  0.00    -0.265 OA
ATOM     23  H   UNL     1       0.173  -0.657  -2.028  0.00  0.00    +0.149 HD
BRANCH  20  25
ATOM     24  C   UNL     1      -0.010   1.561  -0.004  0.00  0.00    +0.027 C 
ATOM     25  C   UNL     1      -0.007   0.031  -0.027  0.00  0.00    +0.067 C 
ATOM     26  C   UNL     1      -1.448  -0.482  -0.032  0.00  0.00    +0.027 C 
ENDBRANCH  20  25
ENDBRANCH  16  21
ENDBRANCH   1  18
TORSDOF 4
