REMARK  Name = ZINC44254659
REMARK  13 active torsions:
REMARK  status: ('A' for Active; 'I' for Inactive)
REMARK    1  A    between atoms: C_1  and  O_2
REMARK    2  A    between atoms: O_2  and  C_3
REMARK    3  A    between atoms: C_6  and  C_24
REMARK    4  A    between atoms: C_8  and  O_9
REMARK    5  A    between atoms: O_9  and  C_10
REMARK    6  A    between atoms: C_13  and  C_16
REMARK    7  A    between atoms: C_16  and  S_17
REMARK    8  A    between atoms: S_17  and  C_18
REMARK    9  A    between atoms: C_24  and  C_25
REMARK   10  A    between atoms: C_25  and  C_26
REMARK   11  A    between atoms: C_26  and  C_28
REMARK   12  A    between atoms: C_26  and  N_32
REMARK   13  A    between atoms: C_28  and  C_29
REMARK                            x       y       z     vdW  Elec       q    Type
REMARK                         _______ _______ _______ _____ _____    ______ ____
ROOT
ATOM      1  C   UNL     1      -1.146  -0.622   0.212  0.00  0.00    +0.162 A 
ATOM      2  C   UNL     1      -2.262   0.135   0.531  0.00  0.00    +0.050 A 
ATOM      3  C   UNL     1      -3.424  -0.489   0.946  0.00  0.00    +0.007 A 
ATOM      4  C   UNL     1      -3.476  -1.867   1.044  0.00  0.00    -0.044 A 
ATOM      5  C   UNL     1      -2.366  -2.628   0.728  0.00  0.00    +0.053 A 
ATOM      6  C   UNL     1      -1.199  -2.010   0.306  0.00  0.00    +0.170 A 
ENDROOT
BRANCH   1   8
ATOM      7  C   UNL     1      -0.019   1.417  -0.268  0.00  0.00    +0.277 C 
ATOM      8  O   UNL     1      -0.002  -0.010  -0.196  0.00  0.00    -0.491 OA
ENDBRANCH   1   8
BRANCH   6   9
ATOM      9  O   UNL     1      -0.108  -2.756  -0.012  0.00  0.00    -0.452 OA
BRANCH   9  10
ATOM     10  C   UNL     1      -0.208  -4.108   0.092  0.00  0.00    +0.129 A 
ATOM     11  C   UNL     1      -0.631  -4.859  -0.995  0.00  0.00    +0.046 A 
ATOM     12  C   UNL     1      -0.732  -6.232  -0.886  0.00  0.00    +0.008 A 
ATOM     13  C   UNL     1      -0.411  -6.859   0.304  0.00  0.00    -0.037 A 
ATOM     14  C   UNL     1       0.011  -6.112   1.389  0.00  0.00    +0.008 A 
ATOM     15  C   UNL     1       0.118  -4.739   1.284  0.00  0.00    +0.046 A 
BRANCH  13  16
ATOM     16  C   UNL     1      -0.521  -8.357   0.419  0.00  0.00    +0.109 C 
BRANCH  16  17
ATOM     17  S   UNL     1       1.056  -9.118  -0.055  0.00  0.00    -0.121 S 
BRANCH  17  18
ATOM     18  C   UNL     1       0.768 -10.846   0.130  0.00  0.00    +0.008 A 
ATOM     19  C   UNL     1      -0.473 -11.304   0.553  0.00  0.00    +0.015 A 
ATOM     20  C   UNL     1      -0.695 -12.659   0.698  0.00  0.00    +0.001 A 
ATOM     21  C   UNL     1       0.317 -13.561   0.421  0.00  0.00    +0.000 A 
ATOM     22  C   UNL     1       1.554 -13.108  -0.000  0.00  0.00    +0.001 A 
ATOM     23  C   UNL     1       1.781 -11.755  -0.153  0.00  0.00    +0.015 A 
ENDBRANCH  17  18
ENDBRANCH  16  17
ENDBRANCH  13  16
ENDBRANCH   9  10
ENDBRANCH   6   9
BRANCH   4  24
ATOM     24  C   UNL     1      -4.745  -2.541   1.497  0.00  0.00    +0.033 C 
BRANCH  24  25
ATOM     25  C   UNL     1      -5.621  -2.850   0.281  0.00  0.00    -0.011 C 
BRANCH  25  26
ATOM     26  C   UNL     1      -6.909  -3.535   0.741  0.00  0.00    -0.066 C 
BRANCH  26  27
ATOM     27  N   UNL     1      -6.586  -4.842   1.329  0.00  0.00    +0.380 N 
ATOM     28  H   UNL     1      -5.973  -4.712   2.120  0.00  0.00    -0.090 HD
ATOM     29  H   UNL     1      -7.436  -5.293   1.633  0.00  0.00    -0.090 HD
ATOM     30  H   UNL     1      -6.128  -5.417   0.639  0.00  0.00    -0.090 HD
ENDBRANCH  26  27
BRANCH  26  31
ATOM     31  C   UNL     1      -7.839  -3.731  -0.459  0.00  0.00    +0.079 C 
BRANCH  31  32
ATOM     32  C   UNL     1      -9.155  -4.292   0.013  0.00  0.00    +0.209 C 
ATOM     33  O   UNL     1      -9.333  -4.514   1.192  0.00  0.00    -0.276 OA
ATOM     34  N   UNL     1     -10.136  -4.548  -0.876  0.00  0.00    -0.329 N 
ATOM     35  H   UNL     1      -9.993  -4.372  -1.819  0.00  0.00    +0.145 HD
ATOM     36  H   UNL     1     -10.983  -4.910  -0.573  0.00  0.00    +0.145 HD
ENDBRANCH  31  32
ENDBRANCH  26  31
ENDBRANCH  25  26
ENDBRANCH  24  25
ENDBRANCH   4  24
TORSDOF 12
