REMARK  Name = ZINC09215984
REMARK  9 active torsions:
REMARK  status: ('A' for Active; 'I' for Inactive)
REMARK    1  A    between atoms: C_1  and  C_2
REMARK    2  A    between atoms: N_13  and  C_18
REMARK    3  A    between atoms: C_15  and  C_16
REMARK    4  A    between atoms: C_18  and  C_19
REMARK    5  A    between atoms: C_19  and  C_21
REMARK    6  A    between atoms: C_19  and  O_34
REMARK    7  A    between atoms: C_21  and  N_64
REMARK    8  A    between atoms: C_24  and  C_27
REMARK    9  A    between atoms: C_27  and  C_28
REMARK                            x       y       z     vdW  Elec       q    Type
REMARK                         _______ _______ _______ _____ _____    ______ ____
ROOT
ATOM      1  C   UNL     1      -2.695  -2.622  -0.517  0.00  0.00    +0.153 C 
ENDROOT
BRANCH   1  14
ATOM      2  C   UNL     1      -2.303  -4.844  -5.616  0.00  0.00    +0.045 C 
ATOM      3  C   UNL     1      -2.369  -5.289  -4.177  0.00  0.00    -0.024 A 
ATOM      4  C   UNL     1      -2.332  -6.616  -3.862  0.00  0.00    +0.075 A 
ATOM      5  C   UNL     1      -2.386  -7.017  -2.522  0.00  0.00    +0.258 A 
ATOM      6  O   UNL     1      -2.354  -8.206  -2.247  0.00  0.00    -0.267 OA
ATOM      7  N   UNL     1      -2.486  -6.109  -1.531  0.00  0.00    -0.260 N 
ATOM      8  C   UNL     1      -2.568  -6.265  -0.148  0.00  0.00    +0.075 A 
ATOM      9  C   UNL     1      -2.577  -7.381   0.678  0.00  0.00    +0.028 A 
ATOM     10  C   UNL     1      -2.671  -7.223   2.046  0.00  0.00    +0.002 A 
ATOM     11  C   UNL     1      -2.759  -5.956   2.599  0.00  0.00    +0.002 A 
ATOM     12  C   UNL     1      -2.752  -4.840   1.786  0.00  0.00    +0.028 A 
ATOM     13  C   UNL     1      -2.657  -4.988   0.409  0.00  0.00    +0.068 A 
ATOM     14  N   UNL     1      -2.627  -4.080  -0.641  0.00  0.00    -0.322 N 
ATOM     15  C   UNL     1      -2.529  -4.779  -1.811  0.00  0.00    +0.140 A 
ATOM     16  C   UNL     1      -2.469  -4.341  -3.141  0.00  0.00    +0.096 A 
BRANCH  16  17
ATOM     17  C   UNL     1      -2.510  -2.942  -3.444  0.00  0.00    +0.103 C 
ATOM     18  N   UNL     1      -2.542  -1.832  -3.684  0.00  0.00    -0.191 NA
ENDBRANCH  16  17
ENDBRANCH   1  14
BRANCH   1  19
ATOM     19  C   UNL     1      -1.280  -2.055  -0.382  0.00  0.00    +0.118 C 
BRANCH  19  20
ATOM     20  O   UNL     1      -0.552  -2.298  -1.588  0.00  0.00    -0.392 OA
ATOM     21  H   UNL     1      -0.947  -1.895  -2.373  0.00  0.00    +0.210 HD
ENDBRANCH  19  20
BRANCH  19  22
ATOM     22  C   UNL     1      -1.356  -0.548  -0.128  0.00  0.00    -0.045 C 
BRANCH  22  28
ATOM     23  C   UNL     1      -0.018   1.464   0.010  0.00  0.00    -0.078 C 
ATOM     24  C   UNL     1       1.417   1.995  -0.001  0.00  0.00    -0.015 C 
ATOM     25  C   UNL     1       2.160   1.470   1.231  0.00  0.00    -0.010 C 
ATOM     26  C   UNL     1       2.125  -0.061   1.224  0.00  0.00    -0.015 C 
ATOM     27  C   UNL     1       0.669  -0.533   1.199  0.00  0.00    -0.078 C 
ATOM     28  N   UNL     1       0.017  -0.013  -0.022  0.00  0.00    +0.381 N 
ATOM     29  H   UNL     1       0.556  -0.316  -0.842  0.00  0.00    -0.082 HD
BRANCH  25  30
ATOM     30  C   UNL     1       3.613   1.947   1.195  0.00  0.00    +0.038 C 
BRANCH  30  31
ATOM     31  C   UNL     1       3.652   3.448   1.326  0.00  0.00    -0.047 A 
ATOM     32  C   UNL     1       3.612   4.242   0.195  0.00  0.00    +0.003 A 
ATOM     33  C   UNL     1       3.643   5.619   0.315  0.00  0.00    +0.000 A 
ATOM     34  C   UNL     1       3.724   6.201   1.566  0.00  0.00    +0.000 A 
ATOM     35  C   UNL     1       3.768   5.408   2.697  0.00  0.00    +0.000 A 
ATOM     36  C   UNL     1       3.733   4.031   2.577  0.00  0.00    +0.003 A 
ENDBRANCH  30  31
ENDBRANCH  25  30
ENDBRANCH  22  28
ENDBRANCH  19  22
ENDBRANCH   1  19
TORSDOF 8
