REMARK  Name = ZINC03346790
REMARK  6 active torsions:
REMARK  status: ('A' for Active; 'I' for Inactive)
REMARK    1  A    between atoms: C_1  and  C_2
REMARK    2  A    between atoms: C_7  and  N_8
REMARK    3  A    between atoms: C_9  and  C_11
REMARK    4  A    between atoms: C_11  and  N_12
REMARK    5  A    between atoms: C_15  and  C_19
REMARK    6  A    between atoms: C_15  and  C_20
REMARK                            x       y       z     vdW  Elec       q    Type
REMARK                         _______ _______ _______ _____ _____    ______ ____
ROOT
ATOM      1  N   UNL     1       0.002  -0.004   0.018  0.00  0.00    -0.215 N 
ATOM      2  C   UNL     1       0.031  -0.766   1.130  0.00  0.00    +0.251 C 
ATOM      3  O   UNL     1       0.047  -0.383   2.280  0.00  0.00    -0.272 OA
ATOM      4  C   UNL     1       0.041  -2.201   0.643  0.00  0.00    +0.135 C 
ATOM      5  N   UNL     1       0.013  -2.069  -0.824  0.00  0.00    -0.281 N 
ATOM      6  C   UNL     1      -0.014  -0.751  -1.091  0.00  0.00    +0.310 C 
ATOM      7  O   UNL     1      -0.045  -0.290  -2.216  0.00  0.00    -0.252 OA
ATOM      8  C   UNL     1       1.315  -2.915   1.098  0.00  0.00    +0.047 C 
ATOM      9  H   UNL     1       0.011  -2.792  -1.471  0.00  0.00    +0.152 HD
ENDROOT
BRANCH   4  10
ATOM     10  C   UNL     1      -1.180  -2.935   1.132  0.00  0.00    -0.015 A 
ATOM     11  C   UNL     1      -1.763  -2.582   2.335  0.00  0.00    +0.007 A 
ATOM     12  C   UNL     1      -2.887  -3.252   2.782  0.00  0.00    +0.020 A 
ATOM     13  C   UNL     1      -3.422  -4.283   2.030  0.00  0.00    +0.041 A 
ATOM     14  C   UNL     1      -2.834  -4.640   0.829  0.00  0.00    +0.020 A 
ATOM     15  C   UNL     1      -1.714  -3.966   0.381  0.00  0.00    +0.007 A 
ATOM     16 CL   UNL     1      -4.828  -5.129   2.595  0.00  0.00    -0.084 Cl
ENDBRANCH   4  10
BRANCH   1  17
ATOM     17  C   UNL     1      -0.018   1.461   0.025  0.00  0.00    +0.214 C 
BRANCH  17  19
ATOM     18  N   UNL     1       1.624   3.311   0.004  0.00  0.00    -0.284 N 
ATOM     19  C   UNL     1       1.396   1.982   0.003  0.00  0.00    +0.235 C 
ATOM     20  O   UNL     1       2.328   1.207  -0.017  0.00  0.00    -0.274 OA
ATOM     21  H   UNL     1       0.881   3.931  -0.061  0.00  0.00    +0.155 HD
BRANCH  18  28
ATOM     22  C   UNL     1       2.182   5.893  -1.052  0.00  0.00    +0.045 C 
ATOM     23  C   UNL     1       3.249   5.051  -0.402  0.00  0.00    -0.029 A 
ATOM     24  C   UNL     1       4.541   5.529  -0.300  0.00  0.00    +0.005 A 
ATOM     25  C   UNL     1       5.522   4.753   0.289  0.00  0.00    +0.000 A 
ATOM     26  C   UNL     1       5.212   3.500   0.785  0.00  0.00    +0.002 A 
ATOM     27  C   UNL     1       3.921   3.019   0.693  0.00  0.00    +0.023 A 
ATOM     28  C   UNL     1       2.933   3.795   0.100  0.00  0.00    +0.036 A 
ENDBRANCH  18  28
ENDBRANCH  17  19
ENDBRANCH   1  17
TORSDOF 4
