REMARK  Name = ZINC39922446
REMARK  8 active torsions:
REMARK  status: ('A' for Active; 'I' for Inactive)
REMARK    1  A    between atoms: C_1  and  C_2
REMARK    2  A    between atoms: C_5  and  C_8
REMARK    3  A    between atoms: N_9  and  N_10
REMARK    4  A    between atoms: C_11  and  C_13
REMARK    5  A    between atoms: C_16  and  C_19
REMARK    6  A    between atoms: C_19  and  C_20
REMARK    7  A    between atoms: C_19  and  C_21
REMARK    8  A    between atoms: C_19  and  C_22
REMARK                            x       y       z     vdW  Elec       q    Type
REMARK                         _______ _______ _______ _____ _____    ______ ____
ROOT
ATOM      1  N   UNL     1       0.168  -4.212   2.313  0.00  0.00    -0.205 N 
ATOM      2  C   UNL     1       0.385  -4.878   3.465  0.00  0.00    +0.262 C 
ATOM      3  O   UNL     1       0.583  -6.074   3.445  0.00  0.00    -0.271 OA
ATOM      4  H   UNL     1       0.010  -3.255   2.329  0.00  0.00    +0.177 HD
ENDROOT
BRANCH   2   5
ATOM      5  C   UNL     1       0.382  -4.136   4.777  0.00  0.00    +0.240 C 
ATOM      6  C   UNL     1      -1.037  -3.942   5.281  0.00  0.00    +0.036 C 
ATOM      7  C   UNL     1      -1.057  -4.597   6.444  0.00  0.00    +0.067 C 
ATOM      8  N   UNL     1       0.147  -5.152   6.702  0.00  0.00    -0.158 NA
ATOM      9  N   UNL     1       1.006  -4.947   5.835  0.00  0.00    -0.170 NA
BRANCH   7  10
ATOM     10  C   UNL     1      -2.260  -4.702   7.345  0.00  0.00    +0.006 C 
ATOM     11  C   UNL     1      -3.434  -3.948   6.720  0.00  0.00    +0.017 C 
ATOM     12  C   UNL     1      -2.636  -6.175   7.523  0.00  0.00    +0.017 C 
ATOM     13  C   UNL     1      -1.930  -4.092   8.709  0.00  0.00    +0.017 C 
ENDBRANCH   7  10
ENDBRANCH   2   5
BRANCH   1  15
ATOM     14  C   UNL     1       0.088  -4.246  -0.023  0.00  0.00    +0.138 C 
ATOM     15  N   UNL     1       0.170  -4.902   1.094  0.00  0.00    -0.188 NA
BRANCH  14  20
ATOM     16  C   UNL     1       1.883   1.212  -0.292  0.00  0.00    +0.044 C 
ATOM     17  C   UNL     1       1.413  -0.218  -0.221  0.00  0.00    -0.050 A 
ATOM     18  C   UNL     1       1.771  -1.008   0.857  0.00  0.00    +0.004 A 
ATOM     19  C   UNL     1       1.344  -2.318   0.928  0.00  0.00    +0.010 A 
ATOM     20  C   UNL     1       0.548  -2.846  -0.091  0.00  0.00    -0.005 A 
ATOM     21  C   UNL     1       0.190  -2.042  -1.176  0.00  0.00    +0.010 A 
ATOM     22  C   UNL     1       0.620  -0.733  -1.232  0.00  0.00    +0.004 A 
ENDBRANCH  14  20
ENDBRANCH   1  15
TORSDOF 4
