REMARK  Name = ZINC44714517
REMARK  7 active torsions:
REMARK  status: ('A' for Active; 'I' for Inactive)
REMARK    1  A    between atoms: C_1  and  C_2
REMARK    2  A    between atoms: C_3  and  C_14
REMARK    3  A    between atoms: C_6  and  C_12
REMARK    4  A    between atoms: C_14  and  C_15
REMARK    5  A    between atoms: C_15  and  N_16
REMARK    6  A    between atoms: C_17  and  C_19
REMARK    7  A    between atoms: C_30  and  C_32
REMARK                            x       y       z     vdW  Elec       q    Type
REMARK                         _______ _______ _______ _____ _____    ______ ____
ROOT
ATOM      1  C   UNL     1       2.556   1.088  -6.468  0.00  0.00    +0.100 C 
ATOM      2  C   UNL     1       1.775   2.415  -6.591  0.00  0.00    +0.121 C 
ATOM      3  N   UNL     1       2.811   3.470  -6.496  0.00  0.00    -0.295 N 
ATOM      4  C   UNL     1       3.958   2.930  -7.265  0.00  0.00    +0.115 C 
ATOM      5  C   UNL     1       3.987   1.429  -6.915  0.00  0.00    -0.004 C 
ATOM      6  C   UNL     1       4.368   0.607  -8.142  0.00  0.00    -0.010 C 
ATOM      7  C   UNL     1       5.815   0.921  -8.533  0.00  0.00    -0.082 C 
ATOM      8  N   UNL     1       6.706   0.603  -7.410  0.00  0.00    +0.379 N 
ATOM      9  C   UNL     1       6.394   1.463  -6.263  0.00  0.00    -0.082 C 
ATOM     10  C   UNL     1       4.971   1.173  -5.777  0.00  0.00    -0.010 C 
ATOM     11  C   UNL     1       2.730   4.653  -5.856  0.00  0.00    +0.265 C 
ATOM     12  O   UNL     1       1.753   4.913  -5.182  0.00  0.00    -0.268 OA
ATOM     13  H   UNL     1       6.582  -0.364  -7.148  0.00  0.00    -0.086 HD
ATOM     14  H   UNL     1       7.664   0.752  -7.691  0.00  0.00    -0.086 HD
ENDROOT
BRANCH  11  15
ATOM     15  C   UNL     1       3.832   5.637  -5.973  0.00  0.00    +0.126 A 
ATOM     16  C   UNL     1       3.796   6.807  -5.218  0.00  0.00    +0.033 A 
ATOM     17  C   UNL     1       4.834   7.718  -5.339  0.00  0.00    +0.004 A 
ATOM     18  C   UNL     1       5.872   7.426  -6.211  0.00  0.00    +0.020 A 
ATOM     19  C   UNL     1       5.842   6.242  -6.931  0.00  0.00    +0.111 A 
ATOM     20  N   UNL     1       4.847   5.393  -6.793  0.00  0.00    -0.250 NA
ENDBRANCH  11  15
BRANCH   1  22
ATOM     21  N   UNL     1       2.598  -0.712  -4.772  0.00  0.00    -0.315 N 
ATOM     22  C   UNL     1       2.553   0.608  -5.039  0.00  0.00    +0.218 C 
ATOM     23  O   UNL     1       2.509   1.409  -4.130  0.00  0.00    -0.275 OA
ATOM     24  H   UNL     1       2.632  -1.353  -5.499  0.00  0.00    +0.149 HD
BRANCH  21  25
ATOM     25  C   UNL     1       2.594  -1.179  -3.383  0.00  0.00    +0.109 C 
BRANCH  25  26
ATOM     26  C   UNL     1       2.651  -2.708  -3.359  0.00  0.00    +0.056 C 
BRANCH  26  29
ATOM     27  C   UNL     1       0.141  -3.384  -1.662  0.00  0.00    +0.063 C 
ATOM     28  C   UNL     1       1.568  -3.483  -1.189  0.00  0.00    +0.017 A 
ATOM     29  C   UNL     1       2.648  -3.188  -1.930  0.00  0.00    -0.018 A 
ATOM     30  C   UNL     1       3.822  -3.422  -1.086  0.00  0.00    +0.004 A 
ATOM     31  C   UNL     1       5.196  -3.298  -1.284  0.00  0.00    +0.029 A 
ATOM     32  C   UNL     1       6.067  -3.611  -0.244  0.00  0.00    +0.052 A 
ATOM     33  C   UNL     1       5.560  -4.047   0.989  0.00  0.00    +0.021 A 
ATOM     34  C   UNL     1       4.217  -4.170   1.184  0.00  0.00    +0.027 A 
ATOM     35  C   UNL     1       3.327  -3.862   0.157  0.00  0.00    +0.047 A 
ATOM     36  N   UNL     1       1.955  -3.882   0.061  0.00  0.00    -0.358 N 
ATOM     37  H   UNL     1       1.351  -4.142   0.774  0.00  0.00    +0.166 HD
BRANCH  32  38
ATOM     38  C   UNL     1       7.481  -3.488  -0.434  0.00  0.00    +0.099 C 
ATOM     39  N   UNL     1       8.602  -3.390  -0.584  0.00  0.00    -0.191 NA
ENDBRANCH  32  38
ENDBRANCH  26  29
ENDBRANCH  25  26
ENDBRANCH  21  25
ENDBRANCH   1  22
TORSDOF 6
