REMARK  Name = ZINC05539737
REMARK  8 active torsions:
REMARK  status: ('A' for Active; 'I' for Inactive)
REMARK    1  A    between atoms: C_1  and  C_2
REMARK    2  A    between atoms: C_4  and  C_22
REMARK    3  A    between atoms: C_6  and  O_8
REMARK    4  A    between atoms: O_8  and  C_9
REMARK    5  A    between atoms: C_9  and  C_11
REMARK    6  A    between atoms: C_9  and  C_12
REMARK    7  A    between atoms: N_14  and  N_15
REMARK    8  A    between atoms: C_16  and  C_17
REMARK                            x       y       z     vdW  Elec       q    Type
REMARK                         _______ _______ _______ _____ _____    ______ ____
ROOT
ATOM      1  C   UNL     1      -1.469   1.399   1.262  0.00  0.00    +0.257 C 
ATOM      2  C   UNL     1      -0.816   0.977  -0.056  0.00  0.00    +0.062 C 
ENDROOT
BRANCH   1   3
ATOM      3  C   UNL     1      -2.778   0.670   1.430  0.00  0.00    +0.273 C 
ATOM      4  O   UNL     1      -2.918  -0.125   2.335  0.00  0.00    -0.270 OA
ATOM      5  N   UNL     1      -3.792   0.902   0.574  0.00  0.00    -0.204 N 
ATOM      6  H   UNL     1      -3.680   1.538  -0.151  0.00  0.00    +0.177 HD
BRANCH   5   7
ATOM      7  N   UNL     1      -5.009   0.225   0.729  0.00  0.00    -0.185 NA
ATOM      8  C   UNL     1      -5.949   0.364  -0.159  0.00  0.00    +0.176 C 
BRANCH   8   9
ATOM      9  C   UNL     1      -5.682   1.097  -1.401  0.00  0.00    +0.147 A 
ATOM     10  C   UNL     1      -6.544   1.238  -2.449  0.00  0.00    +0.051 A 
ATOM     11  C   UNL     1      -5.878   2.012  -3.418  0.00  0.00    +0.042 A 
ATOM     12  C   UNL     1      -4.658   2.304  -2.923  0.00  0.00    +0.196 A 
ATOM     13  O   UNL     1      -4.545   1.754  -1.703  0.00  0.00    -0.462 OA
ENDBRANCH   8   9
ENDBRANCH   5   7
ENDBRANCH   1   3
BRANCH   1  14
ATOM     14  O   UNL     1      -0.601   1.074   2.349  0.00  0.00    -0.480 OA
BRANCH  14  20
ATOM     15  C   UNL     1       3.321   2.270   4.997  0.00  0.00    +0.044 C 
ATOM     16  C   UNL     1       2.309   2.585   3.925  0.00  0.00    -0.047 A 
ATOM     17  C   UNL     1       2.381   3.783   3.239  0.00  0.00    +0.007 A 
ATOM     18  C   UNL     1       1.454   4.075   2.255  0.00  0.00    -0.047 A 
ATOM     19  C   UNL     1       0.455   3.170   1.955  0.00  0.00    +0.049 A 
ATOM     20  C   UNL     1       0.381   1.966   2.643  0.00  0.00    +0.122 A 
ATOM     21  C   UNL     1       1.309   1.679   3.633  0.00  0.00    +0.049 A 
ATOM     22  C   UNL     1       1.534   5.382   1.509  0.00  0.00    +0.044 C 
ENDBRANCH  14  20
ENDBRANCH   1  14
TORSDOF 5
