REMARK  Name = ZINC20720052
REMARK  4 active torsions:
REMARK  status: ('A' for Active; 'I' for Inactive)
REMARK    1  A    between atoms: C_1  and  C_2
REMARK    2  A    between atoms: N_5  and  S_8
REMARK    3  A    between atoms: S_8  and  C_11
REMARK    4  A    between atoms: C_24  and  C_27
REMARK                            x       y       z     vdW  Elec       q    Type
REMARK                         _______ _______ _______ _____ _____    ______ ____
ROOT
ATOM      1  C   UNL     1       6.986   8.161  -0.950  0.00  0.00    +0.106 A 
ATOM      2  C   UNL     1       7.465   7.164  -0.119  0.00  0.00    +0.030 A 
ATOM      3  C   UNL     1       6.621   6.168   0.325  0.00  0.00    +0.025 A 
ATOM      4  C   UNL     1       5.285   6.157  -0.057  0.00  0.00    +0.031 A 
ATOM      5  C   UNL     1       4.805   7.176  -0.887  0.00  0.00    -0.018 A 
ATOM      6  C   UNL     1       5.657   8.164  -1.330  0.00  0.00    +0.034 A 
ATOM      7  C   UNL     1       3.372   7.141  -1.251  0.00  0.00    +0.049 C 
ATOM      8  C   UNL     1       2.860   7.766  -2.497  0.00  0.00    -0.023 C 
ATOM      9  C   UNL     1       1.807   7.075  -2.916  0.00  0.00    -0.030 C 
ATOM     10  C   UNL     1       1.551   5.892  -1.979  0.00  0.00    +0.033 C 
ATOM     11  C   UNL     1       2.951   5.648  -1.400  0.00  0.00    +0.029 C 
ATOM     12  C   UNL     1       3.027   5.065   0.000  0.00  0.00    +0.107 C 
ATOM     13  N   UNL     1       4.457   5.114   0.376  0.00  0.00    -0.336 N 
ATOM     14  H   UNL     1       4.888   4.323   1.007  0.00  0.00    +0.147 HD
ENDROOT
BRANCH  12  15
ATOM     15  C   UNL     1       2.539   3.639  -0.003  0.00  0.00    -0.002 A 
ATOM     16  C   UNL     1       3.301   2.534  -0.016  0.00  0.00    +0.089 A 
ATOM     17  N   UNL     1       2.507   1.420  -0.014  0.00  0.00    -0.360 N 
ATOM     18  H   UNL     1       2.964   0.419  -0.023  0.00  0.00    +0.165 HD
ATOM     19  C   UNL     1       1.181   1.790   0.000  0.00  0.00    +0.047 A 
ATOM     20  C   UNL     1       1.143   3.196   0.008  0.00  0.00    +0.005 A 
ATOM     21  C   UNL     1      -0.085   3.860   0.023  0.00  0.00    +0.010 A 
ATOM     22  C   UNL     1      -1.246   3.138   0.030  0.00  0.00    +0.001 A 
ATOM     23  C   UNL     1      -1.214   1.751   0.017  0.00  0.00    +0.002 A 
ATOM     24  C   UNL     1      -0.013   1.076   0.008  0.00  0.00    +0.026 A 
ENDBRANCH  12  15
BRANCH   1  25
ATOM     25  S   UNL     1       8.070   9.427  -1.523  0.00  0.00    +0.061 S 
ATOM     26  O   UNL     1       9.385   8.892  -1.466  0.00  0.00    -0.153 OA
ATOM     27  O   UNL     1       7.505   9.931  -2.726  0.00  0.00    -0.153 OA
BRANCH  25  32
ATOM     28  C   UNL     1       6.431  12.209   3.215  0.00  0.00    +0.007 C 
ATOM     29  C   UNL     1       7.217  12.050   1.912  0.00  0.00    -0.012 C 
ATOM     30  C   UNL     1       8.129  10.825   2.013  0.00  0.00    +0.020 C 
ATOM     31  C   UNL     1       8.939  10.689   0.720  0.00  0.00    +0.110 C 
ATOM     32  N   UNL     1       8.011  10.659  -0.419  0.00  0.00    -0.177 NA
ATOM     33  C   UNL     1       7.034  11.747  -0.563  0.00  0.00    +0.110 C 
ATOM     34  C   UNL     1       6.241  11.868   0.747  0.00  0.00    +0.020 C 
ENDBRANCH  25  32
ENDBRANCH   1  25
TORSDOF 3
