REMARK  Name = ZINC15023843
REMARK  8 active torsions:
REMARK  status: ('A' for Active; 'I' for Inactive)
REMARK    1  A    between atoms: C_1  and  C_2
REMARK    2  A    between atoms: C_2  and  C_3
REMARK    3  A    between atoms: C_2  and  C_4
REMARK    4  A    between atoms: C_2  and  C_5
REMARK    5  A    between atoms: C_5  and  C_7
REMARK    6  A    between atoms: C_9  and  C_29
REMARK    7  A    between atoms: C_11  and  C_24
REMARK    8  A    between atoms: C_11  and  C_26
REMARK                            x       y       z     vdW  Elec       q    Type
REMARK                         _______ _______ _______ _____ _____    ______ ____
ROOT
ATOM      1  C   UNL     1       4.778  -0.151   1.341  0.00  0.00    +0.150 C 
ATOM      2  C   UNL     1       3.977  -0.577   0.081  0.00  0.00    +0.078 C 
ATOM      3  C   UNL     1       5.033  -0.660  -1.053  0.00  0.00    +0.163 C 
ATOM      4  C   UNL     1       6.334  -0.210  -0.384  0.00  0.00    +0.127 C 
ATOM      5  N   UNL     1       6.145  -0.590   1.042  0.00  0.00    -0.310 N 
ATOM      6  C   UNL     1       7.183  -0.091   1.793  0.00  0.00    +0.038 A 
ATOM      7  C   UNL     1       7.016   0.515   3.022  0.00  0.00    +0.025 A 
ATOM      8  C   UNL     1       8.116   0.996   3.709  0.00  0.00    +0.017 A 
ATOM      9  C   UNL     1       9.387   0.875   3.174  0.00  0.00    +0.019 A 
ATOM     10  C   UNL     1       9.573   0.270   1.945  0.00  0.00    +0.025 A 
ATOM     11  C   UNL     1       8.478  -0.220   1.246  0.00  0.00    -0.003 A 
ATOM     12  C   UNL     1       8.631  -0.890  -0.067  0.00  0.00    +0.007 C 
ATOM     13  C   UNL     1       7.569  -0.884  -0.899  0.00  0.00    -0.002 C 
ATOM     14 BR   UNL     1      10.877   1.543   4.128  0.00  0.00    -0.050 Br
ENDROOT
BRANCH   2  15
ATOM     15  C   UNL     1       2.932   0.456  -0.251  0.00  0.00    -0.037 A 
ATOM     16  C   UNL     1       3.297   1.737  -0.636  0.00  0.00    +0.024 A 
ATOM     17  C   UNL     1       2.310   2.658  -0.931  0.00  0.00    +0.111 A 
ATOM     18  N   UNL     1       1.035   2.331  -0.851  0.00  0.00    -0.263 NA
ATOM     19  C   UNL     1       0.651   1.122  -0.489  0.00  0.00    +0.111 A 
ATOM     20  C   UNL     1       1.582   0.149  -0.178  0.00  0.00    +0.024 A 
ENDBRANCH   2  15
BRANCH   3  21
ATOM     21  C   UNL     1       4.670   0.272  -2.181  0.00  0.00    +0.233 C 
ATOM     22  O   UNL     1       5.388   1.213  -2.445  0.00  0.00    -0.274 OA
ATOM     23  N   UNL     1       3.548   0.059  -2.896  0.00  0.00    -0.328 N 
ATOM     24  H   UNL     1       2.973  -0.694  -2.685  0.00  0.00    +0.145 HD
ATOM     25  H   UNL     1       3.314   0.658  -3.622  0.00  0.00    +0.145 HD
ENDBRANCH   3  21
BRANCH   1  26
ATOM     26  C   UNL     1       4.728   1.345   1.522  0.00  0.00    +0.159 C 
ATOM     27  O   UNL     1       5.448   2.056   0.863  0.00  0.00    -0.295 OA
BRANCH  26  29
ATOM     28  C   UNL     1       3.770   3.473   2.358  0.00  0.00    +0.018 C 
ATOM     29  C   UNL     1       3.780   1.952   2.523  0.00  0.00    +0.022 C 
ATOM     30  C   UNL     1       2.370   1.404   2.288  0.00  0.00    +0.018 C 
ATOM     31  C   UNL     1       4.236   1.595   3.939  0.00  0.00    +0.018 C 
ENDBRANCH  26  29
ENDBRANCH   1  26
BRANCH   3  32
ATOM     32  C   UNL     1       5.154  -2.041  -1.546  0.00  0.00    +0.082 C 
ATOM     33  N   UNL     1       5.247  -3.108  -1.926  0.00  0.00    -0.195 NA
ENDBRANCH   3  32
TORSDOF 5
