REMARK  Name = ZINC02801178
REMARK  5 active torsions:
REMARK  status: ('A' for Active; 'I' for Inactive)
REMARK    1  A    between atoms: C_1  and  C_2
REMARK    2  A    between atoms: C_2  and  N_22
REMARK    3  A    between atoms: C_4  and  C_18
REMARK    4  A    between atoms: C_25  and  C_28
REMARK    5  A    between atoms: C_25  and  N_63
REMARK                            x       y       z     vdW  Elec       q    Type
REMARK                         _______ _______ _______ _____ _____    ______ ____
ROOT
ATOM      1  C   UNL     1      -3.275   3.481   0.048  0.00  0.00    +0.061 C 
ATOM      2  C   UNL     1      -3.259   4.575  -0.988  0.00  0.00    +0.018 C 
ATOM      3  C   UNL     1      -4.202   4.583  -2.002  0.00  0.00    +0.087 C 
ATOM      4  C   UNL     1      -5.226   3.565  -2.281  0.00  0.00    +0.176 C 
ATOM      5  N   UNL     1      -5.903   3.963  -3.314  0.00  0.00    -0.165 NA
ATOM      6  N   UNL     1      -5.428   5.185  -3.791  0.00  0.00    -0.131 N 
ATOM      7  C   UNL     1      -4.399   5.611  -3.032  0.00  0.00    +0.276 C 
ATOM      8  O   UNL     1      -3.761   6.640  -3.172  0.00  0.00    -0.268 OA
ATOM      9  C   UNL     1      -5.945   5.865  -4.885  0.00  0.00    +0.189 A 
ATOM     10  N   UNL     1      -6.938   5.525  -5.673  0.00  0.00    -0.223 NA
ATOM     11  C   UNL     1      -7.340   6.294  -6.707  0.00  0.00    +0.080 A 
ATOM     12  C   UNL     1      -8.388   6.045  -7.625  0.00  0.00    +0.029 A 
ATOM     13  C   UNL     1      -8.668   6.937  -8.626  0.00  0.00    +0.002 A 
ATOM     14  C   UNL     1      -7.941   8.110  -8.777  0.00  0.00    +0.001 A 
ATOM     15  C   UNL     1      -6.911   8.386  -7.897  0.00  0.00    +0.017 A 
ATOM     16  C   UNL     1      -6.622   7.498  -6.891  0.00  0.00    +0.041 A 
ATOM     17  S   UNL     1      -5.432   7.433  -5.574  0.00  0.00    -0.050 S 
ENDROOT
BRANCH   2  18
ATOM     18  N   UNL     1      -2.325   5.547  -0.928  0.00  0.00    -0.333 N 
ATOM     19  C   UNL     1      -0.903   5.231  -1.118  0.00  0.00    +0.104 C 
ATOM     20  C   UNL     1      -0.111   5.772   0.070  0.00  0.00    +0.016 C 
ATOM     21  C   UNL     1      -0.406   7.264   0.242  0.00  0.00    +0.015 C 
ATOM     22  C   UNL     1      -1.897   7.461   0.523  0.00  0.00    +0.016 C 
ATOM     23  C   UNL     1      -2.711   6.940  -0.665  0.00  0.00    +0.104 C 
BRANCH  21  29
ATOM     24  C   UNL     1      -0.029   9.165   1.693  0.00  0.00    -0.077 C 
ATOM     25  C   UNL     1       0.703   9.629   2.954  0.00  0.00    -0.019 C 
ATOM     26  C   UNL     1       2.213   9.569   2.712  0.00  0.00    -0.004 C 
ATOM     27  C   UNL     1       2.605   8.140   2.326  0.00  0.00    -0.019 C 
ATOM     28  C   UNL     1       1.818   7.719   1.083  0.00  0.00    -0.077 C 
ATOM     29  N   UNL     1       0.372   7.775   1.389  0.00  0.00    +0.389 N 
ATOM     30  H   UNL     1       0.182   7.187   2.209  0.00  0.00    -0.080 HD
ENDBRANCH  21  29
BRANCH  21  31
ATOM     31  C   UNL     1      -0.033   7.997  -1.020  0.00  0.00    +0.200 C 
ATOM     32  O   UNL     1       0.787   7.523  -1.778  0.00  0.00    -0.278 OA
ATOM     33  N   UNL     1      -0.609   9.181  -1.308  0.00  0.00    -0.330 N 
ATOM     34  H   UNL     1      -1.209   9.596  -0.668  0.00  0.00    +0.145 HD
ATOM     35  H   UNL     1      -0.424   9.618  -2.154  0.00  0.00    +0.145 HD
ENDBRANCH  21  31
ENDBRANCH   2  18
BRANCH   4  36
ATOM     36  C   UNL     1      -5.450   2.293  -1.506  0.00  0.00    +0.437 C 
ATOM     37  F   UNL     1      -6.373   1.489  -2.185  0.00  0.00    -0.164 F 
ATOM     38  F   UNL     1      -4.239   1.605  -1.376  0.00  0.00    -0.164 F 
ATOM     39  F   UNL     1      -5.949   2.603  -0.236  0.00  0.00    -0.164 F 
ENDBRANCH   4  36
TORSDOF 4
