REMARK  Name = ZINC58887293
REMARK  9 active torsions:
REMARK  status: ('A' for Active; 'I' for Inactive)
REMARK    1  A    between atoms: C_4  and  C_7
REMARK    2  A    between atoms: C_7  and  C_9
REMARK    3  A    between atoms: C_7  and  O_25
REMARK    4  A    between atoms: C_9  and  C_10
REMARK    5  A    between atoms: C_10  and  C_11
REMARK    6  A    between atoms: N_13  and  N_14
REMARK    7  A    between atoms: C_15  and  C_16
REMARK    8  A    between atoms: C_19  and  O_23
REMARK    9  A    between atoms: C_21  and  O_22
REMARK                            x       y       z     vdW  Elec       q    Type
REMARK                         _______ _______ _______ _____ _____    ______ ____
ROOT
ATOM      1  C   UNL     1       5.405  -3.414   2.640  0.00  0.00    +0.232 C 
ATOM      2  O   UNL     1       4.687  -2.951   3.501  0.00  0.00    -0.274 OA
ATOM      3  N   UNL     1       6.656  -3.812   2.948  0.00  0.00    -0.207 N 
ATOM      4  H   UNL     1       7.230  -4.182   2.259  0.00  0.00    +0.177 HD
ENDROOT
BRANCH   3   5
ATOM      5  N   UNL     1       7.125  -3.693   4.262  0.00  0.00    -0.188 NA
ATOM      6  C   UNL     1       8.362  -3.976   4.538  0.00  0.00    +0.142 C 
BRANCH   6   7
ATOM      7  C   UNL     1       9.333  -4.173   3.448  0.00  0.00    +0.037 A 
ATOM      8  C   UNL     1       9.129  -3.564   2.207  0.00  0.00    +0.031 A 
ATOM      9  C   UNL     1      10.039  -3.751   1.190  0.00  0.00    +0.056 A 
ATOM     10  C   UNL     1      11.162  -4.546   1.394  0.00  0.00    +0.133 A 
ATOM     11  C   UNL     1      11.374  -5.155   2.622  0.00  0.00    +0.092 A 
ATOM     12  C   UNL     1      10.469  -4.969   3.652  0.00  0.00    +0.129 A 
ATOM     13  I   UNL     1       9.731  -2.837  -0.670  0.00  0.00    -0.040 I 
BRANCH  12  14
ATOM     14  O   UNL     1      10.678  -5.561   4.857  0.00  0.00    -0.506 OA
ATOM     15  H   UNL     1      10.227  -6.409   4.963  0.00  0.00    +0.292 HD
ENDBRANCH  12  14
BRANCH  10  16
ATOM     16  O   UNL     1      12.055  -4.726   0.386  0.00  0.00    -0.506 OA
ATOM     17  H   UNL     1      12.765  -4.070   0.368  0.00  0.00    +0.292 HD
ENDBRANCH  10  16
ENDBRANCH   6   7
ENDBRANCH   3   5
BRANCH   1  18
ATOM     18  C   UNL     1       4.900  -3.542   1.226  0.00  0.00    +0.100 C 
BRANCH  18  19
ATOM     19  C   UNL     1       3.463  -3.022   1.149  0.00  0.00    +0.045 C 
BRANCH  19  20
ATOM     20  C   UNL     1       2.950  -3.152  -0.287  0.00  0.00    +0.145 C 
BRANCH  20  24
ATOM     21  C   UNL     1      -0.928  -1.385  -0.581  0.00  0.00    +0.000 A 
ATOM     22  C   UNL     1       0.186  -0.683  -1.005  0.00  0.00    +0.000 A 
ATOM     23  C   UNL     1       1.441  -1.255  -0.909  0.00  0.00    +0.006 A 
ATOM     24  C   UNL     1       1.582  -2.528  -0.390  0.00  0.00    -0.019 A 
ATOM     25  C   UNL     1       0.469  -3.230   0.035  0.00  0.00    +0.006 A 
ATOM     26  C   UNL     1      -0.786  -2.658  -0.062  0.00  0.00    +0.000 A 
ENDBRANCH  20  24
BRANCH  20  27
ATOM     27  O   UNL     1       2.872  -4.534  -0.641  0.00  0.00    -0.387 OA
ATOM     28  H   UNL     1       2.279  -5.051  -0.078  0.00  0.00    +0.210 HD
ENDBRANCH  20  27
ENDBRANCH  19  20
ENDBRANCH  18  19
ENDBRANCH   1  18
TORSDOF 9
