REMARK  Name = ZINC63027343
REMARK  8 active torsions:
REMARK  status: ('A' for Active; 'I' for Inactive)
REMARK    1  A    between atoms: C_1  and  C_2
REMARK    2  A    between atoms: C_2  and  C_4
REMARK    3  A    between atoms: C_2  and  N_19
REMARK    4  A    between atoms: C_4  and  C_6
REMARK    5  A    between atoms: C_4  and  C_16
REMARK    6  A    between atoms: C_11  and  N_12
REMARK    7  A    between atoms: C_16  and  C_17
REMARK    8  A    between atoms: C_16  and  C_18
REMARK                            x       y       z     vdW  Elec       q    Type
REMARK                         _______ _______ _______ _____ _____    ______ ____
ROOT
ATOM      1  C   UNL     1       0.734   0.048   1.000  0.00  0.00    +0.009 C 
ENDROOT
BRANCH   1   2
ATOM      2  C   UNL     1       0.783  -1.266   0.264  0.00  0.00    -0.015 A 
ATOM      3  C   UNL     1       1.287  -1.320  -1.022  0.00  0.00    +0.007 A 
ATOM      4  C   UNL     1       1.333  -2.525  -1.697  0.00  0.00    +0.016 A 
ATOM      5  C   UNL     1       0.875  -3.678  -1.085  0.00  0.00    +0.020 A 
ATOM      6  C   UNL     1       0.371  -3.624   0.202  0.00  0.00    +0.048 A 
ATOM      7  C   UNL     1       0.331  -2.419   0.878  0.00  0.00    +0.131 A 
ATOM      8 BR   UNL     1       0.937  -5.327  -2.008  0.00  0.00    -0.050 Br
BRANCH   7   9
ATOM      9  N   UNL     1      -0.203  -2.362   2.257  0.00  0.00    +0.057 N 
ATOM     10  O   UNL     1      -0.488  -3.384   2.838  0.00  0.00    -0.126 OA
ATOM     11  O   UNL     1      -0.354  -1.294   2.804  0.00  0.00    -0.126 OA
ENDBRANCH   7   9
ENDBRANCH   1   2
BRANCH   1  12
ATOM     12  C   UNL     1       1.964   0.882   0.637  0.00  0.00    -0.011 C 
ATOM     13  C   UNL     1       1.876   2.247   1.323  0.00  0.00    +0.008 C 
ATOM     14  C   UNL     1       3.228   0.157   1.103  0.00  0.00    +0.008 C 
ENDBRANCH   1  12
BRANCH   1  16
ATOM     15  C   UNL     1      -1.760  -0.056   0.901  0.00  0.00    -0.014 C 
ATOM     16  C   UNL     1      -0.533   0.808   0.602  0.00  0.00    -0.071 C 
BRANCH  16  17
ATOM     17  N   UNL     1      -0.489   1.116  -0.834  0.00  0.00    +0.380 N 
ATOM     18  H   UNL     1      -1.266   1.713  -1.073  0.00  0.00    -0.090 HD
ATOM     19  H   UNL     1       0.377   1.586  -1.050  0.00  0.00    -0.090 HD
ATOM     20  H   UNL     1      -0.548   0.259  -1.363  0.00  0.00    -0.090 HD
ENDBRANCH  16  17
ENDBRANCH   1  16
TORSDOF 5
