REMARK  Name = ZINC54477672
REMARK  8 active torsions:
REMARK  status: ('A' for Active; 'I' for Inactive)
REMARK    1  A    between atoms: C_1  and  C_2
REMARK    2  A    between atoms: C_2  and  C_3
REMARK    3  A    between atoms: C_3  and  C_5
REMARK    4  A    between atoms: C_3  and  N_6
REMARK    5  A    between atoms: C_7  and  C_9
REMARK    6  A    between atoms: C_12  and  N_15
REMARK    7  A    between atoms: N_18  and  C_19
REMARK    8  A    between atoms: N_18  and  C_20
REMARK                            x       y       z     vdW  Elec       q    Type
REMARK                         _______ _______ _______ _____ _____    ______ ____
ROOT
ATOM      1  N   UNL     1       8.241   1.615  -2.170  0.00  0.00    -0.269 N 
ATOM      2  C   UNL     1       8.967   1.665  -3.305  0.00  0.00    +0.307 C 
ATOM      3  O   UNL     1       8.432   1.462  -4.378  0.00  0.00    -0.252 OA
ATOM      4  N   UNL     1      10.285   1.940  -3.250  0.00  0.00    -0.281 N 
ATOM      5  C   UNL     1      10.929   2.185  -1.957  0.00  0.00    +0.134 C 
ATOM      6  H   UNL     1       8.652   1.842  -1.321  0.00  0.00    +0.156 HD
ENDROOT
BRANCH   4   7
ATOM      7  C   UNL     1      11.074   1.995  -4.483  0.00  0.00    +0.108 C 
ATOM      8  C   UNL     1      12.226   0.970  -4.428  0.00  0.00    +0.032 C 
ATOM      9  C   UNL     1      13.389   1.810  -3.859  0.00  0.00    +0.037 C 
ATOM     10  C   UNL     1      13.080   3.237  -4.257  0.00  0.00    -0.042 A 
ATOM     11  C   UNL     1      11.747   3.344  -4.617  0.00  0.00    -0.024 A 
ATOM     12  C   UNL     1      11.235   4.566  -5.021  0.00  0.00    +0.006 A 
ATOM     13  C   UNL     1      12.051   5.680  -5.067  0.00  0.00    +0.000 A 
ATOM     14  C   UNL     1      13.381   5.576  -4.708  0.00  0.00    +0.000 A 
ATOM     15  C   UNL     1      13.897   4.353  -4.302  0.00  0.00    +0.004 A 
ENDBRANCH   4   7
BRANCH   1  19
ATOM     16  C   UNL     1       4.234   0.488  -2.309  0.00  0.00    +0.037 A 
ATOM     17  C   UNL     1       4.789   1.231  -3.354  0.00  0.00    +0.015 A 
ATOM     18  C   UNL     1       6.114   1.602  -3.305  0.00  0.00    +0.024 A 
ATOM     19  C   UNL     1       6.900   1.238  -2.216  0.00  0.00    +0.035 A 
ATOM     20  C   UNL     1       6.350   0.498  -1.174  0.00  0.00    +0.024 A 
ATOM     21  C   UNL     1       5.025   0.129  -1.214  0.00  0.00    +0.015 A 
BRANCH  16  23
ATOM     22  N   UNL     1       2.052   0.437  -3.414  0.00  0.00    -0.309 N 
ATOM     23  C   UNL     1       2.813   0.089  -2.357  0.00  0.00    +0.244 C 
ATOM     24  O   UNL     1       2.331  -0.553  -1.445  0.00  0.00    -0.270 OA
ATOM     25  H   UNL     1       2.437   0.949  -4.142  0.00  0.00    +0.149 HD
BRANCH  22  26
ATOM     26  C   UNL     1       0.642   0.041  -3.462  0.00  0.00    +0.070 C 
ATOM     27  C   UNL     1      -0.202   1.066  -2.703  0.00  0.00    +0.028 C 
BRANCH  26  29
ATOM     28  C   UNL     1       0.938  -1.133  -5.648  0.00  0.00    +0.005 C 
ATOM     29  C   UNL     1       0.180  -0.021  -4.919  0.00  0.00    +0.018 C 
ENDBRANCH  26  29
ENDBRANCH  22  26
ENDBRANCH  16  23
ENDBRANCH   1  19
TORSDOF 5
