REMARK  Name = ZINC21741992
REMARK  7 active torsions:
REMARK  status: ('A' for Active; 'I' for Inactive)
REMARK    1  A    between atoms: C_1  and  N_2
REMARK    2  A    between atoms: C_6  and  C_8
REMARK    3  A    between atoms: C_8  and  C_10
REMARK    4  A    between atoms: C_8  and  O_16
REMARK    5  A    between atoms: O_16  and  C_17
REMARK    6  A    between atoms: C_17  and  C_19
REMARK    7  A    between atoms: C_24  and  N_25
REMARK                            x       y       z     vdW  Elec       q    Type
REMARK                         _______ _______ _______ _____ _____    ______ ____
ROOT
ATOM      1  C   UNL     1      -2.398   1.065   0.088  0.00  0.00    +0.292 C 
ENDROOT
BRANCH   1   7
ATOM      2  C   UNL     1      -8.046   2.123  -2.045  0.00  0.00    +0.129 C 
ATOM      3  N   UNL     1      -6.960   1.387  -1.393  0.00  0.00    -0.302 N 
ATOM      4  C   UNL     1      -5.737   1.943  -1.288  0.00  0.00    +0.306 C 
ATOM      5  O   UNL     1      -5.535   3.056  -1.734  0.00  0.00    -0.252 OA
ATOM      6  N   UNL     1      -4.738   1.266  -0.688  0.00  0.00    -0.237 N 
ATOM      7  C   UNL     1      -3.515   1.822  -0.583  0.00  0.00    +0.266 C 
ATOM      8  O   UNL     1      -3.313   2.932  -1.028  0.00  0.00    -0.271 OA
ATOM      9  H   UNL     1      -7.143   0.380  -0.989  0.00  0.00    +0.150 HD
ATOM     10  H   UNL     1      -4.921   0.259  -0.284  0.00  0.00    +0.159 HD
ENDBRANCH   1   7
BRANCH   1  11
ATOM     11  C   UNL     1      -2.782   0.760   1.513  0.00  0.00    +0.002 A 
ATOM     12  C   UNL     1      -2.654   1.732   2.487  0.00  0.00    +0.008 A 
ATOM     13  C   UNL     1      -3.011   1.454   3.793  0.00  0.00    +0.000 A 
ATOM     14  C   UNL     1      -3.487   0.200   4.127  0.00  0.00    +0.000 A 
ATOM     15  C   UNL     1      -3.611  -0.774   3.154  0.00  0.00    +0.000 A 
ATOM     16  C   UNL     1      -3.258  -0.494   1.847  0.00  0.00    +0.008 A 
ENDBRANCH   1  11
BRANCH   1  17
ATOM     17  O   UNL     1      -1.190   1.871   0.075  0.00  0.00    -0.443 OA
BRANCH  17  18
ATOM     18  C   UNL     1      -0.015   1.213   0.035  0.00  0.00    +0.342 C 
ATOM     19  O   UNL     1       0.000  -0.002   0.012  0.00  0.00    -0.245 OA
BRANCH  18  20
ATOM     20  C   UNL     1       1.251   1.966   0.014  0.00  0.00    +0.081 A 
ATOM     21  C   UNL     1       1.238   3.360  -0.084  0.00  0.00    +0.032 A 
ATOM     22  C   UNL     1       2.426   4.059  -0.099  0.00  0.00    +0.019 A 
ATOM     23  C   UNL     1       3.636   3.385  -0.028  0.00  0.00    +0.017 A 
ATOM     24  C   UNL     1       3.665   2.009   0.063  0.00  0.00    +0.024 A 
ATOM     25  C   UNL     1       2.478   1.287   0.085  0.00  0.00    +0.039 A 
ATOM     26 BR   UNL     1       2.406   5.946  -0.223  0.00  0.00    -0.050 Br
BRANCH  25  27
ATOM     27  N   UNL     1       2.504  -0.098   0.178  0.00  0.00    -0.357 N 
ATOM     28  H   UNL     1       3.467  -0.627   0.234  0.00  0.00    +0.142 HD
ATOM     29  H   UNL     1       1.563  -0.667   0.195  0.00  0.00    +0.142 HD
ENDBRANCH  25  27
ENDBRANCH  18  20
ENDBRANCH  17  18
ENDBRANCH   1  17
TORSDOF 6
