REMARK  Name = ZINC15885983
REMARK  16 active torsions:
REMARK  status: ('A' for Active; 'I' for Inactive)
REMARK    1  A    between atoms: C_1  and  C_2
REMARK    2  A    between atoms: C_5  and  S_8
REMARK    3  A    between atoms: S_8  and  N_11
REMARK    4  A    between atoms: N_11  and  C_12
REMARK    5  A    between atoms: C_12  and  C_14
REMARK    6  A    between atoms: C_12  and  C_18
REMARK    7  A    between atoms: C_14  and  C_15
REMARK    8  A    between atoms: C_15  and  C_16
REMARK    9  A    between atoms: C_15  and  C_17
REMARK   10  A    between atoms: N_20  and  N_21
REMARK   11  A    between atoms: N_21  and  C_22
REMARK   12  A    between atoms: C_22  and  N_24
REMARK   13  A    between atoms: N_24  and  C_25
REMARK   14  A    between atoms: C_28  and  C_31
REMARK   15  A    between atoms: C_31  and  C_32
REMARK   16  A    between atoms: C_31  and  C_33
REMARK                            x       y       z     vdW  Elec       q    Type
REMARK                         _______ _______ _______ _____ _____    ______ ____
ROOT
ATOM      1  C   UNL     1       0.142   1.734   1.034  0.00  0.00    +0.248 C 
ATOM      2  O   UNL     1       0.919   2.494   1.572  0.00  0.00    -0.273 OA
ATOM      3  N   UNL     1       0.098   0.440   1.409  0.00  0.00    -0.234 N 
ATOM      4  H   UNL     1      -0.524  -0.169   0.980  0.00  0.00    +0.173 HD
ENDROOT
BRANCH   3   5
ATOM      5  N   UNL     1       0.949  -0.027   2.419  0.00  0.00    -0.246 N 
ATOM      6  H   UNL     1       1.571   0.582   2.849  0.00  0.00    +0.172 HD
BRANCH   5   7
ATOM      7  C   UNL     1       0.905  -1.320   2.794  0.00  0.00    +0.151 C 
ATOM      8  S   UNL     1       1.945  -1.890   4.029  0.00  0.00    -0.017 S 
BRANCH   7   9
ATOM      9  N   UNL     1       0.041  -2.166   2.197  0.00  0.00    -0.296 N 
ATOM     10  H   UNL     1      -0.591  -1.831   1.542  0.00  0.00    +0.154 HD
BRANCH   9  11
ATOM     11  C   UNL     1       0.056  -3.526   2.523  0.00  0.00    +0.033 A 
ATOM     12  C   UNL     1      -0.015  -4.483   1.518  0.00  0.00    +0.023 A 
ATOM     13  C   UNL     1       0.007  -5.825   1.842  0.00  0.00    +0.006 A 
ATOM     14  C   UNL     1       0.087  -6.217   3.166  0.00  0.00    -0.045 A 
ATOM     15  C   UNL     1       0.151  -5.267   4.169  0.00  0.00    +0.006 A 
ATOM     16  C   UNL     1       0.136  -3.923   3.851  0.00  0.00    +0.023 A 
BRANCH  14  17
ATOM     17  C   UNL     1       0.103  -7.683   3.516  0.00  0.00    +0.013 C 
ATOM     18  C   UNL     1      -1.181  -8.342   3.011  0.00  0.00    +0.012 C 
ATOM     19  C   UNL     1       1.313  -8.350   2.859  0.00  0.00    +0.012 C 
ENDBRANCH  14  17
ENDBRANCH   9  11
ENDBRANCH   7   9
ENDBRANCH   5   7
ENDBRANCH   3   5
BRANCH   1  20
ATOM     20  C   UNL     1      -0.769   2.234  -0.057  0.00  0.00    +0.164 C 
BRANCH  20  21
ATOM     21  N   UNL     1      -0.530   3.662  -0.276  0.00  0.00    -0.178 NA
ATOM     22  H   UNL     1       0.358   3.974  -0.513  0.00  0.00    +0.149 HD
BRANCH  21  23
ATOM     23  S   UNL     1      -1.774   4.744  -0.120  0.00  0.00    +0.059 S 
ATOM     24  O   UNL     1      -1.208   6.038  -0.273  0.00  0.00    -0.153 OA
ATOM     25  O   UNL     1      -2.829   4.272  -0.947  0.00  0.00    -0.153 OA
BRANCH  23  30
ATOM     26  C   UNL     1      -3.747   4.386   5.570  0.00  0.00    +0.044 C 
ATOM     27  C   UNL     1      -3.255   4.475   4.149  0.00  0.00    -0.050 A 
ATOM     28  C   UNL     1      -2.249   5.365   3.821  0.00  0.00    +0.005 A 
ATOM     29  C   UNL     1      -1.797   5.447   2.517  0.00  0.00    +0.029 A 
ATOM     30  C   UNL     1      -2.350   4.639   1.542  0.00  0.00    +0.105 A 
ATOM     31  C   UNL     1      -3.359   3.753   1.869  0.00  0.00    +0.029 A 
ATOM     32  C   UNL     1      -3.808   3.667   3.173  0.00  0.00    +0.005 A 
ENDBRANCH  23  30
ENDBRANCH  21  23
ENDBRANCH  20  21
BRANCH  20  33
ATOM     33  C   UNL     1      -0.488   1.465  -1.349  0.00  0.00    +0.033 C 
BRANCH  33  34
ATOM     34  C   UNL     1      -1.437   1.949  -2.447  0.00  0.00    -0.015 C 
ATOM     35  C   UNL     1      -1.054   1.294  -3.776  0.00  0.00    +0.007 C 
ATOM     36  C   UNL     1      -2.873   1.567  -2.085  0.00  0.00    +0.007 C 
ENDBRANCH  33  34
ENDBRANCH  20  33
ENDBRANCH   1  20
TORSDOF 11
