REMARK  Name = ZINC39462405
REMARK  6 active torsions:
REMARK  status: ('A' for Active; 'I' for Inactive)
REMARK    1  A    between atoms: C_1  and  C_2
REMARK    2  A    between atoms: C_2  and  C_4
REMARK    3  A    between atoms: C_2  and  O_16
REMARK    4  A    between atoms: C_8  and  C_11
REMARK    5  A    between atoms: O_16  and  C_17
REMARK    6  A    between atoms: C_17  and  C_19
REMARK                            x       y       z     vdW  Elec       q    Type
REMARK                         _______ _______ _______ _____ _____    ______ ____
ROOT
ATOM      1  C   UNL     1      -1.924  -0.704  -1.183  0.00  0.00    +0.340 C 
ATOM      2  O   UNL     1      -1.385  -0.278  -2.184  0.00  0.00    -0.245 OA
ENDROOT
BRANCH   1   3
ATOM      3  C   UNL     1      -3.313  -1.216  -1.250  0.00  0.00    +0.073 A 
ATOM      4  C   UNL     1      -3.957  -1.333  -2.449  0.00  0.00    +0.085 A 
ATOM      5  C   UNL     1      -5.327  -1.841  -2.483  0.00  0.00    +0.250 A 
ATOM      6  O   UNL     1      -5.901  -1.947  -3.551  0.00  0.00    -0.268 OA
ATOM      7  N   UNL     1      -5.962  -2.195  -1.352  0.00  0.00    -0.322 N 
ATOM      8  H   UNL     1      -6.871  -2.529  -1.402  0.00  0.00    +0.169 HD
ATOM      9  C   UNL     1      -5.347  -2.091  -0.122  0.00  0.00    +0.050 A 
ATOM     10  C   UNL     1      -4.027  -1.614  -0.028  0.00  0.00    +0.012 A 
ATOM     11  C   UNL     1      -3.410  -1.518   1.223  0.00  0.00    +0.011 A 
ATOM     12  C   UNL     1      -4.090  -1.893   2.347  0.00  0.00    +0.001 A 
ATOM     13  C   UNL     1      -5.391  -2.370   2.258  0.00  0.00    +0.002 A 
ATOM     14  C   UNL     1      -6.022  -2.463   1.037  0.00  0.00    +0.026 A 
ENDBRANCH   1   3
BRANCH   1  15
ATOM     15  O   UNL     1      -1.259  -0.711  -0.012  0.00  0.00    -0.453 OA
BRANCH  15  17
ATOM     16  C   UNL     1       0.052   1.300   0.268  0.00  0.00    +0.057 C 
ATOM     17  C   UNL     1       0.076  -0.203  -0.021  0.00  0.00    +0.226 C 
BRANCH  17  18
ATOM     18  C   UNL     1       0.900  -0.915   1.054  0.00  0.00    +0.299 C 
ATOM     19  N   UNL     1       0.274  -0.746   2.372  0.00  0.00    -0.154 NA
ATOM     20  N   UNL     1      -0.328  -1.779   2.692  0.00  0.00    -0.152 NA
ATOM     21  C   UNL     1      -0.193  -2.790   1.635  0.00  0.00    +0.297 C 
ATOM     22  O   UNL     1       0.908  -2.338   0.816  0.00  0.00    -0.319 OA
BRANCH  21  23
ATOM     23  C   UNL     1       0.118  -4.136   2.236  0.00  0.00    +0.042 A 
ATOM     24  C   UNL     1      -0.408  -4.721   3.340  0.00  0.00    +0.016 A 
ATOM     25  C   UNL     1       0.033  -5.978   3.709  0.00  0.00    +0.008 A 
ATOM     26  C   UNL     1       0.979  -6.589   2.955  0.00  0.00    +0.045 A 
ATOM     27  S   UNL     1       1.270  -5.379   1.675  0.00  0.00    -0.097 S 
ENDBRANCH  21  23
ENDBRANCH  17  18
ENDBRANCH  15  17
ENDBRANCH   1  15
TORSDOF 5
