REMARK  Name = ZINC08636729
REMARK  9 active torsions:
REMARK  status: ('A' for Active; 'I' for Inactive)
REMARK    1  A    between atoms: C_2  and  C_3
REMARK    2  A    between atoms: C_3  and  N_4
REMARK    3  A    between atoms: N_4  and  C_5
REMARK    4  A    between atoms: C_5  and  N_7
REMARK    5  A    between atoms: N_7  and  N_8
REMARK    6  A    between atoms: C_9  and  C_11
REMARK    7  A    between atoms: C_12  and  N_33
REMARK    8  A    between atoms: C_14  and  C_27
REMARK    9  A    between atoms: C_16  and  C_20
REMARK                            x       y       z     vdW  Elec       q    Type
REMARK                         _______ _______ _______ _____ _____    ______ ____
ROOT
ATOM      1  C   UNL     1      -2.076  -1.589   2.569  0.00  0.00    +0.214 A 
ATOM      2  C   UNL     1      -1.649  -0.390   2.033  0.00  0.00    +0.086 A 
ATOM      3  C   UNL     1      -0.750  -0.746   0.933  0.00  0.00    +0.069 A 
ATOM      4  C   UNL     1       0.002  -0.004   0.002  0.00  0.00    -0.002 A 
ATOM      5  C   UNL     1       0.770  -0.707  -0.923  0.00  0.00    +0.037 A 
ATOM      6  C   UNL     1       0.757  -2.101  -0.893  0.00  0.00    +0.075 A 
ATOM      7  N   UNL     1       0.033  -2.768  -0.006  0.00  0.00    -0.212 NA
ATOM      8  C   UNL     1      -0.715  -2.151   0.897  0.00  0.00    +0.231 A 
ATOM      9  O   UNL     1      -1.518  -2.609   1.878  0.00  0.00    -0.430 OA
ENDROOT
BRANCH   6  10
ATOM     10  C   UNL     1       1.573  -2.854  -1.876  0.00  0.00    +0.001 A 
ATOM     11  C   UNL     1       2.336  -2.170  -2.821  0.00  0.00    +0.011 A 
ATOM     12  C   UNL     1       3.098  -2.876  -3.730  0.00  0.00    +0.020 A 
ATOM     13  C   UNL     1       3.095  -4.260  -3.712  0.00  0.00    +0.041 A 
ATOM     14  C   UNL     1       2.334  -4.944  -2.779  0.00  0.00    +0.020 A 
ATOM     15  C   UNL     1       1.574  -4.248  -1.862  0.00  0.00    +0.011 A 
ATOM     16 CL   UNL     1       4.050  -5.142  -4.863  0.00  0.00    -0.084 Cl
ENDBRANCH   6  10
BRANCH   4  17
ATOM     17  C   UNL     1      -0.018   1.478   0.010  0.00  0.00    -0.017 A 
ATOM     18  C   UNL     1      -1.234   2.161   0.020  0.00  0.00    +0.008 A 
ATOM     19  C   UNL     1      -1.246   3.541   0.034  0.00  0.00    +0.001 A 
ATOM     20  C   UNL     1      -0.056   4.246   0.025  0.00  0.00    +0.000 A 
ATOM     21  C   UNL     1       1.153   3.573   0.010  0.00  0.00    +0.001 A 
ATOM     22  C   UNL     1       1.178   2.194   0.003  0.00  0.00    +0.008 A 
ENDBRANCH   4  17
BRANCH   1  24
ATOM     23  N   UNL     1      -3.309  -2.955   4.099  0.00  0.00    -0.229 N 
ATOM     24  C   UNL     1      -2.964  -1.727   3.662  0.00  0.00    +0.297 C 
ATOM     25  O   UNL     1      -3.417  -0.737   4.208  0.00  0.00    -0.265 OA
ATOM     26  H   UNL     1      -2.948  -3.743   3.664  0.00  0.00    +0.173 HD
BRANCH  23  27
ATOM     27  N   UNL     1      -4.188  -3.092   5.181  0.00  0.00    -0.246 N 
ATOM     28  H   UNL     1      -4.549  -2.304   5.615  0.00  0.00    +0.172 HD
BRANCH  27  29
ATOM     29  C   UNL     1      -4.533  -4.320   5.617  0.00  0.00    +0.147 C 
ATOM     30  S   UNL     1      -5.608  -4.488   6.939  0.00  0.00    -0.017 S 
BRANCH  29  31
ATOM     31  N   UNL     1      -4.032  -5.415   5.013  0.00  0.00    -0.322 N 
ATOM     32  H   UNL     1      -3.423  -5.320   4.264  0.00  0.00    +0.148 HD
BRANCH  31  33
ATOM     33  C   UNL     1      -4.407  -6.750   5.487  0.00  0.00    +0.130 C 
BRANCH  33  35
ATOM     34  C   UNL     1      -2.976  -8.710   5.223  0.00  0.00    +0.005 C 
ATOM     35  C   UNL     1      -3.715  -7.794   4.649  0.00  0.00    -0.016 C 
ENDBRANCH  33  35
ENDBRANCH  31  33
ENDBRANCH  29  31
ENDBRANCH  27  29
ENDBRANCH  23  27
ENDBRANCH   1  24
BRANCH   2  36
ATOM     36  N   UNL     1      -2.000   0.885   2.448  0.00  0.00    -0.354 N 
ATOM     37  H   UNL     1      -1.636   1.661   1.993  0.00  0.00    +0.142 HD
ATOM     38  H   UNL     1      -2.609   1.002   3.194  0.00  0.00    +0.142 HD
ENDBRANCH   2  36
TORSDOF 9
