REMARK  Name = ZINC64181683
REMARK  11 active torsions:
REMARK  status: ('A' for Active; 'I' for Inactive)
REMARK    1  A    between atoms: C_1  and  C_2
REMARK    2  A    between atoms: N_4  and  C_5
REMARK    3  A    between atoms: C_5  and  C_7
REMARK    4  A    between atoms: C_5  and  C_17
REMARK    5  A    between atoms: C_7  and  C_8
REMARK    6  A    between atoms: N_19  and  C_20
REMARK    7  A    between atoms: C_20  and  C_21
REMARK    8  A    between atoms: C_26  and  S_27
REMARK    9  A    between atoms: S_27  and  N_30
REMARK   10  A    between atoms: N_30  and  C_31
REMARK   11  A    between atoms: N_30  and  C_32
REMARK                            x       y       z     vdW  Elec       q    Type
REMARK                         _______ _______ _______ _____ _____    ______ ____
ROOT
ATOM      1  C   UNL     1      -1.417  -2.447  -0.528  0.00  0.00    +0.163 C 
ENDROOT
BRANCH   1   5
ATOM      2  C   UNL     1      -0.415   1.135  -1.436  0.00  0.00    +0.109 C 
ATOM      3  C   UNL     1      -0.350  -0.337  -1.117  0.00  0.00    +0.211 C 
ATOM      4  O   UNL     1       0.719  -0.909  -1.110  0.00  0.00    -0.276 OA
ATOM      5  N   UNL     1      -1.480  -1.016  -0.838  0.00  0.00    -0.304 N 
ATOM      6  H   UNL     1      -2.335  -0.558  -0.843  0.00  0.00    +0.149 HD
ENDBRANCH   1   5
BRANCH   1   7
ATOM      7  C   UNL     1      -0.555  -2.659   0.690  0.00  0.00    +0.234 C 
ATOM      8  O   UNL     1       0.151  -1.761   1.097  0.00  0.00    -0.274 OA
ATOM      9  N   UNL     1      -0.569  -3.846   1.327  0.00  0.00    -0.310 N 
ATOM     10  H   UNL     1      -1.077  -4.587   0.961  0.00  0.00    +0.149 HD
BRANCH   9  11
ATOM     11  C   UNL     1       0.182  -4.019   2.573  0.00  0.00    +0.141 C 
BRANCH  11  12
ATOM     12  C   UNL     1      -0.097  -5.385   3.144  0.00  0.00    -0.004 A 
ATOM     13  C   UNL     1       0.855  -6.382   3.048  0.00  0.00    +0.007 A 
ATOM     14  C   UNL     1       0.598  -7.636   3.571  0.00  0.00    +0.000 A 
ATOM     15  C   UNL     1      -0.611  -7.891   4.191  0.00  0.00    +0.002 A 
ATOM     16  C   UNL     1      -1.562  -6.894   4.288  0.00  0.00    +0.029 A 
ATOM     17  C   UNL     1      -1.304  -5.639   3.768  0.00  0.00    +0.110 A 
BRANCH  17  18
ATOM     18  S   UNL     1      -2.515  -4.366   3.897  0.00  0.00    +0.061 S 
ATOM     19  O   UNL     1      -1.863  -3.242   4.474  0.00  0.00    -0.153 OA
ATOM     20  O   UNL     1      -3.172  -4.301   2.638  0.00  0.00    -0.153 OA
BRANCH  18  21
ATOM     21  N   UNL     1      -3.645  -4.874   4.995  0.00  0.00    -0.183 NA
ATOM     22  C   UNL     1      -3.518  -4.495   6.405  0.00  0.00    +0.131 C 
ATOM     23  C   UNL     1      -4.772  -5.701   4.558  0.00  0.00    +0.131 C 
ENDBRANCH  18  21
ENDBRANCH  17  18
ENDBRANCH  11  12
ENDBRANCH   9  11
ENDBRANCH   1   7
BRANCH   1  24
ATOM     24  C   UNL     1      -0.815  -3.200  -1.716  0.00  0.00    +0.065 C 
BRANCH  24  25
ATOM     25  C   UNL     1      -1.752  -3.111  -2.893  0.00  0.00    -0.039 C 
ATOM     26  C   UNL     1      -1.702  -2.216  -3.906  0.00  0.00    -0.001 A 
ATOM     27  C   UNL     1      -0.797  -1.100  -4.202  0.00  0.00    +0.010 A 
ATOM     28  C   UNL     1      -1.005  -0.364  -5.318  0.00  0.00    +0.001 A 
ATOM     29  C   UNL     1      -2.062  -0.641  -6.197  0.00  0.00    +0.002 A 
ATOM     30  C   UNL     1      -2.935  -1.650  -5.992  0.00  0.00    +0.026 A 
ATOM     31  C   UNL     1      -2.810  -2.488  -4.849  0.00  0.00    +0.043 A 
ATOM     32  N   UNL     1      -3.517  -3.512  -4.436  0.00  0.00    -0.380 N 
ATOM     33  C   UNL     1      -2.933  -4.009  -3.185  0.00  0.00    +0.144 C 
ATOM     34  H   UNL     1      -4.294  -3.881  -4.884  0.00  0.00    +0.160 HD
ENDBRANCH  24  25
ENDBRANCH   1  24
TORSDOF 8
