REMARK  Name = ZINC13878715
REMARK  5 active torsions:
REMARK  status: ('A' for Active; 'I' for Inactive)
REMARK    1  A    between atoms: C_1  and  C_2
REMARK    2  A    between atoms: C_2  and  C_4
REMARK    3  A    between atoms: C_2  and  S_10
REMARK    4  A    between atoms: S_10  and  C_11
REMARK    5  A    between atoms: N_23  and  C_24
REMARK                            x       y       z     vdW  Elec       q    Type
REMARK                         _______ _______ _______ _____ _____    ______ ____
ROOT
ATOM      1  C   UNL     1      -2.365  -0.093  -1.525  0.00  0.00    +0.173 A 
ATOM      2  N   UNL     1      -1.603   0.595  -2.347  0.00  0.00    -0.221 NA
ATOM      3  C   UNL     1      -2.071   1.023  -3.530  0.00  0.00    +0.104 A 
ATOM      4  C   UNL     1      -1.482   1.792  -4.635  0.00  0.00    +0.026 A 
ATOM      5  C   UNL     1      -0.223   2.353  -4.851  0.00  0.00    +0.012 A 
ATOM      6  C   UNL     1       0.032   3.028  -6.011  0.00  0.00    +0.001 A 
ATOM      7  C   UNL     1      -0.954   3.162  -6.979  0.00  0.00    +0.002 A 
ATOM      8  C   UNL     1      -2.204   2.617  -6.786  0.00  0.00    +0.026 A 
ATOM      9  C   UNL     1      -2.485   1.923  -5.611  0.00  0.00    +0.049 A 
ATOM     10  N   UNL     1      -3.618   1.285  -5.154  0.00  0.00    -0.349 N 
ATOM     11  C   UNL     1      -3.384   0.739  -3.902  0.00  0.00    +0.131 A 
ATOM     12  C   UNL     1      -4.190  -0.000  -3.010  0.00  0.00    +0.279 A 
ATOM     13  N   UNL     1      -3.655  -0.406  -1.839  0.00  0.00    -0.289 N 
ATOM     14  C   UNL     1      -4.467  -1.179  -0.896  0.00  0.00    +0.154 C 
ATOM     15  O   UNL     1      -5.345  -0.272  -3.294  0.00  0.00    -0.265 OA
ATOM     16  H   UNL     1      -4.457   1.227  -5.638  0.00  0.00    +0.166 HD
ENDROOT
BRANCH   1  17
ATOM     17  S   UNL     1      -1.700  -0.632   0.015  0.00  0.00    -0.080 S 
BRANCH  17  19
ATOM     18  C   UNL     1      -0.019   1.526   0.010  0.00  0.00    +0.024 C 
ATOM     19  C   UNL     1       0.002  -0.004   0.002  0.00  0.00    +0.081 C 
BRANCH  19  20
ATOM     20  C   UNL     1       0.731  -0.503   1.223  0.00  0.00    -0.034 A 
ATOM     21  C   UNL     1       0.263  -0.187   2.485  0.00  0.00    +0.005 A 
ATOM     22  C   UNL     1       0.931  -0.645   3.605  0.00  0.00    +0.000 A 
ATOM     23  C   UNL     1       2.068  -1.419   3.463  0.00  0.00    +0.000 A 
ATOM     24  C   UNL     1       2.535  -1.736   2.201  0.00  0.00    +0.000 A 
ATOM     25  C   UNL     1       1.864  -1.282   1.081  0.00  0.00    +0.005 A 
ENDBRANCH  19  20
ENDBRANCH  17  19
ENDBRANCH   1  17
TORSDOF 3
