REMARK  Name = ZINC21304769
REMARK  9 active torsions:
REMARK  status: ('A' for Active; 'I' for Inactive)
REMARK    1  A    between atoms: C_1  and  C_2
REMARK    2  A    between atoms: C_4  and  N_21
REMARK    3  A    between atoms: C_6  and  C_9
REMARK    4  A    between atoms: C_7  and  C_8
REMARK    5  A    between atoms: C_9  and  C_11
REMARK    6  A    between atoms: C_9  and  N_20
REMARK    7  A    between atoms: C_11  and  C_12
REMARK    8  A    between atoms: C_11  and  C_13
REMARK    9  A    between atoms: C_11  and  C_14
REMARK                            x       y       z     vdW  Elec       q    Type
REMARK                         _______ _______ _______ _____ _____    ______ ____
ROOT
ATOM      1  C   UNL     1      -2.634   1.138   1.055  0.00  0.00    -0.034 C 
ENDROOT
BRANCH   1   7
ATOM      2  C   UNL     1      -1.257  -3.282  -0.847  0.00  0.00    +0.044 C 
ATOM      3  C   UNL     1      -1.838  -2.471   0.283  0.00  0.00    -0.045 A 
ATOM      4  C   UNL     1      -2.246  -3.098   1.446  0.00  0.00    +0.036 A 
ATOM      5  C   UNL     1      -2.779  -2.355   2.482  0.00  0.00    +0.127 A 
ATOM      6  C   UNL     1      -2.900  -0.983   2.357  0.00  0.00    +0.035 A 
ATOM      7  C   UNL     1      -2.497  -0.357   1.193  0.00  0.00    -0.056 A 
ATOM      8  C   UNL     1      -1.964  -1.101   0.157  0.00  0.00    -0.046 A 
ATOM      9  C   UNL     1      -1.520  -0.417  -1.111  0.00  0.00    +0.044 C 
BRANCH   5  10
ATOM     10  N   UNL     1      -3.216  -3.026   3.726  0.00  0.00    +0.056 N 
ATOM     11  O   UNL     1      -3.106  -4.234   3.837  0.00  0.00    -0.126 OA
ATOM     12  O   UNL     1      -3.686  -2.371   4.639  0.00  0.00    -0.126 OA
ENDBRANCH   5  10
ENDBRANCH   1   7
BRANCH   1  13
ATOM     13  N   UNL     1      -3.826   1.590   1.786  0.00  0.00    +0.383 N 
ATOM     14  H   UNL     1      -3.926   2.680   1.685  0.00  0.00    -0.089 HD
ATOM     15  H   UNL     1      -3.726   1.327   2.849  0.00  0.00    -0.089 HD
ATOM     16  H   UNL     1      -4.719   1.100   1.369  0.00  0.00    -0.089 HD
ENDBRANCH   1  13
BRANCH   1  17
ATOM     17  C   UNL     1      -1.393   1.819   1.634  0.00  0.00    -0.019 C 
ATOM     18  C   UNL     1      -0.139   1.244   0.971  0.00  0.00    +0.014 C 
ATOM     19  C   UNL     1      -1.331   1.571   3.142  0.00  0.00    +0.014 C 
BRANCH  17  20
ATOM     20  C   UNL     1      -1.465   3.301   1.371  0.00  0.00    -0.043 A 
ATOM     21  C   UNL     1      -2.546   3.831   0.692  0.00  0.00    +0.004 A 
ATOM     22  C   UNL     1      -2.614   5.191   0.455  0.00  0.00    +0.000 A 
ATOM     23  C   UNL     1      -1.596   6.020   0.889  0.00  0.00    +0.000 A 
ATOM     24  C   UNL     1      -0.513   5.490   1.564  0.00  0.00    +0.000 A 
ATOM     25  C   UNL     1      -0.447   4.130   1.805  0.00  0.00    +0.004 A 
ENDBRANCH  17  20
ENDBRANCH   1  17
TORSDOF 5
