REMARK  Name = ZINC12751213
REMARK  5 active torsions:
REMARK  status: ('A' for Active; 'I' for Inactive)
REMARK    1  A    between atoms: C_1  and  C_2
REMARK    2  A    between atoms: C_7  and  C_27
REMARK    3  A    between atoms: N_12  and  C_16
REMARK    4  A    between atoms: C_16  and  C_17
REMARK    5  A    between atoms: C_19  and  C_22
REMARK                            x       y       z     vdW  Elec       q    Type
REMARK                         _______ _______ _______ _____ _____    ______ ____
ROOT
ATOM      1  C   UNL     1      -1.397  -7.456   3.703  0.00  0.00    +0.010 C 
ATOM      2  C   UNL     1      -2.818  -6.890   3.706  0.00  0.00    +0.019 C 
ATOM      3  C   UNL     1      -3.469  -7.154   5.066  0.00  0.00    +0.006 C 
ATOM      4  C   UNL     1      -2.659  -6.458   6.162  0.00  0.00    +0.001 C 
ATOM      5  C   UNL     1      -2.635  -4.951   5.902  0.00  0.00    +0.006 C 
ATOM      6  C   UNL     1      -1.981  -4.679   4.545  0.00  0.00    +0.019 C 
ATOM      7  C   UNL     1      -2.768  -5.388   3.448  0.00  0.00    +0.118 C 
ATOM      8  C   UNL     1      -2.161  -5.110   2.092  0.00  0.00    +0.247 C 
ATOM      9  O   UNL     1      -1.046  -5.397   1.714  0.00  0.00    -0.273 OA
ATOM     10  N   UNL     1      -3.123  -4.473   1.391  0.00  0.00    -0.215 N 
ATOM     11  C   UNL     1      -4.241  -4.323   2.112  0.00  0.00    +0.310 C 
ATOM     12  O   UNL     1      -5.247  -3.784   1.695  0.00  0.00    -0.252 OA
ATOM     13  N   UNL     1      -4.125  -4.837   3.352  0.00  0.00    -0.284 N 
ATOM     14  C   UNL     1      -1.974  -3.173   4.274  0.00  0.00    +0.010 C 
ATOM     15  H   UNL     1      -4.805  -4.842   4.044  0.00  0.00    +0.151 HD
ENDROOT
BRANCH  10  16
ATOM     16  C   UNL     1      -2.965  -4.010   0.011  0.00  0.00    +0.216 C 
BRANCH  16  17
ATOM     17  C   UNL     1      -2.435  -2.599   0.012  0.00  0.00    +0.246 A 
ATOM     18  N   UNL     1      -1.176  -2.241   0.002  0.00  0.00    -0.187 NA
ATOM     19  C   UNL     1      -1.182  -0.887   0.009  0.00  0.00    +0.237 A 
ATOM     20  N   UNL     1      -2.436  -0.508   0.029  0.00  0.00    -0.053 NA
ATOM     21  O   UNL     1      -3.164  -1.478   0.025  0.00  0.00    -0.336 OA
BRANCH  19  22
ATOM     22  C   UNL     1       0.002  -0.004   0.002  0.00  0.00    +0.175 A 
ATOM     23  C   UNL     1      -0.016   1.356   0.009  0.00  0.00    +0.053 A 
ATOM     24  C   UNL     1       1.327   1.780  -0.001  0.00  0.00    +0.042 A 
ATOM     25  C   UNL     1       2.091   0.669  -0.014  0.00  0.00    +0.196 A 
ATOM     26  O   UNL     1       1.288  -0.406  -0.012  0.00  0.00    -0.460 OA
ENDBRANCH  19  22
ENDBRANCH  16  17
ENDBRANCH  10  16
TORSDOF 3
