REMARK  Name = ZINC33280089
REMARK  5 active torsions:
REMARK  status: ('A' for Active; 'I' for Inactive)
REMARK    1  A    between atoms: C_1  and  N_2
REMARK    2  A    between atoms: C_6  and  C_13
REMARK    3  A    between atoms: N_9  and  C_12
REMARK    4  A    between atoms: N_14  and  N_15
REMARK    5  A    between atoms: C_16  and  C_18
REMARK                            x       y       z     vdW  Elec       q    Type
REMARK                         _______ _______ _______ _____ _____    ______ ____
ROOT
ATOM      1  C   UNL     1       7.318   5.171   0.057  0.00  0.00    +0.138 C 
ATOM      2  N   UNL     1       8.612   5.268   0.113  0.00  0.00    -0.187 NA
ENDROOT
BRANCH   1   8
ATOM      3  C   UNL     1       2.992  10.336   0.245  0.00  0.00    +0.154 C 
ATOM      4  N   UNL     1       4.398   9.965   0.061  0.00  0.00    -0.295 N 
ATOM      5  C   UNL     1       4.910   8.671   0.103  0.00  0.00    +0.070 A 
ATOM      6  C   UNL     1       4.330   7.427   0.310  0.00  0.00    +0.028 A 
ATOM      7  C   UNL     1       5.108   6.291   0.290  0.00  0.00    +0.011 A 
ATOM      8  C   UNL     1       6.486   6.388   0.072  0.00  0.00    -0.003 A 
ATOM      9  C   UNL     1       7.073   7.638  -0.136  0.00  0.00    +0.037 A 
ATOM     10  C   UNL     1       6.286   8.775  -0.121  0.00  0.00    +0.070 A 
ATOM     11  N   UNL     1       6.564  10.130  -0.291  0.00  0.00    -0.295 N 
ATOM     12  C   UNL     1       5.412  10.817  -0.176  0.00  0.00    +0.330 A 
ATOM     13  O   UNL     1       5.305  12.025  -0.272  0.00  0.00    -0.246 OA
ATOM     14  C   UNL     1       7.886  10.708  -0.550  0.00  0.00    +0.154 C 
ENDBRANCH   1   8
BRANCH   2  15
ATOM     15  N   UNL     1       9.205   6.426   0.631  0.00  0.00    -0.200 N 
ATOM     16  C   UNL     1      10.543   6.580   0.578  0.00  0.00    +0.299 C 
ATOM     17  O   UNL     1      11.236   5.712   0.079  0.00  0.00    -0.265 OA
ATOM     18  H   UNL     1       8.579   7.211   1.082  0.00  0.00    +0.178 HD
BRANCH  16  19
ATOM     19  C   UNL     1      11.165   7.794   1.121  0.00  0.00    +0.192 A 
ATOM     20  C   UNL     1      12.499   8.057   1.122  0.00  0.00    +0.063 A 
ATOM     21  C   UNL     1      12.654   9.364   1.758  0.00  0.00    +0.021 A 
ATOM     22  C   UNL     1      13.749  10.178   2.056  0.00  0.00    +0.011 A 
ATOM     23  C   UNL     1      13.552  11.378   2.679  0.00  0.00    +0.001 A 
ATOM     24  C   UNL     1      12.270  11.798   3.006  0.00  0.00    +0.004 A 
ATOM     25  C   UNL     1      11.176  11.010   2.720  0.00  0.00    +0.047 A 
ATOM     26  C   UNL     1      11.352   9.783   2.093  0.00  0.00    +0.136 A 
ATOM     27  O   UNL     1      10.500   8.818   1.695  0.00  0.00    -0.450 OA
ENDBRANCH  16  19
ENDBRANCH   2  15
TORSDOF 3
