REMARK  Name = ZINC17472998
REMARK  5 active torsions:
REMARK  status: ('A' for Active; 'I' for Inactive)
REMARK    1  A    between atoms: C_3  and  C_15
REMARK    2  A    between atoms: N_4  and  C_6
REMARK    3  A    between atoms: C_9  and  N_12
REMARK    4  A    between atoms: C_16  and  C_17
REMARK    5  A    between atoms: C_16  and  C_19
REMARK                            x       y       z     vdW  Elec       q    Type
REMARK                         _______ _______ _______ _____ _____    ______ ____
ROOT
ATOM      1  C   UNL     1       1.470  -0.241   0.182  0.00  0.00    +0.020 A 
ATOM      2  C   UNL     1       2.232   0.928   0.141  0.00  0.00    +0.027 A 
ATOM      3  C   UNL     1       1.342   1.990   0.053  0.00  0.00    +0.048 A 
ATOM      4  N   UNL     1       0.067   1.461   0.041  0.00  0.00    -0.316 N 
ATOM      5  C   UNL     1       0.160   0.109   0.120  0.00  0.00    +0.092 A 
ENDROOT
BRANCH   4   6
ATOM      6  C   UNL     1      -1.123   2.195  -0.044  0.00  0.00    +0.047 A 
ATOM      7  C   UNL     1      -1.395   3.189   0.886  0.00  0.00    +0.028 A 
ATOM      8  C   UNL     1      -2.567   3.915   0.796  0.00  0.00    +0.035 A 
ATOM      9  C   UNL     1      -3.474   3.645  -0.213  0.00  0.00    +0.126 A 
ATOM     10  C   UNL     1      -3.208   2.652  -1.138  0.00  0.00    +0.035 A 
ATOM     11  C   UNL     1      -2.035   1.926  -1.056  0.00  0.00    +0.028 A 
BRANCH   9  12
ATOM     12  N   UNL     1      -4.731   4.420  -0.302  0.00  0.00    +0.056 N 
ATOM     13  O   UNL     1      -5.531   4.183  -1.190  0.00  0.00    -0.126 OA
ATOM     14  O   UNL     1      -4.967   5.295   0.512  0.00  0.00    -0.126 OA
ENDBRANCH   9  12
ENDBRANCH   4   6
BRANCH   3  15
ATOM     15  C   UNL     1       1.679   3.355  -0.013  0.00  0.00    +0.050 C 
ATOM     16  C   UNL     1       3.005   3.736  -0.147  0.00  0.00    +0.115 C 
BRANCH  16  17
ATOM     17  C   UNL     1       3.375   5.153  -0.042  0.00  0.00    +0.252 C 
ATOM     18  O   UNL     1       2.518   5.993   0.163  0.00  0.00    -0.270 OA
ATOM     19  N   UNL     1       4.664   5.524  -0.171  0.00  0.00    -0.325 N 
ATOM     20  H   UNL     1       5.347   4.855  -0.334  0.00  0.00    +0.145 HD
ATOM     21  H   UNL     1       4.909   6.460  -0.102  0.00  0.00    +0.145 HD
ENDBRANCH  16  17
BRANCH  16  22
ATOM     22  C   UNL     1       4.013   2.749  -0.387  0.00  0.00    +0.104 C 
ATOM     23  N   UNL     1       4.813   1.965  -0.577  0.00  0.00    -0.191 NA
ENDBRANCH  16  22
ENDBRANCH   3  15
TORSDOF 5
