REMARK  Name = ZINC19925600
REMARK  8 active torsions:
REMARK  status: ('A' for Active; 'I' for Inactive)
REMARK    1  A    between atoms: N_9  and  C_12
REMARK    2  A    between atoms: C_12  and  C_13
REMARK    3  A    between atoms: C_13  and  C_14
REMARK    4  A    between atoms: C_14  and  C_15
REMARK    5  A    between atoms: C_15  and  C_16
REMARK    6  A    between atoms: C_16  and  C_17
REMARK    7  A    between atoms: C_22  and  C_25
REMARK    8  A    between atoms: C_22  and  N_28
REMARK                            x       y       z     vdW  Elec       q    Type
REMARK                         _______ _______ _______ _____ _____    ______ ____
ROOT
ATOM      1  C   UNL     1       5.394   0.203   5.468  0.00  0.00    +0.216 C 
ATOM      2  O   UNL     1       6.561   0.473   5.281  0.00  0.00    -0.276 OA
ATOM      3  N   UNL     1       4.672  -0.382   4.491  0.00  0.00    -0.302 N 
ATOM      4  C   UNL     1       5.285  -0.697   3.194  0.00  0.00    +0.107 C 
ATOM      5  C   UNL     1       4.435  -0.074   2.082  0.00  0.00    +0.016 C 
ATOM      6  C   UNL     1       2.988  -0.550   2.225  0.00  0.00    +0.015 C 
ATOM      7  C   UNL     1       2.429  -0.092   3.575  0.00  0.00    +0.016 C 
ATOM      8  C   UNL     1       3.257  -0.715   4.703  0.00  0.00    +0.107 C 
ENDROOT
BRANCH   6   9
ATOM      9  N   UNL     1       2.176   0.019   1.141  0.00  0.00    +0.389 N 
ATOM     10  C   UNL     1       0.797  -0.483   1.197  0.00  0.00    -0.077 C 
ATOM     11  C   UNL     1       0.022   0.013  -0.025  0.00  0.00    -0.019 C 
ATOM     12  C   UNL     1       0.027   1.545  -0.040  0.00  0.00    -0.004 C 
ATOM     13  C   UNL     1       1.475   2.042  -0.049  0.00  0.00    -0.019 C 
ATOM     14  C   UNL     1       2.208   1.487   1.174  0.00  0.00    -0.077 C 
ATOM     15  H   UNL     1       2.612  -0.305   0.185  0.00  0.00    -0.080 HD
ENDBRANCH   6   9
BRANCH   6  16
ATOM     16  C   UNL     1       2.944  -2.054   2.149  0.00  0.00    +0.200 C 
ATOM     17  O   UNL     1       2.883  -2.712   3.166  0.00  0.00    -0.278 OA
ATOM     18  N   UNL     1       2.973  -2.669   0.950  0.00  0.00    -0.330 N 
ATOM     19  H   UNL     1       2.941  -3.767   0.894  0.00  0.00    +0.145 HD
ATOM     20  H   UNL     1       3.028  -2.073   0.027  0.00  0.00    +0.145 HD
ENDBRANCH   6  16
BRANCH   1  21
ATOM     21  C   UNL     1       4.750   0.520   6.794  0.00  0.00    +0.096 C 
BRANCH  21  22
ATOM     22  C   UNL     1       5.780   1.174   7.717  0.00  0.00    +0.009 C 
BRANCH  22  23
ATOM     23  C   UNL     1       5.127   1.495   9.063  0.00  0.00    +0.002 C 
BRANCH  23  24
ATOM     24  C   UNL     1       6.157   2.149   9.986  0.00  0.00    +0.023 C 
BRANCH  24  25
ATOM     25  C   UNL     1       5.503   2.471  11.332  0.00  0.00    +0.149 C 
BRANCH  25  34
ATOM     26  C   UNL     1       8.821   6.870  14.074  0.00  0.00    +0.001 A 
ATOM     27  C   UNL     1       9.559   6.002  14.869  0.00  0.00    +0.002 A 
ATOM     28  C   UNL     1       9.352   4.643  14.808  0.00  0.00    +0.030 A 
ATOM     29  C   UNL     1       8.389   4.126  13.936  0.00  0.00    +0.100 A 
ATOM     30  C   UNL     1       7.642   5.012  13.130  0.00  0.00    +0.068 A 
ATOM     31  C   UNL     1       7.867   6.385  13.207  0.00  0.00    +0.015 A 
ATOM     32  C   UNL     1       6.639   4.443  12.217  0.00  0.00    +0.278 A 
ATOM     33  O   UNL     1       5.966   5.155  11.493  0.00  0.00    -0.265 OA
ATOM     34  N   UNL     1       6.489   3.097  12.216  0.00  0.00    -0.210 N 
ATOM     35  N   UNL     1       7.279   2.305  13.053  0.00  0.00    -0.062 NA
ATOM     36  N   UNL     1       8.160   2.792  13.850  0.00  0.00    -0.131 NA
ENDBRANCH  25  34
ENDBRANCH  24  25
ENDBRANCH  23  24
ENDBRANCH  22  23
ENDBRANCH  21  22
ENDBRANCH   1  21
TORSDOF 8
