REMARK  Name = ZINC07540810
REMARK  9 active torsions:
REMARK  status: ('A' for Active; 'I' for Inactive)
REMARK    1  A    between atoms: C_1  and  C_2
REMARK    2  A    between atoms: C_2  and  C_4
REMARK    3  A    between atoms: C_2  and  O_28
REMARK    4  A    between atoms: C_7  and  C_10
REMARK    5  A    between atoms: C_13  and  C_15
REMARK    6  A    between atoms: C_15  and  N_60
REMARK    7  A    between atoms: C_16  and  N_60
REMARK    8  A    between atoms: C_20  and  C_27
REMARK    9  A    between atoms: C_23  and  C_26
REMARK                            x       y       z     vdW  Elec       q    Type
REMARK                         _______ _______ _______ _____ _____    ______ ____
ROOT
ATOM      1  C   UNL     1      -2.167   5.582   3.739  0.00  0.00    -0.006 C 
ENDROOT
BRANCH   1   5
ATOM      2  C   UNL     1      -1.547   9.171   4.028  0.00  0.00    +0.135 A 
ATOM      3  C   UNL     1      -2.730   9.204   3.359  0.00  0.00    +0.050 A 
ATOM      4  C   UNL     1      -3.121   7.864   3.160  0.00  0.00    +0.043 A 
ATOM      5  C   UNL     1      -2.168   7.089   3.712  0.00  0.00    +0.089 A 
ATOM      6  O   UNL     1      -1.221   7.882   4.240  0.00  0.00    -0.462 OA
BRANCH   2  10
ATOM      7  C   UNL     1       0.718  12.549   5.251  0.00  0.00    -0.019 A 
ATOM      8  C   UNL     1       1.176  11.274   5.532  0.00  0.00    +0.007 A 
ATOM      9  C   UNL     1       0.445  10.173   5.138  0.00  0.00    +0.012 A 
ATOM     10  C   UNL     1      -0.759  10.347   4.454  0.00  0.00    +0.017 A 
ATOM     11  C   UNL     1      -1.213  11.636   4.169  0.00  0.00    +0.012 A 
ATOM     12  C   UNL     1      -0.475  12.729   4.573  0.00  0.00    +0.007 A 
BRANCH   7  14
ATOM     13  C   UNL     1       2.321  14.284   4.496  0.00  0.00    +0.043 C 
ATOM     14  C   UNL     1       1.522  13.748   5.685  0.00  0.00    +0.141 C 
BRANCH  14  15
ATOM     15  O   UNL     1       0.639  14.765   6.163  0.00  0.00    -0.387 OA
ATOM     16  H   UNL     1       0.001  15.073   5.506  0.00  0.00    +0.210 HD
ENDBRANCH  14  15
ENDBRANCH   7  14
ENDBRANCH   2  10
ENDBRANCH   1   5
BRANCH   1  17
ATOM     17  N   UNL     1      -1.481   5.077   2.534  0.00  0.00    +0.387 N 
ATOM     18  H   UNL     1      -0.516   5.426   2.523  0.00  0.00    -0.084 HD
ATOM     19  H   UNL     1      -1.976   5.411   1.699  0.00  0.00    -0.084 HD
BRANCH  17  20
ATOM     20  C   UNL     1      -1.466   3.603   2.534  0.00  0.00    -0.066 C 
ATOM     21  C   UNL     1      -0.726   3.096   3.774  0.00  0.00    -0.009 C 
ATOM     22  C   UNL     1      -0.705   1.566   3.765  0.00  0.00    -0.011 C 
ATOM     23  C   UNL     1      -2.140   1.036   3.776  0.00  0.00    +0.010 C 
ATOM     24  C   UNL     1      -2.880   1.543   2.537  0.00  0.00    -0.033 C 
ATOM     25  C   UNL     1      -2.901   3.073   2.545  0.00  0.00    -0.006 C 
ATOM     26  C   UNL     1      -2.164   1.050   1.278  0.00  0.00    +0.013 C 
ATOM     27  C   UNL     1      -0.729   1.579   1.267  0.00  0.00    -0.033 C 
ATOM     28  C   UNL     1       0.011   1.072   2.506  0.00  0.00    +0.010 C 
ATOM     29  C   UNL     1      -0.750   3.109   1.275  0.00  0.00    -0.006 C 
ATOM     30  C   UNL     1      -0.013   1.086   0.008  0.00  0.00    +0.011 C 
ATOM     31  C   UNL     1      -4.316   1.014   2.547  0.00  0.00    +0.011 C 
ENDBRANCH  17  20
ENDBRANCH   1  17
TORSDOF 6
