REMARK  Name = ZINC09246429
REMARK  12 active torsions:
REMARK  status: ('A' for Active; 'I' for Inactive)
REMARK    1  A    between atoms: C_1  and  C_2
REMARK    2  A    between atoms: C_2  and  O_3
REMARK    3  A    between atoms: O_3  and  C_4
REMARK    4  A    between atoms: C_4  and  C_6
REMARK    5  A    between atoms: C_7  and  C_32
REMARK    6  A    between atoms: C_8  and  C_13
REMARK    7  A    between atoms: C_9  and  C_12
REMARK    8  A    between atoms: C_13  and  O_15
REMARK    9  A    between atoms: O_15  and  C_16
REMARK   10  A    between atoms: C_16  and  C_17
REMARK   11  A    between atoms: N_22  and  C_23
REMARK   12  A    between atoms: C_29  and  C_31
REMARK                            x       y       z     vdW  Elec       q    Type
REMARK                         _______ _______ _______ _____ _____    ______ ____
ROOT
ATOM      1  O   UNL     1       2.006   3.831  -1.164  0.00  0.00    -0.452 OA
ENDROOT
BRANCH   1   2
ATOM      2  C   UNL     1       1.801   3.186   0.002  0.00  0.00    +0.342 C 
ATOM      3  O   UNL     1       2.006   3.756   1.056  0.00  0.00    -0.245 OA
BRANCH   2   6
ATOM      4  C   UNL     1       0.002  -0.004   0.002  0.00  0.00    +0.128 A 
ATOM      5  C   UNL     1      -0.016   1.360   0.009  0.00  0.00    -0.005 A 
ATOM      6  C   UNL     1       1.329   1.791  -0.001  0.00  0.00    +0.083 A 
ATOM      7  C   UNL     1       2.119   0.656  -0.015  0.00  0.00    +0.028 A 
ATOM      8  N   UNL     1       1.316  -0.419  -0.013  0.00  0.00    -0.352 N 
ATOM      9  H   UNL     1       1.614  -1.342  -0.021  0.00  0.00    +0.166 HD
ATOM     10  C   UNL     1       3.626   0.631  -0.030  0.00  0.00    +0.064 C 
ATOM     11  C   UNL     1      -1.240   2.240   0.020  0.00  0.00    +0.047 C 
BRANCH   4  12
ATOM     12  C   UNL     1      -1.175  -0.879   0.009  0.00  0.00    +0.356 C 
ATOM     13  O   UNL     1      -2.291  -0.397   0.023  0.00  0.00    -0.243 OA
BRANCH  12  14
ATOM     14  O   UNL     1      -1.019  -2.219   0.000  0.00  0.00    -0.460 OA
BRANCH  14  16
ATOM     15  C   UNL     1      -1.854  -4.506  -0.004  0.00  0.00    +0.048 C 
ATOM     16  C   UNL     1      -2.228  -3.023   0.008  0.00  0.00    +0.229 C 
ENDBRANCH  14  16
ENDBRANCH  12  14
ENDBRANCH   4  12
ENDBRANCH   2   6
ENDBRANCH   1   2
BRANCH   1  17
ATOM     17  C   UNL     1       2.471   5.204  -1.085  0.00  0.00    +0.328 C 
BRANCH  17  18
ATOM     18  C   UNL     1       2.642   5.757  -2.476  0.00  0.00    +0.258 C 
ATOM     19  O   UNL     1       2.397   5.063  -3.439  0.00  0.00    -0.272 OA
ATOM     20  N   UNL     1       3.069   7.024  -2.650  0.00  0.00    -0.237 N 
ATOM     21  C   UNL     1       3.222   7.518  -3.894  0.00  0.00    +0.306 C 
ATOM     22  O   UNL     1       2.976   6.822  -4.860  0.00  0.00    -0.252 OA
ATOM     23  N   UNL     1       3.648   8.785  -4.068  0.00  0.00    -0.296 N 
ATOM     24  H   UNL     1       3.265   7.579  -1.879  0.00  0.00    +0.159 HD
ATOM     25  H   UNL     1       3.845   9.341  -3.298  0.00  0.00    +0.151 HD
BRANCH  23  26
ATOM     26  C   UNL     1       3.815   9.323  -5.421  0.00  0.00    +0.077 C 
ATOM     27  C   UNL     1       5.196   8.940  -5.955  0.00  0.00    +0.022 C 
ATOM     28  C   UNL     1       5.370   9.501  -7.368  0.00  0.00    +0.002 C 
ATOM     29  C   UNL     1       5.243  11.025  -7.330  0.00  0.00    +0.000 C 
ATOM     30  C   UNL     1       3.861  11.409  -6.795  0.00  0.00    +0.005 C 
ATOM     31  C   UNL     1       3.687  10.847  -5.383  0.00  0.00    +0.006 C 
ATOM     32  C   UNL     1       2.306  11.230  -4.848  0.00  0.00    +0.009 C 
ENDBRANCH  23  26
ENDBRANCH  17  18
ENDBRANCH   1  17
TORSDOF 8
