REMARK  Name = ZINC01859533
REMARK  6 active torsions:
REMARK  status: ('A' for Active; 'I' for Inactive)
REMARK    1  A    between atoms: C_1  and  C_2
REMARK    2  A    between atoms: C_5  and  N_9
REMARK    3  A    between atoms: C_7  and  C_8
REMARK    4  A    between atoms: C_17  and  C_21
REMARK    5  A    between atoms: C_17  and  N_25
REMARK    6  A    between atoms: C_26  and  C_28
REMARK                            x       y       z     vdW  Elec       q    Type
REMARK                         _______ _______ _______ _____ _____    ______ ____
ROOT
ATOM      1  N   UNL     1      -0.153  -4.114   0.023  0.00  0.00    -0.249 N 
ATOM      2  C   UNL     1      -0.194  -4.797  -1.176  0.00  0.00    +0.125 A 
ATOM      3  C   UNL     1      -0.121  -6.158  -1.149  0.00  0.00    +0.097 A 
ATOM      4  C   UNL     1      -0.007  -6.833   0.073  0.00  0.00    +0.262 A 
ATOM      5  N   UNL     1       0.030  -6.122   1.220  0.00  0.00    -0.274 N 
ATOM      6  C   UNL     1      -0.038  -4.779   1.185  0.00  0.00    +0.335 A 
ATOM      7  O   UNL     1       0.001  -4.154   2.227  0.00  0.00    -0.246 OA
ATOM      8  O   UNL     1       0.058  -8.050   0.101  0.00  0.00    -0.267 OA
ATOM      9  C   UNL     1      -0.189  -6.623  -2.584  0.00  0.00    +0.240 C 
ATOM     10  C   UNL     1      -0.308  -5.333  -3.370  0.00  0.00    +0.256 C 
ATOM     11  O   UNL     1      -0.392  -5.221  -4.574  0.00  0.00    -0.272 OA
ATOM     12  N   UNL     1      -0.302  -4.336  -2.466  0.00  0.00    -0.269 N 
ATOM     13  H   UNL     1       0.109  -6.581   2.071  0.00  0.00    +0.173 HD
ATOM     14  H   UNL     1      -0.366  -3.397  -2.700  0.00  0.00    +0.156 HD
ENDROOT
BRANCH   1  19
ATOM     15  C   UNL     1      -0.448   1.554   0.044  0.00  0.00    +0.044 C 
ATOM     16  C   UNL     1      -0.370   0.049   0.039  0.00  0.00    -0.047 A 
ATOM     17  C   UNL     1      -1.399  -0.698   0.584  0.00  0.00    +0.005 A 
ATOM     18  C   UNL     1      -1.330  -2.077   0.580  0.00  0.00    +0.026 A 
ATOM     19  C   UNL     1      -0.226  -2.714   0.028  0.00  0.00    +0.053 A 
ATOM     20  C   UNL     1       0.805  -1.962  -0.518  0.00  0.00    +0.030 A 
ATOM     21  C   UNL     1       0.728  -0.583  -0.516  0.00  0.00    -0.046 A 
ATOM     22  C   UNL     1       1.844   0.234  -1.113  0.00  0.00    +0.044 C 
ENDBRANCH   1  19
BRANCH   9  23
ATOM     23  C   UNL     1      -1.420  -7.504  -2.806  0.00  0.00    +0.424 C 
ATOM     24  F   UNL     1      -2.579  -6.750  -2.592  0.00  0.00    -0.167 F 
ATOM     25  F   UNL     1      -1.416  -7.989  -4.119  0.00  0.00    -0.167 F 
ATOM     26  F   UNL     1      -1.392  -8.579  -1.912  0.00  0.00    -0.167 F 
ENDBRANCH   9  23
BRANCH   9  27
ATOM     27  N   UNL     1       1.034  -7.341  -2.952  0.00  0.00    -0.287 N 
ATOM     28  C   UNL     1       2.235  -6.750  -2.797  0.00  0.00    +0.245 C 
ATOM     29  O   UNL     1       2.299  -5.587  -2.447  0.00  0.00    -0.270 OA
ATOM     30  H   UNL     1       0.979  -8.242  -3.308  0.00  0.00    +0.151 HD
BRANCH  28  31
ATOM     31  C   UNL     1       3.474  -7.515  -3.052  0.00  0.00    +0.037 A 
ATOM     32  C   UNL     1       3.403  -8.848  -3.459  0.00  0.00    +0.013 A 
ATOM     33  C   UNL     1       4.563  -9.556  -3.695  0.00  0.00    +0.001 A 
ATOM     34  C   UNL     1       5.795  -8.947  -3.530  0.00  0.00    +0.000 A 
ATOM     35  C   UNL     1       5.872  -7.626  -3.126  0.00  0.00    +0.001 A 
ATOM     36  C   UNL     1       4.719  -6.905  -2.892  0.00  0.00    +0.013 A 
ENDBRANCH  28  31
ENDBRANCH   9  27
TORSDOF 4
