REMARK  Name = ZINC39634683
REMARK  15 active torsions:
REMARK  status: ('A' for Active; 'I' for Inactive)
REMARK    1  A    between atoms: C_1  and  C_2
REMARK    2  A    between atoms: C_2  and  C_3
REMARK    3  A    between atoms: C_3  and  C_4
REMARK    4  A    between atoms: C_4  and  C_6
REMARK    5  A    between atoms: C_4  and  C_7
REMARK    6  A    between atoms: C_11  and  C_20
REMARK    7  A    between atoms: N_22  and  C_23
REMARK    8  A    between atoms: C_23  and  C_24
REMARK    9  A    between atoms: C_24  and  N_25
REMARK   10  A    between atoms: N_25  and  C_26
REMARK   11  A    between atoms: N_25  and  C_29
REMARK   12  A    between atoms: C_26  and  C_27
REMARK   13  A    between atoms: C_26  and  C_28
REMARK   14  A    between atoms: C_29  and  C_30
REMARK   15  A    between atoms: C_29  and  C_31
REMARK                            x       y       z     vdW  Elec       q    Type
REMARK                         _______ _______ _______ _____ _____    ______ ____
ROOT
ATOM      1  C   UNL     1      -4.875  -3.140   1.035  0.00  0.00    +0.218 C 
ATOM      2  O   UNL     1      -5.933  -2.553   0.959  0.00  0.00    -0.275 OA
ATOM      3  N   UNL     1      -4.832  -4.477   0.868  0.00  0.00    -0.300 N 
ATOM      4  C   UNL     1      -3.666  -5.376   1.030  0.00  0.00    +0.121 C 
ATOM      5  C   UNL     1      -4.239  -6.641   1.706  0.00  0.00    +0.100 C 
ATOM      6  C   UNL     1      -5.732  -6.639   1.340  0.00  0.00    -0.004 C 
ATOM      7  C   UNL     1      -5.944  -5.381   0.486  0.00  0.00    +0.115 C 
ATOM      8  C   UNL     1      -6.081  -7.889   0.537  0.00  0.00    -0.010 C 
ATOM      9  C   UNL     1      -7.582  -7.893   0.234  0.00  0.00    -0.082 C 
ATOM     10  N   UNL     1      -8.337  -7.870   1.493  0.00  0.00    +0.379 N 
ATOM     11  C   UNL     1      -8.067  -6.621   2.216  0.00  0.00    -0.082 C 
ATOM     12  C   UNL     1      -6.586  -6.563   2.602  0.00  0.00    -0.010 C 
ATOM     13  H   UNL     1      -9.324  -7.934   1.293  0.00  0.00    -0.086 HD
ATOM     14  H   UNL     1      -8.061  -8.654   2.064  0.00  0.00    -0.086 HD
ENDROOT
BRANCH   5  15
ATOM     15  C   UNL     1      -3.565  -7.876   1.166  0.00  0.00    +0.218 C 
ATOM     16  O   UNL     1      -3.213  -7.916   0.006  0.00  0.00    -0.275 OA
ATOM     17  N   UNL     1      -3.354  -8.936   1.971  0.00  0.00    -0.317 N 
ATOM     18  H   UNL     1      -3.635  -8.904   2.899  0.00  0.00    +0.149 HD
BRANCH  17  19
ATOM     19  C   UNL     1      -2.699 -10.136   1.445  0.00  0.00    +0.085 C 
BRANCH  19  20
ATOM     20  C   UNL     1      -2.582 -11.181   2.557  0.00  0.00    -0.059 C 
BRANCH  20  21
ATOM     21  N   UNL     1      -1.798 -12.325   2.072  0.00  0.00    +0.384 N 
ATOM     22  H   UNL     1      -0.911 -11.999   1.716  0.00  0.00    -0.081 HD
BRANCH  21  23
ATOM     23  C   UNL     1      -1.565 -13.264   3.179  0.00  0.00    -0.074 C 
ATOM     24  C   UNL     1      -0.650 -14.394   2.705  0.00  0.00    -0.014 C 
ATOM     25  C   UNL     1      -0.902 -12.525   4.343  0.00  0.00    -0.014 C 
ENDBRANCH  21  23
BRANCH  21  26
ATOM     26  C   UNL     1      -2.536 -13.006   1.000  0.00  0.00    -0.074 C 
ATOM     27  C   UNL     1      -4.037 -12.919   1.279  0.00  0.00    -0.014 C 
ATOM     28  C   UNL     1      -2.226 -12.333  -0.339  0.00  0.00    -0.014 C 
ENDBRANCH  21  26
ENDBRANCH  20  21
ENDBRANCH  19  20
ENDBRANCH  17  19
ENDBRANCH   5  15
BRANCH   1  29
ATOM     29  C   UNL     1      -3.607  -2.375   1.318  0.00  0.00    +0.072 C 
ATOM     30  C   UNL     1      -3.331  -2.385   2.822  0.00  0.00    +0.017 C 
BRANCH  29  31
ATOM     31  C   UNL     1      -3.765  -0.931   0.837  0.00  0.00    +0.012 C 
BRANCH  31  33
ATOM     32  C   UNL     1      -2.596   1.255   0.529  0.00  0.00    +0.004 C 
ATOM     33  C   UNL     1      -2.438  -0.189   1.009  0.00  0.00    -0.003 C 
ENDBRANCH  31  33
ENDBRANCH  29  31
ENDBRANCH   1  29
TORSDOF 9
