REMARK  Name = ZINC40034162
REMARK  8 active torsions:
REMARK  status: ('A' for Active; 'I' for Inactive)
REMARK    1  A    between atoms: C_1  and  C_2
REMARK    2  A    between atoms: C_2  and  C_3
REMARK    3  A    between atoms: C_2  and  N_4
REMARK    4  A    between atoms: C_13  and  C_16
REMARK    5  A    between atoms: C_16  and  O_18
REMARK    6  A    between atoms: O_18  and  C_19
REMARK    7  A    between atoms: C_19  and  C_20
REMARK    8  A    between atoms: C_20  and  C_22
REMARK                            x       y       z     vdW  Elec       q    Type
REMARK                         _______ _______ _______ _____ _____    ______ ____
ROOT
ATOM      1  C   UNL     1       1.624   1.451   3.177  0.00  0.00    +0.331 C 
ATOM      2  O   UNL     1       0.658   1.828   2.556  0.00  0.00    -0.249 OA
ENDROOT
BRANCH   1  12
ATOM      3  N   UNL     1       0.711  -0.489   1.189  0.00  0.00    -0.229 N 
ATOM      4  C   UNL     1       0.058  -1.283   2.065  0.00  0.00    +0.261 C 
ATOM      5  O   UNL     1      -1.073  -1.667   1.839  0.00  0.00    -0.269 OA
ATOM      6  C   UNL     1       0.760  -1.672   3.309  0.00  0.00    +0.043 A 
ATOM      7  C   UNL     1       0.322  -2.721   4.107  0.00  0.00    +0.013 A 
ATOM      8  C   UNL     1       1.022  -3.037   5.256  0.00  0.00    +0.001 A 
ATOM      9  C   UNL     1       2.148  -2.312   5.607  0.00  0.00    +0.000 A 
ATOM     10  C   UNL     1       2.587  -1.266   4.813  0.00  0.00    +0.006 A 
ATOM     11  C   UNL     1       1.899  -0.943   3.667  0.00  0.00    -0.006 A 
ATOM     12  C   UNL     1       2.335   0.186   2.771  0.00  0.00    +0.212 C 
ATOM     13  N   UNL     1       2.009  -0.134   1.376  0.00  0.00    -0.219 NA
ATOM     14  H   UNL     1       2.633  -0.836   1.007  0.00  0.00    +0.146 HD
BRANCH   3  16
ATOM     15  C   UNL     1      -0.019   1.526   0.010  0.00  0.00    +0.029 C 
ATOM     16  C   UNL     1       0.002  -0.004   0.002  0.00  0.00    +0.088 C 
ATOM     17  C   UNL     1       0.718  -0.497  -1.257  0.00  0.00    +0.029 C 
ENDBRANCH   3  16
ENDBRANCH   1  12
BRANCH   1  18
ATOM     18  O   UNL     1       2.063   2.160   4.229  0.00  0.00    -0.455 OA
BRANCH  18  19
ATOM     19  C   UNL     1       1.341   3.349   4.558  0.00  0.00    +0.311 C 
BRANCH  19  20
ATOM     20  C   UNL     1       1.974   4.006   5.757  0.00  0.00    +0.199 C 
ATOM     21  O   UNL     1       2.949   3.506   6.279  0.00  0.00    -0.289 OA
BRANCH  20  22
ATOM     22  C   UNL     1       1.434   5.204   6.272  0.00  0.00    +0.026 C 
ATOM     23  C   UNL     1       1.895   5.932   7.354  0.00  0.00    +0.006 A 
ATOM     24  C   UNL     1       2.977   5.748   8.247  0.00  0.00    +0.010 A 
ATOM     25  C   UNL     1       3.201   6.638   9.239  0.00  0.00    +0.001 A 
ATOM     26  C   UNL     1       2.391   7.769   9.434  0.00  0.00    +0.002 A 
ATOM     27  C   UNL     1       1.334   8.037   8.637  0.00  0.00    +0.026 A 
ATOM     28  C   UNL     1       1.020   7.117   7.531  0.00  0.00    +0.043 A 
ATOM     29  N   UNL     1       0.081   7.130   6.629  0.00  0.00    -0.380 N 
ATOM     30  C   UNL     1       0.233   5.964   5.753  0.00  0.00    +0.152 C 
ATOM     31  H   UNL     1      -0.608   7.807   6.546  0.00  0.00    +0.160 HD
ENDBRANCH  20  22
ENDBRANCH  19  20
ENDBRANCH  18  19
ENDBRANCH   1  18
TORSDOF 6
