REMARK  Name = ZINC39969171
REMARK  6 active torsions:
REMARK  status: ('A' for Active; 'I' for Inactive)
REMARK    1  A    between atoms: C_1  and  C_2
REMARK    2  A    between atoms: C_6  and  C_8
REMARK    3  A    between atoms: C_12  and  S_21
REMARK    4  A    between atoms: N_14  and  C_15
REMARK    5  A    between atoms: S_21  and  C_22
REMARK    6  A    between atoms: C_22  and  C_23
REMARK                            x       y       z     vdW  Elec       q    Type
REMARK                         _______ _______ _______ _____ _____    ______ ____
ROOT
ATOM      1  C   UNL     1       0.267  -2.582   2.538  0.00  0.00    +0.188 C 
ATOM      2  N   UNL     1       1.187  -2.031   3.558  0.00  0.00    -0.230 NA
ATOM      3  N   UNL     1       1.601  -3.202   4.347  0.00  0.00    -0.226 NA
ATOM      4  C   UNL     1       1.724  -4.270   3.320  0.00  0.00    +0.218 C 
ATOM      5  N   UNL     1       0.609  -4.007   2.387  0.00  0.00    -0.284 N 
ATOM      6  H   UNL     1       1.983  -1.587   3.125  0.00  0.00    +0.143 HD
ATOM      7  H   UNL     1       0.902  -3.440   5.035  0.00  0.00    +0.143 HD
ENDROOT
BRANCH   1  13
ATOM      8  C   UNL     1       3.186  -1.329  -1.330  0.00  0.00    +0.044 C 
ATOM      9  C   UNL     1       1.856  -1.263  -0.623  0.00  0.00    -0.050 A 
ATOM     10  C   UNL     1       0.814  -0.544  -1.177  0.00  0.00    +0.003 A 
ATOM     11  C   UNL     1      -0.406  -0.484  -0.528  0.00  0.00    +0.001 A 
ATOM     12  C   UNL     1      -0.583  -1.143   0.674  0.00  0.00    +0.007 A 
ATOM     13  C   UNL     1       0.460  -1.863   1.227  0.00  0.00    -0.011 A 
ATOM     14  C   UNL     1       1.678  -1.927   0.576  0.00  0.00    +0.010 A 
ENDBRANCH   1  13
BRANCH   5  15
ATOM     15  C   UNL     1      -0.001  -4.927   1.531  0.00  0.00    +0.033 A 
ATOM     16  C   UNL     1      -1.112  -4.554   0.785  0.00  0.00    +0.023 A 
ATOM     17  C   UNL     1      -1.712  -5.466  -0.061  0.00  0.00    +0.002 A 
ATOM     18  C   UNL     1      -1.208  -6.749  -0.166  0.00  0.00    +0.000 A 
ATOM     19  C   UNL     1      -0.103  -7.124   0.575  0.00  0.00    +0.002 A 
ATOM     20  C   UNL     1       0.506  -6.215   1.419  0.00  0.00    +0.023 A 
ENDBRANCH   5  15
BRANCH   4  21
ATOM     21  S   UNL     1       3.317  -4.145   2.462  0.00  0.00    -0.114 S 
BRANCH  21  22
ATOM     22  C   UNL     1       4.518  -4.756   3.677  0.00  0.00    +0.146 C 
BRANCH  22  23
ATOM     23  C   UNL     1       5.889  -4.794   3.052  0.00  0.00    +0.120 A 
ATOM     24  N   UNL     1       6.930  -5.232   3.808  0.00  0.00    -0.310 N 
ATOM     25  H   UNL     1       6.775  -5.510   4.724  0.00  0.00    +0.170 HD
ATOM     26  C   UNL     1       8.181  -5.286   3.293  0.00  0.00    +0.259 A 
ATOM     27  O   UNL     1       9.122  -5.677   3.959  0.00  0.00    -0.267 OA
ATOM     28  C   UNL     1       8.358  -4.853   1.899  0.00  0.00    +0.065 A 
ATOM     29  C   UNL     1       9.604  -4.869   1.275  0.00  0.00    +0.015 A 
ATOM     30  C   UNL     1       9.713  -4.452  -0.033  0.00  0.00    +0.001 A 
ATOM     31  C   UNL     1       8.594  -4.019  -0.732  0.00  0.00    +0.002 A 
ATOM     32  C   UNL     1       7.354  -3.995  -0.134  0.00  0.00    +0.028 A 
ATOM     33  C   UNL     1       7.218  -4.413   1.191  0.00  0.00    +0.078 A 
ATOM     34  N   UNL     1       6.014  -4.412   1.818  0.00  0.00    -0.233 NA
ENDBRANCH  22  23
ENDBRANCH  21  22
ENDBRANCH   4  21
TORSDOF 5
