REMARK  Name = ZINC59135610
REMARK  11 active torsions:
REMARK  status: ('A' for Active; 'I' for Inactive)
REMARK    1  A    between atoms: C_1  and  C_2
REMARK    2  A    between atoms: C_2  and  O_3
REMARK    3  A    between atoms: O_3  and  C_4
REMARK    4  A    between atoms: C_6  and  C_22
REMARK    5  A    between atoms: C_8  and  C_19
REMARK    6  A    between atoms: C_9  and  O_10
REMARK    7  A    between atoms: O_10  and  C_11
REMARK    8  A    between atoms: C_11  and  C_12
REMARK    9  A    between atoms: C_15  and  C_18
REMARK   10  A    between atoms: C_19  and  C_20
REMARK   11  A    between atoms: N_29  and  C_32
REMARK                            x       y       z     vdW  Elec       q    Type
REMARK                         _______ _______ _______ _____ _____    ______ ____
ROOT
ATOM      1  C   UNL     1       0.416  -2.420   1.426  0.00  0.00    +0.163 A 
ATOM      2  C   UNL     1      -0.059  -3.292   0.469  0.00  0.00    +0.057 A 
ATOM      3  C   UNL     1       0.577  -4.530   0.279  0.00  0.00    -0.020 A 
ATOM      4  C   UNL     1       1.690  -4.868   1.065  0.00  0.00    +0.015 A 
ATOM      5  C   UNL     1       2.152  -3.997   2.010  0.00  0.00    +0.002 A 
ATOM      6  C   UNL     1       1.528  -2.768   2.196  0.00  0.00    +0.166 A 
ENDROOT
BRANCH   3   7
ATOM      7  C   UNL     1       0.082  -5.461  -0.731  0.00  0.00    +0.026 C 
ATOM      8  C   UNL     1      -0.067  -6.804  -0.422  0.00  0.00    +0.102 C 
ATOM      9  C   UNL     1       0.036  -7.291   0.962  0.00  0.00    +0.276 C 
ATOM     10  O   UNL     1       0.279  -6.436   1.978  0.00  0.00    -0.268 OA
ATOM     11  N   UNL     1      -0.116  -8.584   1.189  0.00  0.00    -0.123 NA
ATOM     12  C   UNL     1      -0.356  -9.450   0.207  0.00  0.00    +0.340 C 
ATOM     13  O   UNL     1      -0.484 -10.627   0.496  0.00  0.00    -0.250 OA
ATOM     14  N   UNL     1      -0.467  -9.099  -1.082  0.00  0.00    -0.188 N 
ATOM     15  C   UNL     1      -0.341  -7.811  -1.467  0.00  0.00    +0.264 C 
ATOM     16  O   UNL     1      -0.446  -7.490  -2.636  0.00  0.00    -0.269 OA
BRANCH  14  17
ATOM     17  C   UNL     1      -0.722 -10.085  -2.046  0.00  0.00    +0.046 A 
ATOM     18  C   UNL     1       0.256 -10.422  -2.972  0.00  0.00    +0.027 A 
ATOM     19  C   UNL     1       0.002 -11.393  -3.920  0.00  0.00    +0.040 A 
ATOM     20  C   UNL     1      -1.227 -12.031  -3.948  0.00  0.00    +0.124 A 
ATOM     21  C   UNL     1      -2.204 -11.695  -3.026  0.00  0.00    +0.040 A 
ATOM     22  C   UNL     1      -1.952 -10.728  -2.072  0.00  0.00    +0.027 A 
ATOM     23  F   UNL     1      -1.473 -12.980  -4.877  0.00  0.00    -0.205 F 
ENDBRANCH  14  17
ENDBRANCH   3   7
BRANCH   1  24
ATOM     24  O   UNL     1      -0.194  -1.220   1.617  0.00  0.00    -0.489 OA
BRANCH  24  26
ATOM     25  C   UNL     1      -1.874   0.454   1.150  0.00  0.00    +0.048 C 
ATOM     26  C   UNL     1      -1.326  -0.930   0.794  0.00  0.00    +0.226 C 
ENDBRANCH  24  26
ENDBRANCH   1  24
BRANCH   6  27
ATOM     27  O   UNL     1       1.998  -1.907   3.133  0.00  0.00    -0.483 OA
BRANCH  27  28
ATOM     28  C   UNL     1       2.902  -0.894   2.688  0.00  0.00    +0.264 C 
BRANCH  28  29
ATOM     29  C   UNL     1       3.220   0.034   3.833  0.00  0.00    -0.010 A 
ATOM     30  C   UNL     1       2.435   1.149   4.056  0.00  0.00    +0.007 A 
ATOM     31  C   UNL     1       2.727   2.000   5.106  0.00  0.00    +0.004 A 
ATOM     32  C   UNL     1       3.803   1.735   5.932  0.00  0.00    -0.050 A 
ATOM     33  C   UNL     1       4.587   0.619   5.709  0.00  0.00    +0.004 A 
ATOM     34  C   UNL     1       4.293  -0.234   4.662  0.00  0.00    +0.007 A 
ATOM     35  C   UNL     1       4.122   2.663   7.076  0.00  0.00    +0.044 C 
ENDBRANCH  28  29
ENDBRANCH  27  28
ENDBRANCH   6  27
BRANCH   5  36
ATOM     36  C   UNL     1       3.347  -4.366   2.850  0.00  0.00    +0.065 C 
BRANCH  36  37
ATOM     37  C   UNL     1       2.880  -4.964   4.152  0.00  0.00    -0.030 C 
ATOM     38  C   UNL     1       3.243  -6.179   4.482  0.00  0.00    +0.004 C 
ENDBRANCH  36  37
ENDBRANCH   5  36
TORSDOF 9
