REMARK  Name = ZINC62876324
REMARK  4 active torsions:
REMARK  status: ('A' for Active; 'I' for Inactive)
REMARK    1  A    between atoms: C_1  and  C_2
REMARK    2  A    between atoms: C_2  and  C_3
REMARK    3  A    between atoms: C_3  and  C_18
REMARK    4  A    between atoms: C_14  and  N_17
REMARK                            x       y       z     vdW  Elec       q    Type
REMARK                         _______ _______ _______ _____ _____    ______ ____
ROOT
ATOM      1  C   UNL     1       0.593  -0.591  -1.028  0.00  0.00    +0.087 C 
ATOM      2  C   UNL     1       0.721  -2.113  -1.132  0.00  0.00    +0.021 C 
ATOM      3  C   UNL     1       1.583  -2.634   0.021  0.00  0.00    +0.020 C 
ATOM      4  C   UNL     1       2.984  -2.023  -0.079  0.00  0.00    +0.109 C 
ATOM      5  N   UNL     1       2.860  -0.560  -0.126  0.00  0.00    -0.284 N 
ATOM      6  C   UNL     1       1.984   0.042  -1.140  0.00  0.00    +0.127 C 
ATOM      7  C   UNL     1       3.538   0.215   0.744  0.00  0.00    +0.305 C 
ATOM      8  O   UNL     1       3.623   1.413   0.552  0.00  0.00    -0.252 OA
ATOM      9  N   UNL     1       4.121  -0.338   1.826  0.00  0.00    -0.287 N 
ATOM     10  C   UNL     1       4.220  -1.778   2.104  0.00  0.00    +0.107 C 
ATOM     11  C   UNL     1       4.941  -1.934   3.460  0.00  0.00    +0.004 C 
ATOM     12  C   UNL     1       4.704  -0.560   4.140  0.00  0.00    -0.056 C 
ATOM     13  C   UNL     1       4.770   0.402   2.924  0.00  0.00    +0.093 C 
ENDROOT
BRANCH  12  14
ATOM     14  N   UNL     1       5.770  -0.259   5.105  0.00  0.00    +0.381 N 
ATOM     15  H   UNL     1       6.661  -0.259   4.633  0.00  0.00    -0.090 HD
ATOM     16  H   UNL     1       5.606   0.648   5.515  0.00  0.00    -0.090 HD
ATOM     17  H   UNL     1       5.774  -0.960   5.831  0.00  0.00    -0.090 HD
ENDBRANCH  12  14
BRANCH   1  18
ATOM     18  C   UNL     1      -0.282  -0.082  -2.144  0.00  0.00    +0.364 C 
ATOM     19  O   UNL     1      -0.511   1.111  -2.244  0.00  0.00    -0.246 OA
ATOM     20  O   UNL     1      -0.762  -0.864  -2.948  0.00  0.00    -0.246 OA
ENDBRANCH   1  18
BRANCH   1  22
ATOM     21  C   UNL     1      -0.153   1.300   0.423  0.00  0.00    +0.005 C 
ATOM     22  C   UNL     1      -0.030  -0.221   0.319  0.00  0.00    +0.016 C 
ENDBRANCH   1  22
TORSDOF 3
