REMARK  Name = ZINC09590972
REMARK  14 active torsions:
REMARK  status: ('A' for Active; 'I' for Inactive)
REMARK    1  A    between atoms: C_1  and  C_2
REMARK    2  A    between atoms: C_2  and  C_3
REMARK    3  A    between atoms: C_2  and  C_4
REMARK    4  A    between atoms: C_4  and  N_5
REMARK    5  A    between atoms: C_9  and  C_11
REMARK    6  A    between atoms: C_11  and  S_12
REMARK    7  A    between atoms: S_12  and  C_13
REMARK    8  A    between atoms: C_16  and  S_18
REMARK    9  A    between atoms: S_18  and  C_19
REMARK   10  A    between atoms: C_19  and  C_20
REMARK   11  A    between atoms: N_25  and  C_26
REMARK   12  A    between atoms: C_26  and  C_27
REMARK   13  A    between atoms: C_27  and  C_28
REMARK   14  A    between atoms: C_27  and  C_29
REMARK                            x       y       z     vdW  Elec       q    Type
REMARK                         _______ _______ _______ _____ _____    ______ ____
ROOT
ATOM      1  C   UNL     1       1.119   2.043   0.002  0.00  0.00    +0.160 A 
ATOM      2  N   UNL     1      -0.017   1.371   0.010  0.00  0.00    -0.134 NA
ATOM      3  N   UNL     1       0.002  -0.004   0.002  0.00  0.00    -0.134 NA
ATOM      4  C   UNL     1       1.155  -0.645  -0.012  0.00  0.00    +0.160 A 
ATOM      5  S   UNL     1       2.313   0.715  -0.016  0.00  0.00    -0.033 S 
ENDROOT
BRANCH   1   6
ATOM      6  S   UNL     1       1.385   3.785   0.009  0.00  0.00    -0.088 S 
BRANCH   6   7
ATOM      7  C   UNL     1      -0.288   4.485   0.030  0.00  0.00    +0.172 C 
BRANCH   7  12
ATOM      8  N   UNL     1      -2.381   8.813   0.074  0.00  0.00    -0.299 N 
ATOM      9  C   UNL     1      -1.254   8.074   0.059  0.00  0.00    +0.306 C 
ATOM     10  O   UNL     1      -0.169   8.621   0.051  0.00  0.00    -0.252 OA
ATOM     11  N   UNL     1      -1.330   6.728   0.052  0.00  0.00    -0.240 N 
ATOM     12  C   UNL     1      -0.203   5.990   0.037  0.00  0.00    +0.231 C 
ATOM     13  O   UNL     1       0.880   6.536   0.029  0.00  0.00    -0.274 OA
ATOM     14  H   UNL     1      -3.247   8.376   0.080  0.00  0.00    +0.150 HD
ATOM     15  H   UNL     1      -2.196   6.292   0.059  0.00  0.00    +0.159 HD
BRANCH   8  16
ATOM     16  C   UNL     1      -2.298  10.275   0.081  0.00  0.00    +0.108 C 
BRANCH  16  18
ATOM     17  C   UNL     1      -4.402  10.493   1.411  0.00  0.00    +0.009 C 
ATOM     18  C   UNL     1      -3.709  10.866   0.099  0.00  0.00    -0.000 C 
ATOM     19  C   UNL     1      -3.627  12.389  -0.020  0.00  0.00    +0.009 C 
ENDBRANCH  16  18
ENDBRANCH   8  16
ENDBRANCH   7  12
ENDBRANCH   6   7
ENDBRANCH   1   6
BRANCH   4  20
ATOM     20  S   UNL     1       1.469  -2.378  -0.025  0.00  0.00    -0.088 S 
BRANCH  20  21
ATOM     21  C   UNL     1      -0.185  -3.124  -0.013  0.00  0.00    +0.172 C 
BRANCH  21  22
ATOM     22  C   UNL     1      -0.059  -4.626  -0.023  0.00  0.00    +0.231 C 
ATOM     23  O   UNL     1       1.038  -5.142  -0.036  0.00  0.00    -0.274 OA
ATOM     24  N   UNL     1      -1.165  -5.395  -0.016  0.00  0.00    -0.240 N 
ATOM     25  C   UNL     1      -1.053  -6.738  -0.025  0.00  0.00    +0.306 C 
ATOM     26  O   UNL     1       0.047  -7.255  -0.039  0.00  0.00    -0.252 OA
ATOM     27  N   UNL     1      -2.160  -7.507  -0.018  0.00  0.00    -0.299 N 
ATOM     28  H   UNL     1      -2.043  -4.982  -0.005  0.00  0.00    +0.159 HD
ATOM     29  H   UNL     1      -3.037  -7.094  -0.007  0.00  0.00    +0.150 HD
BRANCH  27  30
ATOM     30  C   UNL     1      -2.037  -8.967  -0.028  0.00  0.00    +0.108 C 
BRANCH  30  31
ATOM     31  C   UNL     1      -3.432  -9.595  -0.018  0.00  0.00    -0.000 C 
ATOM     32  C   UNL     1      -3.308 -11.114  -0.153  0.00  0.00    +0.009 C 
ATOM     33  C   UNL     1      -4.135  -9.257   1.298  0.00  0.00    +0.009 C 
ENDBRANCH  30  31
ENDBRANCH  27  30
ENDBRANCH  21  22
ENDBRANCH  20  21
ENDBRANCH   4  20
TORSDOF 10
