REMARK  Name = ZINC57933883
REMARK  5 active torsions:
REMARK  status: ('A' for Active; 'I' for Inactive)
REMARK    1  A    between atoms: C_1  and  C_2
REMARK    2  A    between atoms: C_2  and  C_3
REMARK    3  A    between atoms: C_2  and  C_4
REMARK    4  A    between atoms: N_8  and  C_18
REMARK    5  A    between atoms: C_18  and  C_19
REMARK                            x       y       z     vdW  Elec       q    Type
REMARK                         _______ _______ _______ _____ _____    ______ ____
ROOT
ATOM      1  C   UNL     1      -1.433  -0.534   0.013  0.00  0.00    +0.160 C 
ATOM      2  C   UNL     1      -1.415  -2.041   0.000  0.00  0.00    +0.241 C 
ATOM      3  O   UNL     1      -1.383  -2.649   1.049  0.00  0.00    -0.273 OA
ATOM      4  N   UNL     1      -1.434  -2.720  -1.162  0.00  0.00    -0.257 N 
ATOM      5  C   UNL     1      -1.523  -2.043  -2.385  0.00  0.00    +0.059 A 
ATOM      6  C   UNL     1      -1.252  -2.695  -3.577  0.00  0.00    +0.046 A 
ATOM      7  C   UNL     1      -1.350  -2.010  -4.775  0.00  0.00    +0.061 A 
ATOM      8  C   UNL     1      -1.717  -0.675  -4.789  0.00  0.00    +0.061 A 
ATOM      9  C   UNL     1      -1.987  -0.015  -3.601  0.00  0.00    +0.046 A 
ATOM     10  C   UNL     1      -1.888  -0.696  -2.401  0.00  0.00    +0.051 A 
ATOM     11  N   UNL     1      -2.145  -0.051  -1.180  0.00  0.00    -0.331 N 
ATOM     12 CL   UNL     1      -1.840   0.175  -6.298  0.00  0.00    -0.082 Cl
ATOM     13 CL   UNL     1      -1.010  -2.828  -6.268  0.00  0.00    -0.082 Cl
ATOM     14  H   UNL     1      -2.771   0.687  -1.124  0.00  0.00    +0.147 HD
ENDROOT
BRANCH   1  16
ATOM     15  C   UNL     1      -0.019   1.526   0.010  0.00  0.00    +0.009 C 
ATOM     16  C   UNL     1       0.002  -0.004   0.002  0.00  0.00    +0.012 C 
ATOM     17  C   UNL     1       0.742  -0.511   1.242  0.00  0.00    +0.009 C 
ENDBRANCH   1  16
BRANCH   4  18
ATOM     18  C   UNL     1      -1.362  -4.183  -1.148  0.00  0.00    +0.238 C 
BRANCH  18  19
ATOM     19  C   UNL     1      -2.755  -4.754  -1.079  0.00  0.00    +0.373 C 
ATOM     20  O   UNL     1      -3.719  -4.008  -1.045  0.00  0.00    -0.245 OA
ATOM     21  O   UNL     1      -2.918  -5.962  -1.057  0.00  0.00    -0.245 OA
ENDBRANCH  18  19
ENDBRANCH   4  18
TORSDOF 3
