REMARK  Name = ZINC08722182
REMARK  7 active torsions:
REMARK  status: ('A' for Active; 'I' for Inactive)
REMARK    1  A    between atoms: C_1  and  O_2
REMARK    2  A    between atoms: O_2  and  C_3
REMARK    3  A    between atoms: N_5  and  N_6
REMARK    4  A    between atoms: C_7  and  C_8
REMARK    5  A    between atoms: C_13  and  O_14
REMARK    6  A    between atoms: O_14  and  C_15
REMARK    7  A    between atoms: C_15  and  C_16
REMARK                            x       y       z     vdW  Elec       q    Type
REMARK                         _______ _______ _______ _____ _____    ______ ____
ROOT
ATOM      1  C   UNL     1       0.420   1.387  -0.026  0.00  0.00    +0.039 A 
ATOM      2  C   UNL     1       0.527  -0.006  -0.016  0.00  0.00    +0.033 A 
ATOM      3  C   UNL     1       1.764  -0.601   0.123  0.00  0.00    +0.043 A 
ATOM      4  C   UNL     1       2.902   0.179   0.253  0.00  0.00    +0.043 A 
ATOM      5  C   UNL     1       2.810   1.558   0.244  0.00  0.00    +0.085 A 
ATOM      6  C   UNL     1       1.574   2.171   0.105  0.00  0.00    +0.148 A 
ATOM      7 CL   UNL     1       4.242   2.525   0.408  0.00  0.00    -0.080 Cl
ATOM      8 CL   UNL     1       1.895  -2.332   0.136  0.00  0.00    -0.083 Cl
ENDROOT
BRANCH   1  10
ATOM      9  N   UNL     1      -1.954   1.301  -0.379  0.00  0.00    -0.185 NA
ATOM     10  C   UNL     1      -0.898   2.028  -0.181  0.00  0.00    +0.142 C 
BRANCH   9  13
ATOM     11  C   UNL     1      -4.304   1.163  -0.736  0.00  0.00    +0.420 C 
ATOM     12  O   UNL     1      -5.359   1.682  -1.042  0.00  0.00    -0.225 OA
ATOM     13  N   UNL     1      -3.189   1.913  -0.631  0.00  0.00    -0.172 N 
ATOM     14  H   UNL     1      -3.241   2.876  -0.730  0.00  0.00    +0.181 HD
BRANCH  11  16
ATOM     15  C   UNL     1      -5.459  -0.926  -0.745  0.00  0.00    +0.282 C 
ATOM     16  O   UNL     1      -4.248  -0.162  -0.501  0.00  0.00    -0.453 OA
ENDBRANCH  11  16
ENDBRANCH   9  13
ENDBRANCH   1  10
BRANCH   6  17
ATOM     17  O   UNL     1       1.482   3.526   0.096  0.00  0.00    -0.485 OA
BRANCH  17  18
ATOM     18  C   UNL     1       1.379   4.178   1.364  0.00  0.00    +0.267 C 
BRANCH  18  19
ATOM     19  C   UNL     1       1.282   5.668   1.156  0.00  0.00    +0.026 A 
ATOM     20  C   UNL     1       2.432   6.433   1.089  0.00  0.00    +0.049 A 
ATOM     21  C   UNL     1       2.342   7.800   0.894  0.00  0.00    +0.020 A 
ATOM     22  C   UNL     1       1.103   8.402   0.777  0.00  0.00    +0.003 A 
ATOM     23  C   UNL     1      -0.046   7.638   0.849  0.00  0.00    +0.020 A 
ATOM     24  C   UNL     1       0.042   6.270   1.039  0.00  0.00    +0.049 A 
ATOM     25 CL   UNL     1      -1.402   5.311   1.131  0.00  0.00    -0.083 Cl
ATOM     26 CL   UNL     1       3.988   5.679   1.243  0.00  0.00    -0.083 Cl
ENDBRANCH  18  19
ENDBRANCH  17  18
ENDBRANCH   6  17
TORSDOF 6
