REMARK  Name = ZINC43548287
REMARK  11 active torsions:
REMARK  status: ('A' for Active; 'I' for Inactive)
REMARK    1  A    between atoms: C_1  and  C_2
REMARK    2  A    between atoms: N_9  and  C_10
REMARK    3  A    between atoms: C_10  and  C_11
REMARK    4  A    between atoms: C_14  and  C_38
REMARK    5  A    between atoms: C_17  and  O_37
REMARK    6  A    between atoms: C_19  and  C_23
REMARK    7  A    between atoms: C_23  and  C_25
REMARK    8  A    between atoms: C_23  and  C_26
REMARK    9  A    between atoms: N_28  and  C_29
REMARK   10  A    between atoms: C_29  and  C_30
REMARK   11  A    between atoms: C_30  and  N_31
REMARK                            x       y       z     vdW  Elec       q    Type
REMARK                         _______ _______ _______ _____ _____    ______ ____
ROOT
ATOM      1  C   UNL     1       0.614   1.296  -0.582  0.00  0.00    +0.014 C 
ATOM      2  C   UNL     1       0.301  -0.176  -0.305  0.00  0.00    +0.039 C 
ATOM      3  C   UNL     1      -1.194  -0.345  -0.086  0.00  0.00    +0.031 A 
ATOM      4  C   UNL     1      -1.660  -1.168   0.886  0.00  0.00    +0.013 A 
ATOM      5  S   UNL     1      -3.416  -1.008   0.720  0.00  0.00    -0.059 S 
ATOM      6  C   UNL     1      -3.417   0.086  -0.562  0.00  0.00    +0.137 A 
ATOM      7  N   UNL     1      -2.136   0.272  -0.796  0.00  0.00    -0.340 N 
ATOM      8  N   UNL     1      -4.503   0.652  -1.211  0.00  0.00    -0.321 N 
ATOM      9  C   UNL     1      -0.863  -1.987   1.842  0.00  0.00    +0.051 C 
ATOM     10  C   UNL     1       0.590  -2.033   1.362  0.00  0.00    -0.022 C 
ATOM     11  C   UNL     1       1.053  -0.631   0.951  0.00  0.00    +0.033 C 
ATOM     12  C   UNL     1       2.549  -0.715   0.603  0.00  0.00    +0.123 C 
ATOM     13  C   UNL     1       2.724  -1.660  -0.588  0.00  0.00    +0.029 C 
ATOM     14  C   UNL     1       2.211  -3.055  -0.229  0.00  0.00    +0.007 C 
ATOM     15  C   UNL     1       0.735  -2.978   0.171  0.00  0.00    +0.008 C 
ATOM     16  C   UNL     1       1.482  -2.522   2.505  0.00  0.00    +0.012 C 
ATOM     17  H   UNL     1      -4.361   1.274  -1.942  0.00  0.00    +0.148 HD
ATOM     18  H   UNL     1      -1.870   0.876  -1.507  0.00  0.00    +0.167 HD
ENDROOT
BRANCH  13  19
ATOM     19  C   UNL     1       4.207  -1.745  -0.955  0.00  0.00    +0.077 C 
ATOM     20  C   UNL     1       4.721  -0.353  -1.327  0.00  0.00    +0.017 C 
BRANCH  19  21
ATOM     21  C   UNL     1       4.381  -2.675  -2.127  0.00  0.00    +0.216 C 
ATOM     22  O   UNL     1       3.415  -3.217  -2.621  0.00  0.00    -0.276 OA
ATOM     23  N   UNL     1       5.612  -2.905  -2.627  0.00  0.00    -0.314 N 
ATOM     24  H   UNL     1       6.385  -2.472  -2.232  0.00  0.00    +0.149 HD
BRANCH  23  25
ATOM     25  C   UNL     1       5.782  -3.809  -3.768  0.00  0.00    +0.119 C 
BRANCH  25  26
ATOM     26  C   UNL     1       7.265  -3.895  -4.134  0.00  0.00    +0.103 C 
BRANCH  26  27
ATOM     27  N   UNL     1       7.435  -4.801  -5.278  0.00  0.00    -0.297 NA
ATOM     28  C   UNL     1       7.093  -6.183  -4.910  0.00  0.00    +0.112 C 
ATOM     29  C   UNL     1       7.226  -7.081  -6.143  0.00  0.00    +0.175 C 
ATOM     30  O   UNL     1       8.554  -6.973  -6.663  0.00  0.00    -0.377 OA
ATOM     31  C   UNL     1       8.920  -5.641  -7.032  0.00  0.00    +0.175 C 
ATOM     32  C   UNL     1       8.804  -4.728  -5.809  0.00  0.00    +0.112 C 
ENDBRANCH  26  27
ENDBRANCH  25  26
ENDBRANCH  23  25
ENDBRANCH  19  21
ENDBRANCH  13  19
BRANCH  12  33
ATOM     33  O   UNL     1       3.275  -1.216   1.728  0.00  0.00    -0.391 OA
ATOM     34  H   UNL     1       4.227  -1.295   1.577  0.00  0.00    +0.210 HD
ENDBRANCH  12  33
BRANCH   8  35
ATOM     35  C   UNL     1      -5.865   0.311  -0.793  0.00  0.00    +0.130 C 
BRANCH  35  36
ATOM     36  C   UNL     1      -6.854   1.055  -1.653  0.00  0.00    -0.016 C 
ATOM     37  C   UNL     1      -7.783   0.397  -2.301  0.00  0.00    +0.005 C 
ENDBRANCH  35  36
ENDBRANCH   8  35
TORSDOF 8
