REMARK  Name = ZINC14360151
REMARK  10 active torsions:
REMARK  status: ('A' for Active; 'I' for Inactive)
REMARK    1  A    between atoms: C_6  and  S_7
REMARK    2  A    between atoms: S_7  and  N_10
REMARK    3  A    between atoms: N_10  and  C_11
REMARK    4  A    between atoms: C_11  and  C_13
REMARK    5  A    between atoms: C_11  and  C_18
REMARK    6  A    between atoms: C_13  and  C_14
REMARK    7  A    between atoms: C_14  and  C_15
REMARK    8  A    between atoms: N_20  and  N_21
REMARK    9  A    between atoms: C_22  and  C_24
REMARK   10  A    between atoms: C_24  and  C_25
REMARK                            x       y       z     vdW  Elec       q    Type
REMARK                         _______ _______ _______ _____ _____    ______ ____
ROOT
ATOM      1  C   UNL     1      -0.677   1.596  -1.355  0.00  0.00    +0.164 C 
ENDROOT
BRANCH   1   2
ATOM      2  C   UNL     1       0.056   1.146  -2.593  0.00  0.00    +0.248 C 
ATOM      3  O   UNL     1       0.481   1.968  -3.378  0.00  0.00    -0.273 OA
ATOM      4  N   UNL     1       0.240  -0.168  -2.828  0.00  0.00    -0.233 N 
ATOM      5  H   UNL     1      -0.100  -0.825  -2.200  0.00  0.00    +0.173 HD
BRANCH   4   6
ATOM      6  N   UNL     1       0.921  -0.586  -3.978  0.00  0.00    -0.234 N 
ATOM      7  C   UNL     1       1.105  -1.900  -4.213  0.00  0.00    +0.230 C 
ATOM      8  O   UNL     1       0.679  -2.721  -3.428  0.00  0.00    -0.274 OA
ATOM      9  H   UNL     1       1.261   0.071  -4.606  0.00  0.00    +0.173 HD
BRANCH   7  10
ATOM     10  C   UNL     1       1.838  -2.350  -5.450  0.00  0.00    +0.104 C 
BRANCH  10  11
ATOM     11  C   UNL     1       1.907  -3.878  -5.475  0.00  0.00    -0.020 C 
ATOM     12  C   UNL     1       2.650  -4.375  -4.234  0.00  0.00    +0.011 C 
ATOM     13  C   UNL     1       2.720  -5.903  -4.259  0.00  0.00    -0.010 C 
ATOM     14  C   UNL     1       3.464  -6.359  -5.515  0.00  0.00    +0.007 C 
ATOM     15  C   UNL     1       2.721  -5.862  -6.757  0.00  0.00    -0.010 C 
ATOM     16  C   UNL     1       2.652  -4.334  -6.732  0.00  0.00    +0.011 C 
ATOM     17  C   UNL     1       1.304  -6.437  -6.767  0.00  0.00    +0.007 C 
ATOM     18  C   UNL     1       0.559  -5.981  -5.511  0.00  0.00    -0.010 C 
ATOM     19  C   UNL     1       1.302  -6.478  -4.269  0.00  0.00    +0.007 C 
ATOM     20  C   UNL     1       0.490  -4.453  -5.486  0.00  0.00    +0.011 C 
ENDBRANCH  10  11
ENDBRANCH   7  10
ENDBRANCH   4   6
ENDBRANCH   1   2
BRANCH   1  21
ATOM     21  N   UNL     1      -0.744   3.059  -1.331  0.00  0.00    -0.178 NA
ATOM     22  H   UNL     1       0.001   3.573  -0.981  0.00  0.00    +0.149 HD
BRANCH  21  23
ATOM     23  S   UNL     1      -2.090   3.836  -1.903  0.00  0.00    +0.059 S 
ATOM     24  O   UNL     1      -1.860   5.227  -1.728  0.00  0.00    -0.153 OA
ATOM     25  O   UNL     1      -2.381   3.265  -3.171  0.00  0.00    -0.153 OA
BRANCH  23  31
ATOM     26  C   UNL     1      -4.152   2.253  -1.069  0.00  0.00    +0.030 A 
ATOM     27  C   UNL     1      -5.198   1.915  -0.232  0.00  0.00    +0.022 A 
ATOM     28  C   UNL     1      -5.529   2.739   0.829  0.00  0.00    +0.041 A 
ATOM     29  C   UNL     1      -4.809   3.898   1.055  0.00  0.00    +0.022 A 
ATOM     30  C   UNL     1      -3.759   4.233   0.221  0.00  0.00    +0.030 A 
ATOM     31  C   UNL     1      -3.428   3.409  -0.840  0.00  0.00    +0.105 A 
ATOM     32 CL   UNL     1      -6.848   2.318   1.877  0.00  0.00    -0.084 Cl
ENDBRANCH  23  31
ENDBRANCH  21  23
ENDBRANCH   1  21
BRANCH   1  33
ATOM     33  C   UNL     1       0.066   1.099  -0.114  0.00  0.00    +0.039 C 
BRANCH  33  34
ATOM     34  C   UNL     1      -0.748   1.437   1.137  0.00  0.00    +0.097 C 
BRANCH  34  35
ATOM     35  C   UNL     1       0.034   1.049   2.365  0.00  0.00    +0.211 C 
ATOM     36  O   UNL     1       1.170   0.637   2.256  0.00  0.00    -0.276 OA
ATOM     37  N   UNL     1      -0.528   1.159   3.585  0.00  0.00    -0.329 N 
ATOM     38  H   UNL     1      -1.459   1.419   3.668  0.00  0.00    +0.145 HD
ATOM     39  H   UNL     1      -0.003   0.977   4.380  0.00  0.00    +0.145 HD
ENDBRANCH  34  35
ENDBRANCH  33  34
ENDBRANCH   1  33
TORSDOF 10
