REMARK  Name = ZINC09142744
REMARK  8 active torsions:
REMARK  status: ('A' for Active; 'I' for Inactive)
REMARK    1  A    between atoms: C_1  and  C_2
REMARK    2  A    between atoms: C_3  and  C_19
REMARK    3  A    between atoms: N_4  and  C_13
REMARK    4  A    between atoms: C_5  and  S_7
REMARK    5  A    between atoms: S_7  and  C_8
REMARK    6  A    between atoms: C_8  and  C_9
REMARK    7  A    between atoms: C_10  and  C_11
REMARK    8  A    between atoms: C_11  and  O_12
REMARK                            x       y       z     vdW  Elec       q    Type
REMARK                         _______ _______ _______ _____ _____    ______ ____
ROOT
ATOM      1  C   UNL     1       0.030  -0.360   2.516  0.00  0.00    +0.067 C 
ATOM      2  C   UNL     1       0.023  -0.810   1.077  0.00  0.00    +0.060 A 
ATOM      3  C   UNL     1       0.002  -0.004   0.002  0.00  0.00    +0.044 A 
ATOM      4  N   UNL     1      -0.003  -0.819  -1.110  0.00  0.00    -0.292 N 
ATOM      5  C   UNL     1       0.025  -2.106  -0.660  0.00  0.00    +0.175 A 
ATOM      6  N   UNL     1       0.036  -2.084   0.653  0.00  0.00    -0.227 NA
ATOM      7  C   UNL     1      -0.018   1.503   0.010  0.00  0.00    +0.066 C 
ENDROOT
BRANCH   4   8
ATOM      8  C   UNL     1      -0.028  -0.403  -2.449  0.00  0.00    +0.049 A 
ATOM      9  C   UNL     1      -1.136   0.268  -2.948  0.00  0.00    +0.026 A 
ATOM     10  C   UNL     1      -1.156   0.680  -4.266  0.00  0.00    +0.002 A 
ATOM     11  C   UNL     1      -0.078   0.416  -5.091  0.00  0.00    +0.000 A 
ATOM     12  C   UNL     1       1.025  -0.257  -4.598  0.00  0.00    +0.002 A 
ATOM     13  C   UNL     1       1.053  -0.667  -3.279  0.00  0.00    +0.026 A 
ENDBRANCH   4   8
BRANCH   5  14
ATOM     14  S   UNL     1       0.036  -3.551  -1.668  0.00  0.00    -0.074 S 
BRANCH  14  15
ATOM     15  C   UNL     1       0.065  -4.828  -0.386  0.00  0.00    +0.166 C 
BRANCH  15  16
ATOM     16  C   UNL     1       0.077  -6.158  -1.018  0.00  0.00    -0.089 C 
ATOM     17  C   UNL     1       0.088  -7.218  -1.522  0.00  0.00    -0.073 C 
BRANCH  17  18
ATOM     18  C   UNL     1       0.100  -8.547  -2.154  0.00  0.00    +0.244 C 
BRANCH  18  19
ATOM     19  O   UNL     1       1.262  -8.672  -2.977  0.00  0.00    -0.383 OA
ATOM     20  H   UNL     1       1.336  -9.525  -3.426  0.00  0.00    +0.211 HD
ENDBRANCH  18  19
ENDBRANCH  17  18
ENDBRANCH  15  16
ENDBRANCH  14  15
ENDBRANCH   5  14
TORSDOF 6
