REMARK  Name = ZINC00044363
REMARK  6 active torsions:
REMARK  status: ('A' for Active; 'I' for Inactive)
REMARK    1  A    between atoms: C_1  and  C_2
REMARK    2  A    between atoms: C_7  and  N_8
REMARK    3  A    between atoms: N_8  and  C_9
REMARK    4  A    between atoms: C_9  and  N_10
REMARK    5  A    between atoms: C_16  and  N_21
REMARK    6  A    between atoms: C_22  and  C_24
REMARK                            x       y       z     vdW  Elec       q    Type
REMARK                         _______ _______ _______ _____ _____    ______ ____
ROOT
ATOM      1  N   UNL     1      -1.228   4.121  -1.351  0.00  0.00    -0.217 N 
ATOM      2  C   UNL     1      -2.344   4.364  -2.062  0.00  0.00    +0.255 C 
ATOM      3  O   UNL     1      -3.482   4.208  -1.667  0.00  0.00    -0.269 OA
ATOM      4  C   UNL     1      -1.955   4.851  -3.399  0.00  0.00    +0.050 A 
ATOM      5  C   UNL     1      -2.661   5.248  -4.526  0.00  0.00    +0.015 A 
ATOM      6  C   UNL     1      -1.978   5.663  -5.654  0.00  0.00    +0.023 A 
ATOM      7  C   UNL     1      -0.588   5.684  -5.667  0.00  0.00    +0.025 A 
ATOM      8  C   UNL     1       0.132   5.286  -4.540  0.00  0.00    +0.036 A 
ATOM      9  C   UNL     1      -0.544   4.871  -3.408  0.00  0.00    +0.051 A 
ATOM     10  C   UNL     1      -0.125   4.399  -2.070  0.00  0.00    +0.255 C 
ATOM     11  O   UNL     1       1.021   4.280  -1.687  0.00  0.00    -0.269 OA
ENDROOT
BRANCH   7  12
ATOM     12  N   UNL     1       0.087   6.102  -6.808  0.00  0.00    -0.358 N 
ATOM     13  H   UNL     1       1.057   6.118  -6.819  0.00  0.00    +0.142 HD
ATOM     14  H   UNL     1      -0.411   6.379  -7.593  0.00  0.00    +0.142 HD
ENDBRANCH   7  12
BRANCH   1  15
ATOM     15  C   UNL     1      -1.214   3.626   0.028  0.00  0.00    +0.232 C 
BRANCH  15  16
ATOM     16  N   UNL     1      -1.195   2.161   0.019  0.00  0.00    -0.254 N 
ATOM     17  C   UNL     1      -0.018   1.503   0.010  0.00  0.00    +0.218 C 
ATOM     18  O   UNL     1       1.024   2.123   0.004  0.00  0.00    -0.276 OA
ATOM     19  C   UNL     1       0.002  -0.004   0.002  0.00  0.00    +0.110 C 
BRANCH  16  26
ATOM     20  C   UNL     1      -2.361   1.486  -2.487  0.00  0.00    +0.045 C 
ATOM     21  C   UNL     1      -3.000   1.095  -1.179  0.00  0.00    -0.029 A 
ATOM     22  C   UNL     1      -4.187   0.388  -1.174  0.00  0.00    +0.005 A 
ATOM     23  C   UNL     1      -4.774   0.029   0.025  0.00  0.00    +0.000 A 
ATOM     24  C   UNL     1      -4.175   0.375   1.222  0.00  0.00    +0.002 A 
ATOM     25  C   UNL     1      -2.986   1.077   1.224  0.00  0.00    +0.024 A 
ATOM     26  C   UNL     1      -2.397   1.445   0.021  0.00  0.00    +0.041 A 
ENDBRANCH  16  26
ENDBRANCH  15  16
ENDBRANCH   1  15
TORSDOF 4
