REMARK  Name = ZINC47621759
REMARK  4 active torsions:
REMARK  status: ('A' for Active; 'I' for Inactive)
REMARK    1  A    between atoms: C_5  and  S_7
REMARK    2  A    between atoms: S_7  and  C_10
REMARK    3  A    between atoms: C_10  and  C_11
REMARK    4  A    between atoms: C_11  and  C_12
REMARK                            x       y       z     vdW  Elec       q    Type
REMARK                         _______ _______ _______ _____ _____    ______ ____
ROOT
ATOM      1  C   UNL     1       1.963  -2.888  -1.622  0.00  0.00    +0.181 C 
ENDROOT
BRANCH   1   2
ATOM      2  S   UNL     1       1.232  -2.441  -0.023  0.00  0.00    -0.001 S 
ATOM      3  O   UNL     1       2.112  -2.798   1.034  0.00  0.00    -0.169 OA
ATOM      4  O   UNL     1      -0.136  -2.822   0.013  0.00  0.00    -0.169 OA
BRANCH   2   9
ATOM      5  C   UNL     1      -0.017   1.378   0.010  0.00  0.00    +0.002 A 
ATOM      6  C   UNL     1       1.171   2.086   0.002  0.00  0.00    +0.002 A 
ATOM      7  C   UNL     1       2.377   1.412  -0.013  0.00  0.00    +0.022 A 
ATOM      8  C   UNL     1       2.397   0.029  -0.021  0.00  0.00    +0.066 A 
ATOM      9  C   UNL     1       1.208  -0.679  -0.013  0.00  0.00    +0.106 A 
ATOM     10  C   UNL     1       0.002  -0.004   0.002  0.00  0.00    +0.028 A 
ATOM     11 CL   UNL     1       3.912  -0.818  -0.041  0.00  0.00    -0.082 Cl
ENDBRANCH   2   9
ENDBRANCH   1   2
BRANCH   1  12
ATOM     12  C   UNL     1       2.034  -4.412  -1.742  0.00  0.00    +0.119 C 
BRANCH  12  13
ATOM     13  C   UNL     1       2.641  -4.783  -3.070  0.00  0.00    +0.222 C 
ATOM     14  O   UNL     1       2.983  -3.915  -3.845  0.00  0.00    -0.275 OA
ATOM     15  N   UNL     1       2.804  -6.080  -3.398  0.00  0.00    -0.240 N 
ATOM     16  C   UNL     1       3.347  -6.413  -4.586  0.00  0.00    +0.303 C 
ATOM     17  O   UNL     1       3.690  -5.542  -5.362  0.00  0.00    -0.253 OA
ATOM     18  N   UNL     1       3.510  -7.710  -4.913  0.00  0.00    -0.313 N 
ATOM     19  H   UNL     1       2.530  -6.775  -2.779  0.00  0.00    +0.159 HD
ATOM     20  H   UNL     1       3.236  -8.404  -4.294  0.00  0.00    +0.146 HD
ATOM     21  H   UNL     1       3.901  -7.949  -5.768  0.00  0.00    +0.146 HD
ENDBRANCH  12  13
ENDBRANCH   1  12
TORSDOF 4
