REMARK  Name = ZINC38654047
REMARK  6 active torsions:
REMARK  status: ('A' for Active; 'I' for Inactive)
REMARK    1  A    between atoms: C_1  and  C_2
REMARK    2  A    between atoms: N_4  and  C_5
REMARK    3  A    between atoms: C_5  and  C_6
REMARK    4  A    between atoms: C_6  and  C_7
REMARK    5  A    between atoms: C_15  and  C_17
REMARK    6  A    between atoms: N_24  and  C_27
REMARK                            x       y       z     vdW  Elec       q    Type
REMARK                         _______ _______ _______ _____ _____    ______ ____
ROOT
ATOM      1  C   UNL     1      -2.786  -4.093   0.280  0.00  0.00    -0.033 C 
ATOM      2  C   UNL     1      -1.555  -4.647   0.202  0.00  0.00    -0.000 A 
ATOM      3  C   UNL     1      -0.204  -4.098   0.371  0.00  0.00    +0.010 A 
ATOM      4  C   UNL     1       0.861  -4.919   0.226  0.00  0.00    +0.001 A 
ATOM      5  C   UNL     1       0.707  -6.278  -0.081  0.00  0.00    +0.002 A 
ATOM      6  C   UNL     1      -0.501  -6.855  -0.251  0.00  0.00    +0.026 A 
ATOM      7  C   UNL     1      -1.690  -6.086  -0.122  0.00  0.00    +0.043 A 
ATOM      8  N   UNL     1      -2.955  -6.408  -0.239  0.00  0.00    -0.374 N 
ATOM      9  C   UNL     1      -3.767  -5.210   0.004  0.00  0.00    +0.130 C 
ATOM     10  H   UNL     1      -3.298  -7.291  -0.447  0.00  0.00    +0.161 HD
ENDROOT
BRANCH   9  11
ATOM     11  C   UNL     1      -4.590  -4.888  -1.217  0.00  0.00    +0.020 C 
ATOM     12  C   UNL     1      -5.905  -4.599  -1.088  0.00  0.00    +0.100 C 
ATOM     13  C   UNL     1      -6.790  -4.478  -2.268  0.00  0.00    +0.276 C 
ATOM     14  O   UNL     1      -6.308  -4.653  -3.514  0.00  0.00    -0.268 OA
ATOM     15  N   UNL     1      -8.063  -4.195  -2.070  0.00  0.00    -0.123 NA
ATOM     16  C   UNL     1      -8.569  -4.016  -0.850  0.00  0.00    +0.340 C 
ATOM     17  O   UNL     1      -9.755  -3.758  -0.753  0.00  0.00    -0.250 OA
ATOM     18  N   UNL     1      -7.848  -4.105   0.277  0.00  0.00    -0.186 N 
ATOM     19  C   UNL     1      -6.530  -4.395   0.241  0.00  0.00    +0.263 C 
ATOM     20  O   UNL     1      -5.876  -4.481   1.263  0.00  0.00    -0.269 OA
BRANCH  18  21
ATOM     21  C   UNL     1      -8.475  -3.900   1.514  0.00  0.00    +0.081 A 
ATOM     22  C   UNL     1      -9.032  -4.971   2.199  0.00  0.00    +0.027 A 
ATOM     23  C   UNL     1      -9.649  -4.766   3.417  0.00  0.00    +0.002 A 
ATOM     24  C   UNL     1      -9.713  -3.494   3.957  0.00  0.00    +0.003 A 
ATOM     25  C   UNL     1      -9.160  -2.423   3.279  0.00  0.00    +0.040 A 
ATOM     26  C   UNL     1      -8.536  -2.623   2.061  0.00  0.00    +0.145 A 
ATOM     27  F   UNL     1      -7.989  -1.578   1.401  0.00  0.00    -0.204 F 
ENDBRANCH  18  21
ENDBRANCH   9  11
BRANCH   1  28
ATOM     28  C   UNL     1      -3.114  -2.655   0.588  0.00  0.00    +0.052 C 
BRANCH  28  29
ATOM     29  C   UNL     1      -1.817  -1.870   0.801  0.00  0.00    +0.108 C 
BRANCH  29  33
ATOM     30  C   UNL     1      -1.472   1.851   1.633  0.00  0.00    +0.109 C 
ATOM     31  C   UNL     1      -1.144   0.412   1.325  0.00  0.00    +0.210 C 
ATOM     32  O   UNL     1       0.013   0.050   1.280  0.00  0.00    -0.276 OA
ATOM     33  N   UNL     1      -2.136  -0.472   1.100  0.00  0.00    -0.315 N 
ATOM     34  H   UNL     1      -3.061  -0.182   1.135  0.00  0.00    +0.149 HD
ENDBRANCH  29  33
ENDBRANCH  28  29
ENDBRANCH   1  28
TORSDOF 5
