REMARK  Name = ZINC39143301
REMARK  6 active torsions:
REMARK  status: ('A' for Active; 'I' for Inactive)
REMARK    1  A    between atoms: C_4  and  C_7
REMARK    2  A    between atoms: C_9  and  C_24
REMARK    3  A    between atoms: N_12  and  C_16
REMARK    4  A    between atoms: C_13  and  N_15
REMARK    5  A    between atoms: C_24  and  S_25
REMARK    6  A    between atoms: S_25  and  C_26
REMARK                            x       y       z     vdW  Elec       q    Type
REMARK                         _______ _______ _______ _____ _____    ______ ____
ROOT
ATOM      1  C   UNL     1       3.711  -0.707  -0.038  0.00  0.00    +0.042 C 
ATOM      2  C   UNL     1       3.808  -1.707   1.146  0.00  0.00    +0.090 C 
ATOM      3  N   UNL     1       4.722  -2.741   0.597  0.00  0.00    -0.237 NA
ATOM      4  N   UNL     1       4.397  -2.905  -0.725  0.00  0.00    -0.278 N 
ATOM      5  C   UNL     1       3.796  -1.667  -1.249  0.00  0.00    +0.040 C 
ATOM      6  H   UNL     1       4.631  -3.610   1.102  0.00  0.00    +0.145 HD
ENDROOT
BRANCH   4   7
ATOM      7  C   UNL     1       4.605  -4.074  -1.466  0.00  0.00    +0.078 A 
ATOM      8  C   UNL     1       3.546  -4.671  -2.135  0.00  0.00    +0.030 A 
ATOM      9  C   UNL     1       3.754  -5.825  -2.867  0.00  0.00    +0.040 A 
ATOM     10  C   UNL     1       5.018  -6.387  -2.932  0.00  0.00    +0.126 A 
ATOM     11  C   UNL     1       6.077  -5.794  -2.266  0.00  0.00    +0.078 A 
ATOM     12  C   UNL     1       5.875  -4.636  -1.538  0.00  0.00    +0.148 A 
ATOM     13  F   UNL     1       6.910  -4.054  -0.893  0.00  0.00    -0.203 F 
ATOM     14  F   UNL     1       5.217  -7.515  -3.648  0.00  0.00    -0.205 F 
ENDBRANCH   4   7
BRANCH   1  18
ATOM     15  C   UNL     1      -0.017   1.378   0.010  0.00  0.00    +0.000 A 
ATOM     16  C   UNL     1       1.171   2.086   0.002  0.00  0.00    +0.000 A 
ATOM     17  C   UNL     1       2.377   1.411  -0.013  0.00  0.00    +0.004 A 
ATOM     18  C   UNL     1       2.396   0.029  -0.020  0.00  0.00    -0.043 A 
ATOM     19  C   UNL     1       1.208  -0.679  -0.012  0.00  0.00    +0.004 A 
ATOM     20  C   UNL     1       0.002  -0.004   0.002  0.00  0.00    +0.000 A 
ENDBRANCH   1  18
BRANCH   5  21
ATOM     21  N   UNL     1       4.651  -1.089  -2.296  0.00  0.00    +0.392 N 
ATOM     22  H   UNL     1       5.578  -0.939  -1.928  0.00  0.00    -0.087 HD
ATOM     23  H   UNL     1       4.698  -1.724  -3.079  0.00  0.00    -0.087 HD
ATOM     24  H   UNL     1       4.262  -0.209  -2.599  0.00  0.00    -0.087 HD
ENDBRANCH   5  21
BRANCH   2  25
ATOM     25  C   UNL     1       4.416  -1.038   2.381  0.00  0.00    +0.098 C 
BRANCH  25  26
ATOM     26  S   UNL     1       4.509  -2.240   3.736  0.00  0.00    -0.086 S 
BRANCH  26  27
ATOM     27  C   UNL     1       5.221  -1.328   5.065  0.00  0.00    +0.167 A 
ATOM     28  N   UNL     1       5.576  -0.068   5.010  0.00  0.00    -0.222 NA
ATOM     29  C   UNL     1       6.087   0.316   6.208  0.00  0.00    +0.090 A 
ATOM     30  C   UNL     1       6.604   1.521   6.690  0.00  0.00    +0.030 A 
ATOM     31  C   UNL     1       7.058   1.601   7.988  0.00  0.00    +0.002 A 
ATOM     32  C   UNL     1       7.007   0.493   8.820  0.00  0.00    +0.002 A 
ATOM     33  C   UNL     1       6.499  -0.705   8.360  0.00  0.00    +0.028 A 
ATOM     34  C   UNL     1       6.037  -0.803   7.057  0.00  0.00    +0.067 A 
ATOM     35  N   UNL     1       5.480  -1.829   6.310  0.00  0.00    -0.333 N 
ATOM     36  H   UNL     1       5.308  -2.733   6.614  0.00  0.00    +0.168 HD
ENDBRANCH  26  27
ENDBRANCH  25  26
ENDBRANCH   2  25
TORSDOF 6
