REMARK  Name = ZINC40816491
REMARK  6 active torsions:
REMARK  status: ('A' for Active; 'I' for Inactive)
REMARK    1  A    between atoms: C_1  and  C_2
REMARK    2  A    between atoms: C_3  and  C_19
REMARK    3  A    between atoms: C_6  and  C_18
REMARK    4  A    between atoms: C_7  and  N_8
REMARK    5  A    between atoms: C_9  and  C_11
REMARK    6  A    between atoms: C_13  and  N_17
REMARK                            x       y       z     vdW  Elec       q    Type
REMARK                         _______ _______ _______ _____ _____    ______ ____
ROOT
ATOM      1  N   UNL     1       0.025  -0.081   2.403  0.00  0.00    -0.206 NA
ATOM      2  C   UNL     1      -1.106   0.213   2.989  0.00  0.00    +0.294 C 
ATOM      3  O   UNL     1      -2.278  -0.123   2.405  0.00  0.00    -0.264 OA
ENDROOT
BRANCH   1  10
ATOM      4  C   UNL     1      -0.018   1.503   0.010  0.00  0.00    +0.047 C 
ATOM      5  C   UNL     1       0.002  -0.004   0.002  0.00  0.00    -0.004 A 
ATOM      6  C   UNL     1       0.006  -0.716  -1.201  0.00  0.00    +0.075 A 
ATOM      7  C   UNL     1       0.026  -2.112  -1.162  0.00  0.00    +0.130 A 
ATOM      8  N   UNL     1       0.040  -2.757  -0.014  0.00  0.00    -0.257 NA
ATOM      9  C   UNL     1       0.037  -2.126   1.143  0.00  0.00    +0.064 A 
ATOM     10  C   UNL     1       0.023  -0.729   1.197  0.00  0.00    +0.093 A 
ATOM     11  C   UNL     1       0.054  -2.920   2.423  0.00  0.00    +0.068 C 
BRANCH   6  12
ATOM     12  C   UNL     1      -0.010  -0.024  -2.455  0.00  0.00    +0.101 C 
ATOM     13  N   UNL     1      -0.023   0.525  -3.449  0.00  0.00    -0.191 NA
ENDBRANCH   6  12
ENDBRANCH   1  10
BRANCH   2  14
ATOM     14  C   UNL     1      -1.104   0.913   4.292  0.00  0.00    +0.108 A 
ATOM     15  C   UNL     1       0.106   1.262   4.885  0.00  0.00    +0.054 A 
ATOM     16  C   UNL     1       0.090   1.921   6.112  0.00  0.00    +0.028 A 
ATOM     17  C   UNL     1      -1.145   2.205   6.696  0.00  0.00    +0.040 A 
ATOM     18  C   UNL     1      -2.303   1.827   6.045  0.00  0.00    +0.085 A 
ATOM     19  N   UNL     1      -2.257   1.209   4.883  0.00  0.00    -0.357 N 
ATOM     20  H   UNL     1      -3.088   0.959   4.448  0.00  0.00    +0.165 HD
BRANCH  16  21
ATOM     21  N   UNL     1       1.277   2.288   6.741  0.00  0.00    -0.358 N 
ATOM     22  H   UNL     1       2.129   2.084   6.325  0.00  0.00    +0.142 HD
ATOM     23  H   UNL     1       1.251   2.747   7.595  0.00  0.00    +0.142 HD
ENDBRANCH  16  21
ENDBRANCH   2  14
TORSDOF 4
