REMARK  Name = ZINC56206947
REMARK  9 active torsions:
REMARK  status: ('A' for Active; 'I' for Inactive)
REMARK    1  A    between atoms: C_1  and  C_2
REMARK    2  A    between atoms: C_4  and  O_23
REMARK    3  A    between atoms: C_7  and  N_8
REMARK    4  A    between atoms: N_8  and  C_9
REMARK    5  A    between atoms: C_9  and  C_11
REMARK    6  A    between atoms: C_9  and  C_12
REMARK    7  A    between atoms: N_14  and  C_15
REMARK    8  A    between atoms: O_23  and  C_24
REMARK    9  A    between atoms: C_24  and  C_25
REMARK                            x       y       z     vdW  Elec       q    Type
REMARK                         _______ _______ _______ _____ _____    ______ ____
ROOT
ATOM      1  N   UNL     1       0.005  -0.003   2.422  0.00  0.00    -0.333 N 
ATOM      2  H   UNL     1      -0.004   0.967   2.429  0.00  0.00    +0.147 HD
ENDROOT
BRANCH   1   9
ATOM      3  C   UNL     1      -0.046   1.516   0.018  0.00  0.00    +0.046 C 
ATOM      4  C   UNL     1      -0.033   0.009   0.007  0.00  0.00    -0.026 A 
ATOM      5  C   UNL     1      -0.040  -0.673  -1.194  0.00  0.00    +0.050 A 
ATOM      6  C   UNL     1      -0.028  -2.059  -1.204  0.00  0.00    +0.122 A 
ATOM      7  C   UNL     1      -0.009  -2.763  -0.008  0.00  0.00    +0.047 A 
ATOM      8  C   UNL     1      -0.002  -2.082   1.193  0.00  0.00    +0.027 A 
ATOM      9  C   UNL     1      -0.008  -0.693   1.204  0.00  0.00    +0.031 A 
BRANCH   6  10
ATOM     10  O   UNL     1      -0.035  -2.731  -2.387  0.00  0.00    -0.483 OA
BRANCH  10  11
ATOM     11  C   UNL     1      -0.022  -4.158  -2.323  0.00  0.00    +0.324 C 
BRANCH  11  12
ATOM     12  C   UNL     1      -0.033  -4.723  -3.720  0.00  0.00    +0.248 C 
ATOM     13  O   UNL     1      -0.050  -3.977  -4.676  0.00  0.00    -0.272 OA
ATOM     14  N   UNL     1      -0.023  -6.058  -3.907  0.00  0.00    -0.327 N 
ATOM     15  H   UNL     1      -0.009  -6.655  -3.142  0.00  0.00    +0.145 HD
ATOM     16  H   UNL     1      -0.030  -6.422  -4.806  0.00  0.00    +0.145 HD
ENDBRANCH  11  12
ENDBRANCH  10  11
ENDBRANCH   6  10
ENDBRANCH   1   9
BRANCH   1  17
ATOM     17  C   UNL     1       0.031  -0.745   3.684  0.00  0.00    +0.154 C 
ATOM     18  C   UNL     1      -1.397  -1.124   4.083  0.00  0.00    +0.038 C 
BRANCH  17  19
ATOM     19  C   UNL     1       0.641   0.116   4.761  0.00  0.00    +0.237 C 
ATOM     20  O   UNL     1       1.016   1.239   4.498  0.00  0.00    -0.273 OA
ATOM     21  N   UNL     1       0.769  -0.362   6.014  0.00  0.00    -0.283 N 
ATOM     22  H   UNL     1       0.410  -1.234   6.240  0.00  0.00    +0.155 HD
BRANCH  21  23
ATOM     23  C   UNL     1       1.419   0.401   6.991  0.00  0.00    +0.053 A 
ATOM     24  C   UNL     1       1.304   1.785   6.984  0.00  0.00    +0.025 A 
ATOM     25  C   UNL     1       1.946   2.536   7.949  0.00  0.00    +0.003 A 
ATOM     26  C   UNL     1       2.705   1.912   8.922  0.00  0.00    +0.021 A 
ATOM     27  C   UNL     1       2.823   0.533   8.933  0.00  0.00    +0.061 A 
ATOM     28  C   UNL     1       2.177  -0.225   7.973  0.00  0.00    +0.080 A 
ATOM     29 CL   UNL     1       2.319  -1.955   7.990  0.00  0.00    -0.080 Cl
ATOM     30 CL   UNL     1       3.777  -0.246  10.156  0.00  0.00    -0.082 Cl
ENDBRANCH  21  23
ENDBRANCH  17  19
ENDBRANCH   1  17
TORSDOF 7
