REMARK  Name = ZINC12892299
REMARK  8 active torsions:
REMARK  status: ('A' for Active; 'I' for Inactive)
REMARK    1  A    between atoms: C_1  and  C_2
REMARK    2  A    between atoms: C_2  and  C_4
REMARK    3  A    between atoms: C_2  and  S_15
REMARK    4  A    between atoms: N_6  and  C_7
REMARK    5  A    between atoms: C_8  and  C_12
REMARK    6  A    between atoms: S_15  and  C_16
REMARK    7  A    between atoms: N_20  and  C_21
REMARK    8  A    between atoms: C_24  and  O_27
REMARK                            x       y       z     vdW  Elec       q    Type
REMARK                         _______ _______ _______ _____ _____    ______ ____
ROOT
ATOM      1  C   UNL     1      -1.826  -2.731   2.947  0.00  0.00    +0.029 C 
ATOM      2  C   UNL     1      -2.863  -2.015   2.079  0.00  0.00    +0.137 C 
ENDROOT
BRANCH   2   3
ATOM      3  C   UNL     1      -4.147  -1.864   2.853  0.00  0.00    +0.231 C 
ATOM      4  O   UNL     1      -4.415  -0.808   3.386  0.00  0.00    -0.274 OA
ATOM      5  N   UNL     1      -4.999  -2.904   2.954  0.00  0.00    -0.278 N 
ATOM      6  H   UNL     1      -4.786  -3.749   2.528  0.00  0.00    +0.155 HD
BRANCH   5   7
ATOM      7  C   UNL     1      -6.181  -2.765   3.666  0.00  0.00    +0.084 A 
ATOM      8  C   UNL     1      -7.179  -3.711   3.875  0.00  0.00    +0.065 A 
ATOM      9  C   UNL     1      -8.312  -3.294   4.666  0.00  0.00    +0.022 A 
ATOM     10  C   UNL     1      -8.310  -2.029   5.123  0.00  0.00    +0.048 A 
ATOM     11  S   UNL     1      -6.776  -1.371   4.503  0.00  0.00    -0.081 S 
BRANCH   8  12
ATOM     12  C   UNL     1      -7.083  -5.065   3.322  0.00  0.00    +0.244 C 
ATOM     13  O   UNL     1      -6.112  -5.386   2.661  0.00  0.00    -0.270 OA
ATOM     14  N   UNL     1      -8.070  -5.955   3.545  0.00  0.00    -0.325 N 
ATOM     15  H   UNL     1      -8.843  -5.700   4.072  0.00  0.00    +0.145 HD
ATOM     16  H   UNL     1      -8.007  -6.851   3.179  0.00  0.00    +0.145 HD
ENDBRANCH   8  12
ENDBRANCH   5   7
ENDBRANCH   2   3
BRANCH   2  17
ATOM     17  S   UNL     1      -2.239  -0.378   1.622  0.00  0.00    -0.072 S 
BRANCH  17  18
ATOM     18  C   UNL     1      -0.860  -0.843   0.628  0.00  0.00    +0.215 A 
ATOM     19  N   UNL     1      -0.474  -2.070   0.351  0.00  0.00    -0.101 NA
ATOM     20  N   UNL     1       0.571  -2.055  -0.395  0.00  0.00    -0.022 NA
ATOM     21  N   UNL     1       0.922  -0.842  -0.651  0.00  0.00    -0.038 NA
ATOM     22  N   UNL     1       0.002  -0.004   0.002  0.00  0.00    -0.187 N 
BRANCH  22  23
ATOM     23  C   UNL     1      -0.017   1.399   0.010  0.00  0.00    +0.070 A 
ATOM     24  C   UNL     1      -1.228   2.077   0.019  0.00  0.00    +0.031 A 
ATOM     25  C   UNL     1      -1.247   3.458   0.033  0.00  0.00    +0.047 A 
ATOM     26  C   UNL     1      -0.054   4.167   0.025  0.00  0.00    +0.117 A 
ATOM     27  C   UNL     1       1.156   3.490   0.010  0.00  0.00    +0.047 A 
ATOM     28  C   UNL     1       1.176   2.110   0.002  0.00  0.00    +0.031 A 
BRANCH  26  29
ATOM     29  O   UNL     1      -0.073   5.527   0.032  0.00  0.00    -0.507 OA
ATOM     30  H   UNL     1      -0.087   5.924  -0.849  0.00  0.00    +0.292 HD
ENDBRANCH  26  29
ENDBRANCH  22  23
ENDBRANCH  17  18
ENDBRANCH   2  17
TORSDOF 7
