REMARK  Name = ZINC09252678
REMARK  5 active torsions:
REMARK  status: ('A' for Active; 'I' for Inactive)
REMARK    1  A    between atoms: C_1  and  C_2
REMARK    2  A    between atoms: C_2  and  C_4
REMARK    3  A    between atoms: C_2  and  S_17
REMARK    4  A    between atoms: S_17  and  C_18
REMARK    5  A    between atoms: C_26  and  C_28
REMARK                            x       y       z     vdW  Elec       q    Type
REMARK                         _______ _______ _______ _____ _____    ______ ____
ROOT
ATOM      1  C   UNL     1       4.830   5.427   1.291  0.00  0.00    +0.029 C 
ATOM      2  C   UNL     1       5.014   4.663  -0.022  0.00  0.00    +0.136 C 
ENDROOT
BRANCH   2   3
ATOM      3  C   UNL     1       6.455   4.244  -0.161  0.00  0.00    +0.233 C 
ATOM      4  O   UNL     1       6.785   3.109   0.110  0.00  0.00    -0.274 OA
ATOM      5  N   UNL     1       7.377   5.130  -0.587  0.00  0.00    -0.260 N 
ATOM      6  C   UNL     1       7.002   6.513  -0.922  0.00  0.00    +0.209 C 
ATOM      7  C   UNL     1       7.722   6.926  -2.180  0.00  0.00    +0.235 C 
ATOM      8  O   UNL     1       7.217   7.746  -2.917  0.00  0.00    -0.274 OA
ATOM      9  N   UNL     1       8.918   6.395  -2.496  0.00  0.00    -0.283 N 
ATOM     10  C   UNL     1       9.500   5.410  -1.690  0.00  0.00    +0.055 A 
ATOM     11  C   UNL     1       8.726   4.766  -0.720  0.00  0.00    +0.058 A 
ATOM     12  C   UNL     1       9.284   3.790   0.085  0.00  0.00    +0.025 A 
ATOM     13  C   UNL     1      10.618   3.456  -0.066  0.00  0.00    +0.002 A 
ATOM     14  C   UNL     1      11.391   4.095  -1.018  0.00  0.00    +0.002 A 
ATOM     15  C   UNL     1      10.834   5.069  -1.839  0.00  0.00    +0.025 A 
ATOM     16  H   UNL     1       9.382   6.699  -3.292  0.00  0.00    +0.155 HD
ENDBRANCH   2   3
BRANCH   2  17
ATOM     17  S   UNL     1       3.956   3.194  -0.018  0.00  0.00    -0.093 S 
BRANCH  17  18
ATOM     18  C   UNL     1       2.370   3.960   0.000  0.00  0.00    +0.109 A 
ATOM     19  C   UNL     1       1.145   3.162   0.008  0.00  0.00    +0.032 A 
ATOM     20  C   UNL     1       1.166   1.765   0.000  0.00  0.00    +0.012 A 
ATOM     21  C   UNL     1      -0.013   1.076   0.008  0.00  0.00    +0.001 A 
ATOM     22  C   UNL     1      -1.232   1.746   0.017  0.00  0.00    +0.002 A 
ATOM     23  C   UNL     1      -1.286   3.108   0.031  0.00  0.00    +0.028 A 
ATOM     24  C   UNL     1      -0.096   3.848   0.024  0.00  0.00    +0.076 A 
ATOM     25  N   UNL     1      -0.090   5.187   0.030  0.00  0.00    -0.227 NA
ATOM     26  C   UNL     1       1.046   5.862   0.023  0.00  0.00    +0.168 A 
ATOM     27  N   UNL     1       2.245   5.281   0.008  0.00  0.00    -0.220 NA
BRANCH  26  28
ATOM     28  C   UNL     1       0.983   7.336   0.031  0.00  0.00    +0.056 A 
ATOM     29  C   UNL     1       2.010   8.244   0.031  0.00  0.00    +0.019 A 
ATOM     30  C   UNL     1       1.707   9.586   0.034  0.00  0.00    +0.008 A 
ATOM     31  C   UNL     1       0.403   9.970   0.050  0.00  0.00    +0.046 A 
ATOM     32  S   UNL     1      -0.449   8.401   0.050  0.00  0.00    -0.094 S 
ENDBRANCH  26  28
ENDBRANCH  17  18
ENDBRANCH   2  17
TORSDOF 4
