REMARK  Name = ZINC61812422
REMARK  4 active torsions:
REMARK  status: ('A' for Active; 'I' for Inactive)
REMARK    1  A    between atoms: C_6  and  N_7
REMARK    2  A    between atoms: N_7  and  C_8
REMARK    3  A    between atoms: C_12  and  C_14
REMARK    4  A    between atoms: C_14  and  N_16
REMARK                            x       y       z     vdW  Elec       q    Type
REMARK                         _______ _______ _______ _____ _____    ______ ____
ROOT
ATOM      1  C   UNL     1      -1.233  -2.110  -0.087  0.00  0.00    +0.035 A 
ATOM      2  C   UNL     1      -0.054  -2.855  -0.092  0.00  0.00    +0.041 A 
ATOM      3  C   UNL     1      -0.126  -4.232  -0.190  0.00  0.00    +0.085 A 
ATOM      4  N   UNL     1      -1.287  -4.846  -0.278  0.00  0.00    -0.359 N 
ATOM      5  C   UNL     1      -2.436  -4.177  -0.277  0.00  0.00    +0.069 A 
ATOM      6  C   UNL     1      -2.446  -2.789  -0.175  0.00  0.00    +0.051 A 
ATOM      7  H   UNL     1      -1.305  -5.814  -0.346  0.00  0.00    +0.165 HD
ENDROOT
BRANCH   1   8
ATOM      8  N   UNL     1      -1.198  -0.721   0.010  0.00  0.00    -0.314 N 
ATOM      9  H   UNL     1      -1.927  -0.246   0.440  0.00  0.00    +0.152 HD
BRANCH   8  15
ATOM     10  C   UNL     1       0.584  -0.509  -1.605  0.00  0.00    +0.024 A 
ATOM     11  C   UNL     1       1.655   0.195  -2.118  0.00  0.00    +0.016 A 
ATOM     12  C   UNL     1       2.036   1.395  -1.544  0.00  0.00    +0.013 A 
ATOM     13  C   UNL     1       1.344   1.893  -0.455  0.00  0.00    +0.016 A 
ATOM     14  C   UNL     1       0.271   1.194   0.063  0.00  0.00    +0.024 A 
ATOM     15  C   UNL     1      -0.113  -0.011  -0.511  0.00  0.00    +0.031 A 
ATOM     16  I   UNL     1       3.663   2.459  -2.325  0.00  0.00    -0.044 I 
ENDBRANCH   8  15
ENDBRANCH   1   8
BRANCH   5  17
ATOM     17  C   UNL     1      -3.714  -4.914  -0.378  0.00  0.00    +0.093 C 
ATOM     18  S   UNL     1      -5.096  -4.351   0.460  0.00  0.00    -0.034 S 
BRANCH  17  19
ATOM     19  N   UNL     1      -3.790  -6.030  -1.131  0.00  0.00    -0.351 N 
ATOM     20  H   UNL     1      -3.007  -6.349  -1.605  0.00  0.00    +0.143 HD
ATOM     21  H   UNL     1      -4.628  -6.513  -1.197  0.00  0.00    +0.143 HD
ENDBRANCH  17  19
ENDBRANCH   5  17
TORSDOF 4
