REMARK  Name = ZINC22702276
REMARK  7 active torsions:
REMARK  status: ('A' for Active; 'I' for Inactive)
REMARK    1  A    between atoms: C_1  and  C_2
REMARK    2  A    between atoms: C_5  and  N_13
REMARK    3  A    between atoms: C_7  and  S_8
REMARK    4  A    between atoms: S_8  and  N_11
REMARK    5  A    between atoms: N_11  and  C_12
REMARK    6  A    between atoms: C_14  and  C_16
REMARK    7  A    between atoms: C_20  and  N_25
REMARK                            x       y       z     vdW  Elec       q    Type
REMARK                         _______ _______ _______ _____ _____    ______ ____
ROOT
ATOM      1  N   UNL     1      -1.245   2.247  -0.201  0.00  0.00    -0.281 N 
ATOM      2  C   UNL     1      -1.264   3.519   0.243  0.00  0.00    +0.255 C 
ATOM      3  O   UNL     1      -2.268   3.966   0.765  0.00  0.00    -0.269 OA
ATOM      4  H   UNL     1      -0.365   1.866  -0.742  0.00  0.00    +0.155 HD
ENDROOT
BRANCH   2   5
ATOM      5  C   UNL     1      -0.071   4.365   0.101  0.00  0.00    +0.075 A 
ATOM      6  C   UNL     1       0.101   5.659   0.483  0.00  0.00    +0.029 A 
ATOM      7  C   UNL     1       1.333   6.299   0.260  0.00  0.00    -0.008 A 
ATOM      8  C   UNL     1       1.704   7.628   0.588  0.00  0.00    +0.041 A 
ATOM      9  C   UNL     1       2.945   8.095   0.296  0.00  0.00    +0.127 A 
ATOM     10  C   UNL     1       3.896   7.297  -0.330  0.00  0.00    +0.034 A 
ATOM     11  C   UNL     1       3.576   5.997  -0.666  0.00  0.00    +0.018 A 
ATOM     12  C   UNL     1       2.320   5.509  -0.376  0.00  0.00    +0.020 A 
ATOM     13  S   UNL     1       1.507   3.950  -0.621  0.00  0.00    -0.084 S 
BRANCH   9  14
ATOM     14  N   UNL     1       3.295   9.488   0.652  0.00  0.00    +0.056 N 
ATOM     15  O   UNL     1       2.474  10.201   1.201  0.00  0.00    -0.126 OA
ATOM     16  O   UNL     1       4.404   9.922   0.397  0.00  0.00    -0.126 OA
ENDBRANCH   9  14
ENDBRANCH   2   5
BRANCH   1  21
ATOM     17  C   UNL     1      -5.696  -1.147   0.719  0.00  0.00    +0.046 C 
ATOM     18  C   UNL     1      -4.513  -0.245   0.474  0.00  0.00    -0.024 A 
ATOM     19  C   UNL     1      -3.232  -0.766   0.498  0.00  0.00    +0.007 A 
ATOM     20  C   UNL     1      -2.147   0.056   0.268  0.00  0.00    +0.024 A 
ATOM     21  C   UNL     1      -2.342   1.410   0.025  0.00  0.00    +0.036 A 
ATOM     22  C   UNL     1      -3.630   1.930   0.003  0.00  0.00    +0.052 A 
ATOM     23  C   UNL     1      -4.711   1.101   0.228  0.00  0.00    +0.110 A 
BRANCH  23  24
ATOM     24  S   UNL     1      -6.346   1.759   0.200  0.00  0.00    +0.058 S 
ATOM     25  O   UNL     1      -6.218   3.153  -0.048  0.00  0.00    -0.153 OA
ATOM     26  O   UNL     1      -7.114   0.904  -0.635  0.00  0.00    -0.153 OA
BRANCH  24  27
ATOM     27  N   UNL     1      -6.962   1.605   1.729  0.00  0.00    -0.193 NA
ATOM     28  C   UNL     1      -6.365   2.354   2.838  0.00  0.00    +0.127 C 
ATOM     29  H   UNL     1      -7.705   0.821   1.933  0.00  0.00    +0.148 HD
ENDBRANCH  24  27
ENDBRANCH  23  24
ENDBRANCH   1  21
TORSDOF 5
