REMARK  Name = ZINC54042012
REMARK  9 active torsions:
REMARK  status: ('A' for Active; 'I' for Inactive)
REMARK    1  A    between atoms: C_1  and  O_2
REMARK    2  A    between atoms: O_2  and  C_3
REMARK    3  A    between atoms: C_8  and  C_9
REMARK    4  A    between atoms: C_9  and  C_10
REMARK    5  A    between atoms: C_10  and  N_11
REMARK    6  A    between atoms: N_14  and  C_15
REMARK    7  A    between atoms: C_15  and  C_16
REMARK    8  A    between atoms: C_16  and  C_18
REMARK    9  A    between atoms: C_16  and  N_23
REMARK                            x       y       z     vdW  Elec       q    Type
REMARK                         _______ _______ _______ _____ _____    ______ ____
ROOT
ATOM      1  N   UNL     1       1.789  -3.811   1.341  0.00  0.00    -0.299 N 
ATOM      2  C   UNL     1       2.356  -4.164   2.511  0.00  0.00    +0.300 C 
ATOM      3  O   UNL     1       1.805  -3.891   3.560  0.00  0.00    -0.253 OA
ATOM      4  N   UNL     1       3.534  -4.819   2.519  0.00  0.00    -0.301 N 
ATOM      5  H   UNL     1       2.228  -4.029   0.504  0.00  0.00    +0.150 HD
ATOM      6  H   UNL     1       3.973  -5.037   1.682  0.00  0.00    +0.150 HD
ENDROOT
BRANCH   1   7
ATOM      7  C   UNL     1       0.508  -3.099   1.332  0.00  0.00    +0.110 C 
BRANCH   7   8
ATOM      8  C   UNL     1       0.089  -2.820  -0.113  0.00  0.00    +0.057 C 
BRANCH   8  14
ATOM      9  C   UNL     1      -1.255  -0.707   0.013  0.00  0.00    +0.123 A 
ATOM     10  C   UNL     1      -2.469  -0.035  -0.001  0.00  0.00    +0.046 A 
ATOM     11  C   UNL     1      -3.647  -0.742  -0.142  0.00  0.00    +0.004 A 
ATOM     12  C   UNL     1      -3.617  -2.118  -0.271  0.00  0.00    +0.000 A 
ATOM     13  C   UNL     1      -2.409  -2.790  -0.257  0.00  0.00    +0.007 A 
ATOM     14  C   UNL     1      -1.227  -2.087  -0.121  0.00  0.00    -0.004 A 
BRANCH   9  16
ATOM     15  C   UNL     1      -0.198   1.406   0.285  0.00  0.00    +0.277 C 
ATOM     16  O   UNL     1      -0.094  -0.013   0.152  0.00  0.00    -0.495 OA
ENDBRANCH   9  16
ENDBRANCH   8  14
ENDBRANCH   7   8
ENDBRANCH   1   7
BRANCH   4  17
ATOM     17  C   UNL     1       4.150  -5.202   3.792  0.00  0.00    +0.098 C 
BRANCH  17  18
ATOM     18  C   UNL     1       5.416  -6.017   3.520  0.00  0.00    +0.016 C 
BRANCH  18  19
ATOM     19  N   UNL     1       5.961  -6.514   4.790  0.00  0.00    +0.387 N 
ATOM     20  C   UNL     1       4.994  -7.438   5.436  0.00  0.00    -0.078 C 
ATOM     21  C   UNL     1       5.884  -8.274   6.389  0.00  0.00    -0.020 C 
ATOM     22  C   UNL     1       7.184  -8.460   5.574  0.00  0.00    -0.020 C 
ATOM     23  C   UNL     1       7.180  -7.314   4.544  0.00  0.00    -0.078 C 
ATOM     24  H   UNL     1       6.170  -5.742   5.405  0.00  0.00    -0.081 HD
ENDBRANCH  18  19
BRANCH  18  25
ATOM     25  C   UNL     1       6.440  -5.143   2.842  0.00  0.00    +0.093 A 
ATOM     26  C   UNL     1       6.701  -5.116   1.522  0.00  0.00    +0.043 A 
ATOM     27  C   UNL     1       7.724  -4.160   1.327  0.00  0.00    +0.041 A 
ATOM     28  C   UNL     1       8.027  -3.661   2.538  0.00  0.00    +0.195 A 
ATOM     29  O   UNL     1       7.242  -4.256   3.451  0.00  0.00    -0.469 OA
ENDBRANCH  18  25
ENDBRANCH  17  18
ENDBRANCH   4  17
TORSDOF 8
