REMARK  Name = ZINC08740280
REMARK  13 active torsions:
REMARK  status: ('A' for Active; 'I' for Inactive)
REMARK    1  A    between atoms: C_1  and  C_2
REMARK    2  A    between atoms: C_2  and  C_4
REMARK    3  A    between atoms: C_10  and  C_45
REMARK    4  A    between atoms: N_22  and  O_23
REMARK    5  A    between atoms: O_23  and  C_24
REMARK    6  A    between atoms: C_24  and  C_25
REMARK    7  A    between atoms: N_27  and  C_28
REMARK    8  A    between atoms: C_28  and  C_30
REMARK    9  A    between atoms: C_28  and  C_37
REMARK   10  A    between atoms: C_30  and  C_31
REMARK   11  A    between atoms: C_37  and  O_39
REMARK   12  A    between atoms: O_39  and  C_40
REMARK   13  A    between atoms: C_43  and  C_44
REMARK                            x       y       z     vdW  Elec       q    Type
REMARK                         _______ _______ _______ _____ _____    ______ ____
ROOT
ATOM      1  C   UNL     1      -1.291  -0.773   0.016  0.00  0.00    +0.061 C 
ATOM      2  C   UNL     1      -1.793  -0.976  -1.428  0.00  0.00    +0.012 C 
ATOM      3  C   UNL     1      -1.858  -2.502  -1.658  0.00  0.00    +0.005 C 
ATOM      4  C   UNL     1      -2.009  -3.088  -0.223  0.00  0.00    -0.001 C 
ATOM      5  C   UNL     1      -1.068  -2.180   0.585  0.00  0.00    -0.019 C 
ATOM      6  C   UNL     1      -1.323  -2.254   2.074  0.00  0.00    +0.008 C 
ATOM      7  C   UNL     1      -2.785  -1.939   2.379  0.00  0.00    +0.005 C 
ATOM      8  C   UNL     1      -3.678  -2.973   1.675  0.00  0.00    +0.002 C 
ATOM      9  C   UNL     1      -3.481  -2.898   0.167  0.00  0.00    -0.003 C 
ATOM     10  C   UNL     1      -4.289  -3.941  -0.600  0.00  0.00    +0.008 C 
ATOM     11  C   UNL     1      -5.601  -4.292   0.086  0.00  0.00    +0.031 C 
ATOM     12  C   UNL     1      -6.048  -3.127   0.935  0.00  0.00    -0.062 C 
ATOM     13  C   UNL     1      -7.209  -2.532   0.705  0.00  0.00    +0.026 C 
ATOM     14  C   UNL     1      -7.646  -1.390   1.518  0.00  0.00    +0.080 C 
ATOM     15  N   UNL     1      -8.796  -0.837   1.294  0.00  0.00    -0.089 NA
ATOM     16  C   UNL     1      -6.755  -0.862   2.614  0.00  0.00    +0.059 C 
ATOM     17  C   UNL     1      -5.296  -1.164   2.254  0.00  0.00    +0.017 C 
ATOM     18  C   UNL     1      -5.128  -2.643   2.054  0.00  0.00    -0.007 C 
ATOM     19  C   UNL     1      -5.495  -3.374   3.348  0.00  0.00    +0.016 C 
ATOM     20  C   UNL     1       0.379  -2.602   0.321  0.00  0.00    +0.012 C 
ENDROOT
BRANCH   1  22
ATOM     21  C   UNL     1       0.422   0.776   1.234  0.00  0.00    +0.086 C 
ATOM     22  C   UNL     1       0.004  -0.002   0.013  0.00  0.00    +0.134 C 
ATOM     23  O   UNL     1       0.708  -0.009  -0.969  0.00  0.00    -0.297 OA
ENDBRANCH   1  22
BRANCH  15  24
ATOM     24  O   UNL     1      -9.632  -1.334   0.265  0.00  0.00    -0.384 OA
BRANCH  24  25
ATOM     25  C   UNL     1     -10.868  -0.630   0.130  0.00  0.00    +0.358 C 
BRANCH  25  26
ATOM     26  C   UNL     1     -11.674  -1.240  -0.988  0.00  0.00    +0.254 C 
ATOM     27  O   UNL     1     -11.233  -2.184  -1.609  0.00  0.00    -0.272 OA
ATOM     28  N   UNL     1     -12.885  -0.735  -1.299  0.00  0.00    -0.299 N 
ATOM     29  H   UNL     1     -13.237   0.020  -0.803  0.00  0.00    +0.150 HD
BRANCH  28  30
ATOM     30  C   UNL     1     -13.668  -1.328  -2.386  0.00  0.00    +0.188 C 
BRANCH  30  31
ATOM     31  C   UNL     1     -13.240  -0.725  -3.700  0.00  0.00    +0.328 C 
ATOM     32  O   UNL     1     -12.370   0.113  -3.725  0.00  0.00    -0.249 OA
BRANCH  31  33
ATOM     33  O   UNL     1     -13.825  -1.120  -4.841  0.00  0.00    -0.467 OA
ATOM     34  C   UNL     1     -13.370  -0.507  -6.049  0.00  0.00    +0.280 C 
ENDBRANCH  31  33
ENDBRANCH  30  31
BRANCH  30  35
ATOM     35  C   UNL     1     -15.154  -1.046  -2.156  0.00  0.00    +0.090 C 
BRANCH  35  36
ATOM     36  C   UNL     1     -15.611  -1.752  -0.905  0.00  0.00    +0.061 A 
ATOM     37  C   UNL     1     -16.222  -1.178   0.148  0.00  0.00    +0.107 A 
ATOM     38  N   UNL     1     -16.462  -2.172   1.058  0.00  0.00    -0.351 N 
ATOM     39  H   UNL     1     -16.891  -2.071   1.921  0.00  0.00    +0.166 HD
ATOM     40  C   UNL     1     -15.989  -3.321   0.527  0.00  0.00    +0.196 A 
ATOM     41  N   UNL     1     -15.486  -3.062  -0.649  0.00  0.00    -0.241 NA
ENDBRANCH  35  36
ENDBRANCH  30  35
ENDBRANCH  28  30
ENDBRANCH  25  26
ENDBRANCH  24  25
ENDBRANCH  15  24
TORSDOF 9
