REMARK  Name = ZINC50814258
REMARK  3 active torsions:
REMARK  status: ('A' for Active; 'I' for Inactive)
REMARK    1  A    between atoms: C_6  and  N_23
REMARK    2  A    between atoms: C_8  and  C_10
REMARK    3  A    between atoms: C_10  and  N_11
REMARK                            x       y       z     vdW  Elec       q    Type
REMARK                         _______ _______ _______ _____ _____    ______ ____
ROOT
ATOM      1  C   UNL     1      -0.018   1.448   0.010  0.00  0.00    +0.021 A 
ATOM      2  C   UNL     1       1.144   2.119   0.003  0.00  0.00    +0.048 A 
ATOM      3  S   UNL     1       2.371   0.826  -0.016  0.00  0.00    -0.077 S 
ATOM      4  C   UNL     1       1.291  -0.580  -0.013  0.00  0.00    +0.113 A 
ATOM      5  C   UNL     1       0.002  -0.004   0.002  0.00  0.00    +0.047 A 
ATOM      6  C   UNL     1      -1.078  -0.928   0.007  0.00  0.00    +0.128 A 
ATOM      7  N   UNL     1      -0.818  -2.226  -0.003  0.00  0.00    -0.219 NA
ATOM      8  C   UNL     1       0.417  -2.695  -0.017  0.00  0.00    +0.116 A 
ATOM      9  N   UNL     1       1.460  -1.888  -0.022  0.00  0.00    -0.227 NA
ENDROOT
BRANCH   6  10
ATOM     10  N   UNL     1      -2.386  -0.477   0.022  0.00  0.00    -0.343 N 
ATOM     11  H   UNL     1      -2.570   0.475   0.030  0.00  0.00    +0.144 HD
ATOM     12  H   UNL     1      -3.118  -1.113   0.025  0.00  0.00    +0.144 HD
ENDBRANCH   6  10
BRANCH   8  13
ATOM     13  C   UNL     1       0.639  -4.186  -0.028  0.00  0.00    -0.001 C 
BRANCH  13  14
ATOM     14  N   UNL     1       0.698  -4.662  -1.416  0.00  0.00    +0.386 N 
ATOM     15  C   UNL     1       1.870  -4.082  -2.082  0.00  0.00    -0.078 C 
ATOM     16  C   UNL     1       1.892  -4.509  -3.551  0.00  0.00    -0.018 C 
ATOM     17  C   UNL     1       1.962  -6.037  -3.630  0.00  0.00    +0.000 C 
ATOM     18  C   UNL     1       0.774  -6.633  -2.869  0.00  0.00    -0.025 C 
ATOM     19  C   UNL     1       0.794  -6.127  -1.425  0.00  0.00    -0.065 C 
ATOM     20  C   UNL     1      -0.393  -6.720  -0.663  0.00  0.00    -0.015 C 
ATOM     21  C   UNL     1      -1.698  -6.289  -1.335  0.00  0.00    -0.002 C 
ATOM     22  C   UNL     1      -1.717  -6.792  -2.780  0.00  0.00    +0.000 C 
ATOM     23  C   UNL     1      -0.530  -6.205  -3.545  0.00  0.00    +0.002 C 
ATOM     24  H   UNL     1      -0.138  -4.378  -1.904  0.00  0.00    -0.081 HD
ENDBRANCH  13  14
ENDBRANCH   8  13
TORSDOF 3
