REMARK  Name = ZINC56718262
REMARK  10 active torsions:
REMARK  status: ('A' for Active; 'I' for Inactive)
REMARK    1  A    between atoms: C_1  and  C_2
REMARK    2  A    between atoms: C_2  and  N_3
REMARK    3  A    between atoms: C_4  and  C_6
REMARK    4  A    between atoms: C_9  and  N_13
REMARK    5  A    between atoms: C_10  and  C_12
REMARK    6  A    between atoms: N_16  and  C_17
REMARK    7  A    between atoms: C_17  and  C_19
REMARK    8  A    between atoms: C_17  and  C_20
REMARK    9  A    between atoms: C_20  and  N_21
REMARK   10  A    between atoms: C_25  and  C_28
REMARK                            x       y       z     vdW  Elec       q    Type
REMARK                         _______ _______ _______ _____ _____    ______ ____
ROOT
ATOM      1  N   UNL     1       3.581  -3.683   5.965  0.00  0.00    -0.269 N 
ATOM      2  C   UNL     1       4.172  -2.807   6.802  0.00  0.00    +0.304 C 
ATOM      3  O   UNL     1       4.041  -1.612   6.623  0.00  0.00    -0.253 OA
ATOM      4  N   UNL     1       4.908  -3.256   7.837  0.00  0.00    -0.298 N 
ATOM      5  H   UNL     1       3.630  -4.634   6.145  0.00  0.00    +0.156 HD
ATOM      6  H   UNL     1       5.012  -4.210   7.980  0.00  0.00    +0.150 HD
ENDROOT
BRANCH   1  10
ATOM      7  C   UNL     1       1.543  -2.301   2.605  0.00  0.00    +0.037 A 
ATOM      8  C   UNL     1       1.526  -1.558   3.789  0.00  0.00    +0.015 A 
ATOM      9  C   UNL     1       2.200  -2.018   4.897  0.00  0.00    +0.024 A 
ATOM     10  C   UNL     1       2.899  -3.220   4.840  0.00  0.00    +0.038 A 
ATOM     11  C   UNL     1       2.918  -3.961   3.663  0.00  0.00    -0.028 A 
ATOM     12  C   UNL     1       2.241  -3.510   2.552  0.00  0.00    +0.018 A 
ATOM     13  C   UNL     1       3.677  -5.262   3.605  0.00  0.00    +0.045 C 
BRANCH   7  15
ATOM     14  N   UNL     1       0.148  -0.645   1.467  0.00  0.00    -0.312 N 
ATOM     15  C   UNL     1       0.821  -1.812   1.414  0.00  0.00    +0.244 C 
ATOM     16  O   UNL     1       0.833  -2.461   0.387  0.00  0.00    -0.270 OA
ATOM     17  H   UNL     1       0.139  -0.127   2.287  0.00  0.00    +0.149 HD
BRANCH  14  19
ATOM     18  C   UNL     1      -1.243   1.175   0.610  0.00  0.00    +0.024 C 
ATOM     19  C   UNL     1      -0.569  -0.159   0.285  0.00  0.00    +0.101 C 
ENDBRANCH  14  19
ENDBRANCH   7  15
ENDBRANCH   1  10
BRANCH   4  20
ATOM     20  C   UNL     1       5.550  -2.305   8.747  0.00  0.00    +0.055 C 
ATOM     21  C   UNL     1       6.898  -1.874   8.166  0.00  0.00    +0.026 C 
BRANCH  20  22
ATOM     22  C   UNL     1       5.770  -2.969  10.108  0.00  0.00    -0.057 C 
BRANCH  22  23
ATOM     23  N   UNL     1       4.492  -3.489  10.611  0.00  0.00    +0.381 N 
ATOM     24  C   UNL     1       3.574  -2.371  10.859  0.00  0.00    -0.079 C 
ATOM     25  C   UNL     1       2.214  -2.912  11.307  0.00  0.00    -0.018 C 
ATOM     26  C   UNL     1       2.392  -3.724  12.593  0.00  0.00    -0.001 C 
ATOM     27  C   UNL     1       3.408  -4.842  12.343  0.00  0.00    -0.031 C 
ATOM     28  C   UNL     1       4.723  -4.230  11.857  0.00  0.00    -0.076 C 
ATOM     29  C   UNL     1       3.650  -5.612  13.643  0.00  0.00    +0.005 C 
ATOM     30  H   UNL     1       4.087  -4.107   9.924  0.00  0.00    -0.082 HD
ENDBRANCH  22  23
ENDBRANCH  20  22
ENDBRANCH   4  20
TORSDOF 6
