REMARK  Name = ZINC39895282
REMARK  11 active torsions:
REMARK  status: ('A' for Active; 'I' for Inactive)
REMARK    1  A    between atoms: C_1  and  C_2
REMARK    2  A    between atoms: C_2  and  C_3
REMARK    3  A    between atoms: C_2  and  C_4
REMARK    4  A    between atoms: C_7  and  N_10
REMARK    5  A    between atoms: N_10  and  C_11
REMARK    6  A    between atoms: C_12  and  C_29
REMARK    7  A    between atoms: C_16  and  C_23
REMARK    8  A    between atoms: C_17  and  C_21
REMARK    9  A    between atoms: C_18  and  N_20
REMARK   10  A    between atoms: N_31  and  C_32
REMARK   11  A    between atoms: C_32  and  C_33
REMARK                            x       y       z     vdW  Elec       q    Type
REMARK                         _______ _______ _______ _____ _____    ______ ____
ROOT
ATOM      1  C   UNL     1      -5.798  -2.676  -1.034  0.00  0.00    +0.085 A 
ATOM      2  C   UNL     1      -7.088  -3.146  -1.252  0.00  0.00    +0.091 A 
ATOM      3  C   UNL     1      -7.352  -3.881  -2.488  0.00  0.00    +0.095 A 
ATOM      4  C   UNL     1      -6.240  -4.032  -3.337  0.00  0.00    +0.049 A 
ATOM      5  S   UNL     1      -4.918  -3.207  -2.490  0.00  0.00    -0.071 S 
ATOM      6  C   UNL     1      -6.327  -4.704  -4.547  0.00  0.00    +0.019 A 
ATOM      7  C   UNL     1      -7.581  -5.244  -4.914  0.00  0.00    +0.100 A 
ATOM      8  C   UNL     1      -8.660  -5.065  -4.029  0.00  0.00    +0.135 A 
ATOM      9  N   UNL     1      -8.523  -4.419  -2.894  0.00  0.00    -0.230 NA
ENDROOT
BRANCH   6  10
ATOM     10  C   UNL     1      -5.144  -4.851  -5.426  0.00  0.00    -0.015 A 
ATOM     11  C   UNL     1      -4.556  -3.725  -6.003  0.00  0.00    +0.008 A 
ATOM     12  C   UNL     1      -3.454  -3.868  -6.821  0.00  0.00    +0.001 A 
ATOM     13  C   UNL     1      -2.933  -5.125  -7.070  0.00  0.00    +0.000 A 
ATOM     14  C   UNL     1      -3.512  -6.246  -6.501  0.00  0.00    +0.001 A 
ATOM     15  C   UNL     1      -4.611  -6.115  -5.677  0.00  0.00    +0.008 A 
ENDBRANCH   6  10
BRANCH   2  16
ATOM     16  C   UNL     1      -8.149  -2.913  -0.274  0.00  0.00    +0.249 C 
ATOM     17  O   UNL     1      -8.839  -1.913  -0.350  0.00  0.00    -0.270 OA
ATOM     18  N   UNL     1      -8.364  -3.805   0.713  0.00  0.00    -0.308 N 
ATOM     19  H   UNL     1      -7.814  -4.602   0.774  0.00  0.00    +0.149 HD
BRANCH  18  20
ATOM     20  C   UNL     1      -9.427  -3.572   1.694  0.00  0.00    +0.131 C 
BRANCH  20  21
ATOM     21  C   UNL     1      -9.458  -4.709   2.682  0.00  0.00    -0.016 C 
ATOM     22  C   UNL     1      -9.367  -4.463   3.966  0.00  0.00    +0.005 C 
ENDBRANCH  20  21
ENDBRANCH  18  20
ENDBRANCH   2  16
BRANCH   8  23
ATOM     23  N   UNL     1      -9.900  -5.585  -4.363  0.00  0.00    -0.342 N 
ATOM     24  H   UNL     1     -10.016  -6.064  -5.199  0.00  0.00    +0.144 HD
ATOM     25  H   UNL     1     -10.653  -5.469  -3.762  0.00  0.00    +0.144 HD
ENDBRANCH   8  23
BRANCH   1  26
ATOM     26  N   UNL     1      -5.319  -1.967   0.042  0.00  0.00    -0.308 N 
ATOM     27  H   UNL     1      -5.886  -1.814   0.814  0.00  0.00    +0.153 HD
BRANCH  26  31
ATOM     28  C   UNL     1      -1.430  -0.477  -0.010  0.00  0.00    -0.045 A 
ATOM     29  C   UNL     1      -2.160  -0.541  -1.183  0.00  0.00    +0.006 A 
ATOM     30  C   UNL     1      -3.450  -1.035  -1.169  0.00  0.00    +0.023 A 
ATOM     31  C   UNL     1      -4.014  -1.468   0.025  0.00  0.00    +0.032 A 
ATOM     32  C   UNL     1      -3.277  -1.402   1.201  0.00  0.00    +0.023 A 
ATOM     33  C   UNL     1      -1.986  -0.912   1.179  0.00  0.00    +0.006 A 
BRANCH  28  35
ATOM     34  C   UNL     1       0.838  -0.792  -0.962  0.00  0.00    +0.012 C 
ATOM     35  C   UNL     1      -0.023   0.062  -0.029  0.00  0.00    +0.013 C 
ATOM     36  C   UNL     1      -0.037   1.508  -0.530  0.00  0.00    +0.012 C 
ENDBRANCH  28  35
ENDBRANCH  26  31
ENDBRANCH   1  26
BRANCH   7  37
ATOM     37  C   UNL     1      -7.748  -5.951  -6.148  0.00  0.00    +0.103 C 
ATOM     38  N   UNL     1      -7.880  -6.512  -7.127  0.00  0.00    -0.191 NA
ENDBRANCH   7  37
TORSDOF 9
