REMARK  Name = ZINC67255074
REMARK  10 active torsions:
REMARK  status: ('A' for Active; 'I' for Inactive)
REMARK    1  A    between atoms: C_3  and  C_6
REMARK    2  A    between atoms: C_7  and  C_12
REMARK    3  A    between atoms: C_12  and  N_13
REMARK    4  A    between atoms: N_13  and  C_14
REMARK    5  A    between atoms: C_14  and  C_15
REMARK    6  A    between atoms: C_15  and  C_17
REMARK    7  A    between atoms: C_15  and  O_29
REMARK    8  A    between atoms: C_17  and  O_18
REMARK    9  A    between atoms: O_18  and  C_19
REMARK   10  A    between atoms: C_22  and  C_25
REMARK                            x       y       z     vdW  Elec       q    Type
REMARK                         _______ _______ _______ _____ _____    ______ ____
ROOT
ATOM      1  C   UNL     1       4.782  -2.448   1.309  0.00  0.00    -0.047 C 
ENDROOT
BRANCH   1   2
ATOM      2  N   UNL     1       4.814  -1.210   0.519  0.00  0.00    +0.384 N 
ATOM      3  H   UNL     1       4.002  -1.172  -0.079  0.00  0.00    -0.085 HD
ATOM      4  H   UNL     1       5.649  -1.193  -0.047  0.00  0.00    -0.085 HD
BRANCH   2   5
ATOM      5  C   UNL     1       4.811  -0.052   1.422  0.00  0.00    -0.043 C 
BRANCH   5   7
ATOM      6  C   UNL     1       3.740   1.825  -0.024  0.00  0.00    +0.100 A 
ATOM      7  C   UNL     1       4.843   1.218   0.612  0.00  0.00    -0.019 A 
ATOM      8  C   UNL     1       5.933   1.976   0.365  0.00  0.00    +0.107 A 
ATOM      9  N   UNL     1       5.548   3.025  -0.395  0.00  0.00    -0.284 N 
ATOM     10  H   UNL     1       6.126   3.732  -0.723  0.00  0.00    +0.188 HD
ATOM     11  N   UNL     1       4.173   2.911  -0.634  0.00  0.00    -0.173 NA
BRANCH   6  14
ATOM     12  C   UNL     1      -0.016   1.353   0.009  0.00  0.00    +0.008 A 
ATOM     13  C   UNL     1       1.178   2.041   0.002  0.00  0.00    +0.018 A 
ATOM     14  C   UNL     1       2.347   1.329  -0.013  0.00  0.00    +0.039 A 
ATOM     15  S   UNL     1       1.752  -0.354  -0.017  0.00  0.00    -0.095 S 
ATOM     16  C   UNL     1       0.002  -0.004   0.002  0.00  0.00    +0.046 A 
ENDBRANCH   6  14
ENDBRANCH   5   7
ENDBRANCH   2   5
ENDBRANCH   1   2
BRANCH   1  17
ATOM     17  C   UNL     1       4.785  -3.654   0.368  0.00  0.00    +0.135 C 
BRANCH  17  18
ATOM     18  O   UNL     1       3.636  -3.601  -0.479  0.00  0.00    -0.390 OA
ATOM     19  H   UNL     1       2.795  -3.613  -0.002  0.00  0.00    +0.210 HD
ENDBRANCH  17  18
BRANCH  17  20
ATOM     20  C   UNL     1       4.753  -4.944   1.191  0.00  0.00    +0.258 C 
BRANCH  20  21
ATOM     21  O   UNL     1       4.873  -6.069   0.319  0.00  0.00    -0.489 OA
BRANCH  21  22
ATOM     22  C   UNL     1       4.862  -7.300   0.894  0.00  0.00    +0.121 A 
ATOM     23  C   UNL     1       4.732  -7.423   2.270  0.00  0.00    +0.046 A 
ATOM     24  C   UNL     1       4.720  -8.675   2.853  0.00  0.00    +0.016 A 
ATOM     25  C   UNL     1       4.838  -9.806   2.066  0.00  0.00    +0.055 A 
ATOM     26  C   UNL     1       4.968  -9.687   0.695  0.00  0.00    +0.016 A 
ATOM     27  C   UNL     1       4.974  -8.437   0.107  0.00  0.00    +0.046 A 
BRANCH  25  28
ATOM     28  C   UNL     1       4.825 -11.171   2.704  0.00  0.00    +0.417 C 
ATOM     29  F   UNL     1       3.509 -11.641   2.774  0.00  0.00    -0.166 F 
ATOM     30  F   UNL     1       5.595 -12.052   1.937  0.00  0.00    -0.166 F 
ATOM     31  F   UNL     1       5.359 -11.087   3.995  0.00  0.00    -0.166 F 
ENDBRANCH  25  28
ENDBRANCH  21  22
ENDBRANCH  20  21
ENDBRANCH  17  20
ENDBRANCH   1  17
TORSDOF 10
