REMARK  Name = ZINC63480717
REMARK  6 active torsions:
REMARK  status: ('A' for Active; 'I' for Inactive)
REMARK    1  A    between atoms: C_1  and  N_2
REMARK    2  A    between atoms: C_3  and  C_17
REMARK    3  A    between atoms: N_19  and  C_20
REMARK    4  A    between atoms: C_20  and  C_21
REMARK    5  A    between atoms: C_21  and  N_22
REMARK    6  A    between atoms: N_25  and  C_28
REMARK                            x       y       z     vdW  Elec       q    Type
REMARK                         _______ _______ _______ _____ _____    ______ ____
ROOT
ATOM      1  C   UNL     1      -2.106  -0.642  -1.047  0.00  0.00    +0.238 C 
ATOM      2  O   UNL     1      -1.834   0.192  -1.884  0.00  0.00    -0.273 OA
ATOM      3  N   UNL     1      -3.249  -1.349  -1.147  0.00  0.00    -0.312 N 
ATOM      4  H   UNL     1      -3.467  -2.016  -0.477  0.00  0.00    +0.149 HD
ENDROOT
BRANCH   1   7
ATOM      5  C   UNL     1      -0.018   1.461   0.010  0.00  0.00    +0.130 C 
ATOM      6  N   UNL     1       0.002  -0.004   0.002  0.00  0.00    -0.317 N 
ATOM      7  C   UNL     1      -1.167  -0.887   0.106  0.00  0.00    +0.183 C 
ATOM      8  C   UNL     1      -0.630  -2.298   0.050  0.00  0.00    +0.019 C 
ATOM      9  C   UNL     1       0.715  -2.205  -0.073  0.00  0.00    +0.057 C 
ATOM     10  C   UNL     1       1.105  -0.790  -0.109  0.00  0.00    +0.051 C 
ATOM     11  C   UNL     1       2.481  -0.496  -0.241  0.00  0.00    +0.018 A 
ATOM     12  C   UNL     1       2.922   0.837  -0.278  0.00  0.00    +0.011 A 
ATOM     13  C   UNL     1       4.252   1.107  -0.404  0.00  0.00    +0.001 A 
ATOM     14  C   UNL     1       5.180   0.074  -0.499  0.00  0.00    +0.002 A 
ATOM     15  C   UNL     1       4.785  -1.230  -0.467  0.00  0.00    +0.024 A 
ATOM     16  C   UNL     1       3.422  -1.551  -0.337  0.00  0.00    +0.043 A 
ATOM     17  N   UNL     1       3.047  -2.837  -0.306  0.00  0.00    -0.281 N 
ATOM     18  C   UNL     1       1.787  -3.221  -0.176  0.00  0.00    +0.250 C 
ATOM     19  O   UNL     1       1.508  -4.410  -0.155  0.00  0.00    -0.270 OA
ATOM     20  H   UNL     1       3.733  -3.520  -0.375  0.00  0.00    +0.155 HD
ENDBRANCH   1   7
BRANCH   3  21
ATOM     21  C   UNL     1      -4.162  -1.111  -2.267  0.00  0.00    +0.119 C 
BRANCH  21  22
ATOM     22  C   UNL     1      -5.374  -2.037  -2.144  0.00  0.00    +0.103 C 
BRANCH  22  23
ATOM     23  N   UNL     1      -6.289  -1.798  -3.267  0.00  0.00    -0.298 NA
ATOM     24  C   UNL     1      -5.671  -2.187  -4.542  0.00  0.00    +0.103 C 
ATOM     25  C   UNL     1      -6.580  -1.757  -5.699  0.00  0.00    +0.120 C 
ATOM     26  N   UNL     1      -7.924  -2.307  -5.466  0.00  0.00    -0.325 N 
ATOM     27  C   UNL     1      -8.554  -2.075  -4.157  0.00  0.00    +0.120 C 
ATOM     28  C   UNL     1      -7.568  -2.492  -3.061  0.00  0.00    +0.103 C 
BRANCH  26  29
ATOM     29  C   UNL     1      -8.586  -3.031  -6.463  0.00  0.00    +0.065 A 
ATOM     30  C   UNL     1      -8.432  -4.409  -6.540  0.00  0.00    +0.026 A 
ATOM     31  C   UNL     1      -9.088  -5.121  -7.526  0.00  0.00    +0.002 A 
ATOM     32  C   UNL     1      -9.896  -4.465  -8.435  0.00  0.00    +0.003 A 
ATOM     33  C   UNL     1     -10.052  -3.093  -8.363  0.00  0.00    +0.040 A 
ATOM     34  C   UNL     1      -9.404  -2.374  -7.375  0.00  0.00    +0.144 A 
ATOM     35  F   UNL     1      -9.561  -1.034  -7.300  0.00  0.00    -0.204 F 
ENDBRANCH  26  29
ENDBRANCH  22  23
ENDBRANCH  21  22
ENDBRANCH   3  21
TORSDOF 5
