REMARK  Name = ZINC63063786
REMARK  4 active torsions:
REMARK  status: ('A' for Active; 'I' for Inactive)
REMARK    1  A    between atoms: C_1  and  C_2
REMARK    2  A    between atoms: C_5  and  C_9
REMARK    3  A    between atoms: C_7  and  O_8
REMARK    4  A    between atoms: C_17  and  O_21
REMARK                            x       y       z     vdW  Elec       q    Type
REMARK                         _______ _______ _______ _____ _____    ______ ____
ROOT
ATOM      1  C   UNL     1      -0.425  -4.365  -0.126  0.00  0.00    +0.251 C 
ATOM      2  O   UNL     1       0.125  -3.298   0.065  0.00  0.00    -0.270 OA
ATOM      3  N   UNL     1      -0.318  -4.974  -1.323  0.00  0.00    -0.264 N 
ATOM      4  C   UNL     1      -0.553  -6.419  -1.450  0.00  0.00    +0.114 C 
ATOM      5  C   UNL     1       0.561  -6.998  -2.333  0.00  0.00    +0.024 C 
ATOM      6  C   UNL     1       0.456  -6.382  -3.727  0.00  0.00    +0.038 C 
ATOM      7  C   UNL     1       0.397  -4.880  -3.637  0.00  0.00    -0.022 A 
ATOM      8  C   UNL     1       0.014  -4.238  -2.470  0.00  0.00    +0.081 A 
ATOM      9  C   UNL     1      -0.040  -2.845  -2.423  0.00  0.00    +0.138 A 
ATOM     10  C   UNL     1       0.288  -2.103  -3.546  0.00  0.00    +0.047 A 
ATOM     11  C   UNL     1       0.667  -2.745  -4.709  0.00  0.00    +0.004 A 
ATOM     12  C   UNL     1       0.730  -4.128  -4.753  0.00  0.00    +0.006 A 
ENDROOT
BRANCH   1  17
ATOM     13  C   UNL     1      -3.498  -6.822   4.079  0.00  0.00    +0.047 C 
ATOM     14  C   UNL     1      -2.692  -6.178   2.980  0.00  0.00    -0.009 A 
ATOM     15  C   UNL     1      -3.076  -6.338   1.661  0.00  0.00    +0.007 A 
ATOM     16  C   UNL     1      -2.345  -5.751   0.649  0.00  0.00    +0.013 A 
ATOM     17  C   UNL     1      -1.212  -4.994   0.956  0.00  0.00    +0.041 A 
ATOM     18  C   UNL     1      -0.826  -4.834   2.287  0.00  0.00    +0.058 A 
ATOM     19  C   UNL     1      -1.571  -5.423   3.295  0.00  0.00    +0.120 A 
BRANCH  19  20
ATOM     20  O   UNL     1      -1.202  -5.265   4.593  0.00  0.00    -0.506 OA
ATOM     21  H   UNL     1      -0.592  -5.943   4.914  0.00  0.00    +0.292 HD
ENDBRANCH  19  20
ENDBRANCH   1  17
BRANCH   9  22
ATOM     22  O   UNL     1      -0.414  -2.217  -1.277  0.00  0.00    -0.505 OA
ATOM     23  H   UNL     1       0.314  -1.784  -0.810  0.00  0.00    +0.292 HD
ENDBRANCH   9  22
TORSDOF 3
