REMARK  Name = ZINC45873455
REMARK  12 active torsions:
REMARK  status: ('A' for Active; 'I' for Inactive)
REMARK    1  A    between atoms: C_1  and  C_2
REMARK    2  A    between atoms: C_5  and  N_8
REMARK    3  A    between atoms: C_9  and  C_11
REMARK    4  A    between atoms: C_11  and  N_12
REMARK    5  A    between atoms: N_12  and  C_13
REMARK    6  A    between atoms: N_12  and  C_17
REMARK    7  A    between atoms: C_13  and  C_14
REMARK    8  A    between atoms: C_14  and  O_15
REMARK    9  A    between atoms: O_15  and  C_16
REMARK   10  A    between atoms: C_18  and  N_33
REMARK   11  A    between atoms: N_19  and  C_26
REMARK   12  A    between atoms: C_26  and  C_27
REMARK                            x       y       z     vdW  Elec       q    Type
REMARK                         _______ _______ _______ _____ _____    ______ ____
ROOT
ATOM      1  C   UNL     1      -2.414  -4.424   6.287  0.00  0.00    +0.134 A 
ATOM      2  C   UNL     1      -3.774  -4.291   6.356  0.00  0.00    +0.127 A 
ATOM      3  N   UNL     1      -4.566  -5.416   6.299  0.00  0.00    -0.276 N 
ATOM      4  C   UNL     1      -4.009  -6.635   6.175  0.00  0.00    +0.331 A 
ATOM      5  O   UNL     1      -4.724  -7.617   6.125  0.00  0.00    -0.246 OA
ATOM      6  N   UNL     1      -2.674  -6.783   6.105  0.00  0.00    -0.273 N 
ATOM      7  H   UNL     1      -2.293  -7.671   6.016  0.00  0.00    +0.173 HD
ATOM      8  C   UNL     1      -1.860  -5.710   6.152  0.00  0.00    +0.277 A 
ATOM      9  O   UNL     1      -0.651  -5.853   6.082  0.00  0.00    -0.266 OA
ENDROOT
BRANCH   2  10
ATOM     10  N   UNL     1      -4.345  -3.046   6.483  0.00  0.00    -0.343 N 
ATOM     11  H   UNL     1      -3.788  -2.252   6.460  0.00  0.00    +0.144 HD
ATOM     12  H   UNL     1      -5.305  -2.961   6.596  0.00  0.00    +0.144 HD
ENDBRANCH   2  10
BRANCH   1  13
ATOM     13  N   UNL     1      -1.578  -3.285   6.344  0.00  0.00    -0.312 N 
BRANCH  13  14
ATOM     14  C   UNL     1      -1.623  -2.289   5.271  0.00  0.00    +0.201 C 
BRANCH  14  16
ATOM     15  N   UNL     1      -0.392  -1.794   3.183  0.00  0.00    -0.311 N 
ATOM     16  C   UNL     1      -0.541  -2.584   4.264  0.00  0.00    +0.231 C 
ATOM     17  O   UNL     1       0.196  -3.534   4.428  0.00  0.00    -0.274 OA
ATOM     18  H   UNL     1      -0.981  -1.034   3.053  0.00  0.00    +0.149 HD
BRANCH  15  23
ATOM     19  C   UNL     1       1.218   2.161   1.558  0.00  0.00    +0.007 C 
ATOM     20  C   UNL     1       1.398   0.647   1.433  0.00  0.00    -0.014 C 
ATOM     21  C   UNL     1       0.085   0.013   0.971  0.00  0.00    +0.005 C 
ATOM     22  C   UNL     1       0.265  -1.501   0.846  0.00  0.00    +0.022 C 
ATOM     23  C   UNL     1       0.660  -2.081   2.205  0.00  0.00    +0.073 C 
ATOM     24  C   UNL     1       1.974  -1.447   2.668  0.00  0.00    +0.022 C 
ATOM     25  C   UNL     1       1.793   0.067   2.793  0.00  0.00    +0.005 C 
ENDBRANCH  15  23
ENDBRANCH  14  16
ENDBRANCH  13  14
BRANCH  13  26
ATOM     26  C   UNL     1      -0.666  -3.101   7.476  0.00  0.00    +0.134 C 
BRANCH  26  27
ATOM     27  C   UNL     1      -1.331  -2.210   8.527  0.00  0.00    +0.178 C 
BRANCH  27  28
ATOM     28  O   UNL     1      -2.473  -2.880   9.065  0.00  0.00    -0.381 OA
ATOM     29  C   UNL     1      -3.170  -2.129  10.062  0.00  0.00    +0.194 C 
ENDBRANCH  27  28
ENDBRANCH  26  27
ENDBRANCH  13  26
ENDBRANCH   1  13
BRANCH   3  30
ATOM     30  C   UNL     1      -6.023  -5.285   6.373  0.00  0.00    +0.163 C 
BRANCH  30  31
ATOM     31  C   UNL     1      -6.584  -5.125   4.984  0.00  0.00    -0.028 A 
ATOM     32  C   UNL     1      -6.725  -3.863   4.437  0.00  0.00    +0.005 A 
ATOM     33  C   UNL     1      -7.240  -3.715   3.162  0.00  0.00    +0.000 A 
ATOM     34  C   UNL     1      -7.614  -4.830   2.434  0.00  0.00    +0.000 A 
ATOM     35  C   UNL     1      -7.472  -6.091   2.981  0.00  0.00    +0.000 A 
ATOM     36  C   UNL     1      -6.953  -6.239   4.254  0.00  0.00    +0.005 A 
ENDBRANCH  30  31
ENDBRANCH   3  30
TORSDOF 10
