REMARK  Name = ZINC31275152
REMARK  5 active torsions:
REMARK  status: ('A' for Active; 'I' for Inactive)
REMARK    1  A    between atoms: C_3  and  N_11
REMARK    2  A    between atoms: C_5  and  N_7
REMARK    3  A    between atoms: C_12  and  C_14
REMARK    4  A    between atoms: N_17  and  C_19
REMARK    5  A    between atoms: C_23  and  N_25
REMARK                            x       y       z     vdW  Elec       q    Type
REMARK                         _______ _______ _______ _____ _____    ______ ____
ROOT
ATOM      1  N   UNL     1       2.880   8.238   0.018  0.00  0.00    -0.280 N 
ATOM      2  C   UNL     1       1.556   8.420   0.185  0.00  0.00    +0.268 C 
ATOM      3  O   UNL     1       1.111   9.540   0.343  0.00  0.00    -0.268 OA
ATOM      4  H   UNL     1       3.292   7.220  -0.042  0.00  0.00    +0.155 HD
ENDROOT
BRANCH   1   7
ATOM      5  C   UNL     1       5.865  10.365   0.326  0.00  0.00    +0.004 A 
ATOM      6  C   UNL     1       5.024   9.273   0.423  0.00  0.00    +0.023 A 
ATOM      7  C   UNL     1       3.731   9.343  -0.081  0.00  0.00    +0.035 A 
ATOM      8  C   UNL     1       3.287  10.510  -0.688  0.00  0.00    +0.046 A 
ATOM      9  C   UNL     1       4.132  11.606  -0.779  0.00  0.00    +0.037 A 
ATOM     10  C   UNL     1       5.424  11.529  -0.273  0.00  0.00    +0.023 A 
BRANCH   9  11
ATOM     11  N   UNL     1       3.687  12.786  -1.385  0.00  0.00    -0.270 N 
ATOM     12  C   UNL     1       4.539  13.532  -2.115  0.00  0.00    +0.301 C 
ATOM     13  O   UNL     1       5.714  13.226  -2.179  0.00  0.00    -0.253 OA
ATOM     14  N   UNL     1       4.089  14.618  -2.775  0.00  0.00    -0.313 N 
ATOM     15  H   UNL     1       2.640  13.104  -1.266  0.00  0.00    +0.156 HD
ATOM     16  H   UNL     1       4.784  15.227  -3.371  0.00  0.00    +0.146 HD
ATOM     17  H   UNL     1       3.026  14.895  -2.717  0.00  0.00    +0.146 HD
ENDBRANCH   9  11
ENDBRANCH   1   7
BRANCH   2  18
ATOM     18  C   UNL     1       0.644   7.259   0.177  0.00  0.00    +0.148 A 
ATOM     19  C   UNL     1      -0.762   7.292   0.339  0.00  0.00    +0.054 A 
ATOM     20  C   UNL     1      -1.167   6.003   0.262  0.00  0.00    +0.115 A 
ATOM     21  N   UNL     1      -0.056   5.246   0.064  0.00  0.00    -0.239 N 
ATOM     22  N   UNL     1       0.987   5.995   0.023  0.00  0.00    -0.162 NA
BRANCH  21  23
ATOM     23  C   UNL     1      -0.049   3.851  -0.070  0.00  0.00    +0.068 A 
ATOM     24  C   UNL     1      -1.239   3.139  -0.003  0.00  0.00    +0.028 A 
ATOM     25  C   UNL     1      -1.229   1.765  -0.140  0.00  0.00    +0.004 A 
ATOM     26  C   UNL     1      -0.034   1.097  -0.334  0.00  0.00    +0.033 A 
ATOM     27  C   UNL     1       1.153   1.803  -0.402  0.00  0.00    +0.128 A 
ATOM     28  C   UNL     1       1.149   3.178  -0.270  0.00  0.00    +0.060 A 
BRANCH  27  29
ATOM     29  N   UNL     1       2.429   1.084  -0.615  0.00  0.00    +0.056 N 
ATOM     30  O   UNL     1       2.433  -0.129  -0.730  0.00  0.00    -0.126 OA
ATOM     31  O   UNL     1       3.475   1.705  -0.674  0.00  0.00    -0.126 OA
ENDBRANCH  27  29
ENDBRANCH  21  23
ENDBRANCH   2  18
TORSDOF 5
