REMARK  Name = ZINC25047577
REMARK  8 active torsions:
REMARK  status: ('A' for Active; 'I' for Inactive)
REMARK    1  A    between atoms: C_1  and  C_2
REMARK    2  A    between atoms: C_5  and  C_29
REMARK    3  A    between atoms: C_6  and  N_8
REMARK    4  A    between atoms: C_9  and  C_11
REMARK    5  A    between atoms: C_11  and  C_12
REMARK    6  A    between atoms: C_12  and  C_13
REMARK    7  A    between atoms: C_13  and  C_14
REMARK    8  A    between atoms: C_14  and  C_15
REMARK                            x       y       z     vdW  Elec       q    Type
REMARK                         _______ _______ _______ _____ _____    ______ ____
ROOT
ATOM      1  C   UNL     1      -0.043   1.526  -0.004  0.00  0.00    +0.002 C 
ENDROOT
BRANCH   1   2
ATOM      2  C   UNL     1      -0.749   2.019   1.260  0.00  0.00    +0.009 C 
BRANCH   2   3
ATOM      3  C   UNL     1      -0.769   3.549   1.270  0.00  0.00    +0.096 C 
BRANCH   3   5
ATOM      4  N   UNL     1      -1.600   5.357   2.739  0.00  0.00    -0.285 N 
ATOM      5  C   UNL     1      -1.464   4.035   2.516  0.00  0.00    +0.217 C 
ATOM      6  O   UNL     1      -1.900   3.236   3.317  0.00  0.00    -0.275 OA
ATOM      7  H   UNL     1      -1.126   6.081   2.061  0.00  0.00    +0.155 HD
BRANCH   4  13
ATOM      8  C   UNL     1      -5.152   4.584   6.049  0.00  0.00    +0.044 C 
ATOM      9  C   UNL     1      -4.072   5.454   5.459  0.00  0.00    -0.049 A 
ATOM     10  C   UNL     1      -3.817   6.700   6.000  0.00  0.00    +0.004 A 
ATOM     11  C   UNL     1      -2.828   7.502   5.462  0.00  0.00    +0.005 A 
ATOM     12  C   UNL     1      -2.087   7.057   4.384  0.00  0.00    -0.029 A 
ATOM     13  C   UNL     1      -2.345   5.808   3.835  0.00  0.00    +0.037 A 
ATOM     14  C   UNL     1      -3.339   5.005   4.378  0.00  0.00    +0.027 A 
ATOM     15  C   UNL     1      -1.005   7.929   3.801  0.00  0.00    +0.045 C 
ENDBRANCH   4  13
ENDBRANCH   3   5
ENDBRANCH   2   3
ENDBRANCH   1   2
BRANCH   1  16
ATOM     16  C   UNL     1      -0.024  -0.004  -0.014  0.00  0.00    +0.028 C 
BRANCH  16  17
ATOM     17  C   UNL     1       0.682  -0.497  -1.278  0.00  0.00    +0.152 C 
ATOM     18  C   UNL     1       0.752  -2.003  -1.311  0.00  0.00    +0.120 C 
ATOM     19  C   UNL     1      -0.608  -2.551  -1.843  0.00  0.00    +0.117 C 
ATOM     20  C   UNL     1      -0.784  -1.927  -3.226  0.00  0.00    +0.190 C 
ATOM     21  S   UNL     1      -0.342  -0.168  -2.788  0.00  0.00    -0.025 S 
ATOM     22  O   UNL     1      -1.518   0.532  -2.408  0.00  0.00    -0.174 OA
ATOM     23  O   UNL     1       0.492   0.364  -3.808  0.00  0.00    -0.174 OA
ATOM     24  N   UNL     1      -0.375  -3.966  -1.667  0.00  0.00    -0.293 N 
ATOM     25  C   UNL     1       0.420  -4.069  -0.560  0.00  0.00    +0.300 C 
ATOM     26  O   UNL     1       0.616  -5.111   0.034  0.00  0.00    -0.253 OA
ATOM     27  N   UNL     1       0.971  -2.871  -0.193  0.00  0.00    -0.293 N 
ATOM     28  H   UNL     1      -0.819  -4.688  -2.369  0.00  0.00    +0.151 HD
ATOM     29  H   UNL     1       1.492  -2.497   0.701  0.00  0.00    +0.151 HD
ENDBRANCH  16  17
ENDBRANCH   1  16
TORSDOF 6
