REMARK  Name = ZINC19129309
REMARK  5 active torsions:
REMARK  status: ('A' for Active; 'I' for Inactive)
REMARK    1  A    between atoms: C_1  and  C_2
REMARK    2  A    between atoms: C_6  and  C_12
REMARK    3  A    between atoms: C_8  and  N_11
REMARK    4  A    between atoms: N_17  and  C_19
REMARK    5  A    between atoms: C_19  and  C_20
REMARK                            x       y       z     vdW  Elec       q    Type
REMARK                         _______ _______ _______ _____ _____    ______ ____
ROOT
ATOM      1  C   UNL     1      -0.018   1.503   0.010  0.00  0.00    +0.067 C 
ATOM      2  C   UNL     1       0.002  -0.004   0.002  0.00  0.00    +0.063 A 
ATOM      3  C   UNL     1       0.008  -0.804  -1.132  0.00  0.00    +0.073 A 
ATOM      4  C   UNL     1       0.028  -2.127  -0.713  0.00  0.00    +0.158 A 
ATOM      5  N   UNL     1       0.041  -3.290  -1.381  0.00  0.00    -0.232 NA
ATOM      6  C   UNL     1       0.060  -4.439  -0.741  0.00  0.00    +0.051 A 
ATOM      7  C   UNL     1       0.066  -4.469   0.653  0.00  0.00    +0.067 A 
ATOM      8  C   UNL     1       0.053  -3.292   1.351  0.00  0.00    +0.122 A 
ATOM      9  N   UNL     1       0.034  -2.111   0.658  0.00  0.00    -0.201 N 
ATOM     10  N   UNL     1       0.023  -0.773   1.067  0.00  0.00    -0.169 NA
ENDROOT
BRANCH   6  11
ATOM     11  C   UNL     1       0.074  -5.729  -1.519  0.00  0.00    +0.052 C 
ATOM     12  C   UNL     1      -1.224  -6.499  -1.256  0.00  0.00    +0.012 C 
ATOM     13  C   UNL     1      -1.228  -7.779  -2.095  0.00  0.00    +0.016 C 
ATOM     14  C   UNL     1      -1.079  -7.414  -3.574  0.00  0.00    +0.085 C 
ATOM     15  N   UNL     1       0.177  -6.680  -3.774  0.00  0.00    -0.298 NA
ATOM     16  C   UNL     1       0.186  -5.423  -3.014  0.00  0.00    +0.094 C 
BRANCH  15  17
ATOM     17  C   UNL     1       0.421  -6.434  -5.202  0.00  0.00    +0.119 C 
BRANCH  17  18
ATOM     18  C   UNL     1       0.657  -7.746  -5.905  0.00  0.00    -0.033 A 
ATOM     19  C   UNL     1       1.938  -8.256  -6.005  0.00  0.00    +0.005 A 
ATOM     20  C   UNL     1       2.154  -9.459  -6.650  0.00  0.00    +0.000 A 
ATOM     21  C   UNL     1       1.089 -10.153  -7.194  0.00  0.00    +0.000 A 
ATOM     22  C   UNL     1      -0.192  -9.643  -7.093  0.00  0.00    +0.000 A 
ATOM     23  C   UNL     1      -0.409  -8.441  -6.444  0.00  0.00    +0.005 A 
ENDBRANCH  17  18
ENDBRANCH  15  17
ENDBRANCH   6  11
BRANCH   8  24
ATOM     24  N   UNL     1       0.059  -3.294   2.729  0.00  0.00    -0.343 N 
ATOM     25  H   UNL     1       0.073  -4.135   3.213  0.00  0.00    +0.144 HD
ATOM     26  H   UNL     1       0.050  -2.455   3.216  0.00  0.00    +0.144 HD
ENDBRANCH   8  24
TORSDOF 4
