REMARK  Name = ZINC06300630
REMARK  8 active torsions:
REMARK  status: ('A' for Active; 'I' for Inactive)
REMARK    1  A    between atoms: C_1  and  C_2
REMARK    2  A    between atoms: C_4  and  C_33
REMARK    3  A    between atoms: C_9  and  C_14
REMARK    4  A    between atoms: C_14  and  C_16
REMARK    5  A    between atoms: C_14  and  N_66
REMARK    6  A    between atoms: N_20  and  C_21
REMARK    7  A    between atoms: C_26  and  N_66
REMARK    8  A    between atoms: C_27  and  N_66
REMARK                            x       y       z     vdW  Elec       q    Type
REMARK                         _______ _______ _______ _____ _____    ______ ____
ROOT
ATOM      1  C   UNL     1       1.515  -2.415  -2.482  0.00  0.00    +0.039 C 
ENDROOT
BRANCH   1  10
ATOM      2  C   UNL     1       4.785  -9.111  -2.188  0.00  0.00    +0.044 C 
ATOM      3  C   UNL     1       3.546  -8.255  -2.237  0.00  0.00    -0.050 A 
ATOM      4  C   UNL     1       2.295  -8.855  -2.234  0.00  0.00    +0.008 A 
ATOM      5  C   UNL     1       1.148  -8.091  -2.278  0.00  0.00    -0.026 A 
ATOM      6  C   UNL     1       1.244  -6.704  -2.327  0.00  0.00    +0.052 A 
ATOM      7  C   UNL     1       2.515  -6.099  -2.331  0.00  0.00    -0.001 A 
ATOM      8  C   UNL     1       3.665  -6.895  -2.285  0.00  0.00    +0.013 A 
ATOM      9  C   UNL     1       2.606  -4.639  -2.389  0.00  0.00    +0.017 A 
ATOM     10  C   UNL     1       1.457  -3.920  -2.427  0.00  0.00    +0.011 A 
ATOM     11  C   UNL     1       0.207  -4.576  -2.421  0.00  0.00    +0.251 A 
ATOM     12  O   UNL     1      -0.813  -3.910  -2.461  0.00  0.00    -0.268 OA
ATOM     13  N   UNL     1       0.114  -5.916  -2.373  0.00  0.00    -0.322 N 
ATOM     14  H   UNL     1      -0.761  -6.335  -2.371  0.00  0.00    +0.169 HD
ATOM     15  C   UNL     1      -0.204  -8.756  -2.273  0.00  0.00    +0.046 C 
ENDBRANCH   1  10
BRANCH   1  16
ATOM     16  C   UNL     1       1.064  -1.945  -3.841  0.00  0.00    +0.143 A 
ATOM     17  N   UNL     1      -0.134  -2.076  -4.357  0.00  0.00    -0.115 NA
ATOM     18  N   UNL     1      -0.121  -1.545  -5.531  0.00  0.00    -0.023 NA
ATOM     19  N   UNL     1       1.055  -1.087  -5.781  0.00  0.00    -0.044 NA
ATOM     20  N   UNL     1       1.815  -1.314  -4.763  0.00  0.00    -0.227 N 
BRANCH  20  21
ATOM     21  C   UNL     1       3.229  -0.953  -4.635  0.00  0.00    +0.111 C 
ATOM     22  C   UNL     1       3.404   0.570  -4.813  0.00  0.00    +0.027 C 
ATOM     23  C   UNL     1       4.739   0.710  -5.588  0.00  0.00    +0.002 C 
ATOM     24  C   UNL     1       4.692  -0.486  -6.571  0.00  0.00    +0.002 C 
ATOM     25  C   UNL     1       4.048  -1.624  -5.752  0.00  0.00    +0.027 C 
ENDBRANCH  20  21
ENDBRANCH   1  16
BRANCH   1  27
ATOM     26  C   UNL     1       0.236  -0.479  -1.790  0.00  0.00    -0.094 C 
ATOM     27  N   UNL     1       0.609  -1.869  -1.451  0.00  0.00    +0.389 N 
ATOM     28  H   UNL     1      -0.242  -2.443  -1.416  0.00  0.00    -0.080 HD
BRANCH  27  29
ATOM     29  C   UNL     1       1.267  -1.907  -0.128  0.00  0.00    -0.068 C 
ATOM     30  C   UNL     1       0.320  -1.314   0.917  0.00  0.00    -0.015 C 
ATOM     31  C   UNL     1       0.981  -1.370   2.295  0.00  0.00    -0.002 C 
ATOM     32  C   UNL     1       1.289  -2.825   2.654  0.00  0.00    -0.000 C 
ATOM     33  C   UNL     1       2.237  -3.418   1.609  0.00  0.00    -0.002 C 
ATOM     34  C   UNL     1       1.575  -3.362   0.231  0.00  0.00    -0.015 C 
ENDBRANCH  27  29
ENDBRANCH   1  27
TORSDOF 5
