REMARK  Name = ZINC12324018
REMARK  5 active torsions:
REMARK  status: ('A' for Active; 'I' for Inactive)
REMARK    1  A    between atoms: C_8  and  C_11
REMARK    2  A    between atoms: N_13  and  C_14
REMARK    3  A    between atoms: C_14  and  C_15
REMARK    4  A    between atoms: C_15  and  C_16
REMARK    5  A    between atoms: C_16  and  N_18
REMARK                            x       y       z     vdW  Elec       q    Type
REMARK                         _______ _______ _______ _____ _____    ______ ____
ROOT
ATOM      1  C   UNL     1       5.838  -4.574  -0.042  0.00  0.00    +0.114 C 
ENDROOT
BRANCH   1   4
ATOM      2  C   UNL     1       3.716  -3.378   0.004  0.00  0.00    +0.260 C 
ATOM      3  O   UNL     1       3.145  -4.452   0.013  0.00  0.00    -0.269 OA
ATOM      4  N   UNL     1       5.063  -3.332  -0.023  0.00  0.00    -0.310 N 
ATOM      5  H   UNL     1       5.518  -2.475  -0.030  0.00  0.00    +0.149 HD
BRANCH   2  13
ATOM      6  C   UNL     1      -0.009   1.369   0.094  0.00  0.00    +0.001 A 
ATOM      7  C   UNL     1       1.178   2.091   0.073  0.00  0.00    +0.002 A 
ATOM      8  C   UNL     1       2.393   1.445   0.046  0.00  0.00    +0.026 A 
ATOM      9  C   UNL     1       2.437   0.053   0.041  0.00  0.00    +0.047 A 
ATOM     10  C   UNL     1       1.232  -0.677   0.063  0.00  0.00    +0.000 A 
ATOM     11  C   UNL     1       0.009   0.005   0.089  0.00  0.00    +0.010 A 
ATOM     12  C   UNL     1       1.581  -2.049   0.051  0.00  0.00    +0.040 A 
ATOM     13  C   UNL     1       2.937  -2.131   0.023  0.00  0.00    +0.103 A 
ATOM     14  N   UNL     1       3.468  -0.855   0.017  0.00  0.00    -0.351 N 
ATOM     15  H   UNL     1       4.413  -0.637  -0.002  0.00  0.00    +0.166 HD
ENDBRANCH   2  13
ENDBRANCH   1   4
BRANCH   1  16
ATOM     16  C   UNL     1       7.332  -4.243  -0.072  0.00  0.00    +0.116 C 
BRANCH  16  17
ATOM     17  C   UNL     1       8.130  -5.521  -0.091  0.00  0.00    +0.241 C 
ATOM     18  O   UNL     1       7.559  -6.595  -0.083  0.00  0.00    -0.274 OA
BRANCH  17  19
ATOM     19  N   UNL     1       9.458  -5.475  -0.118  0.00  0.00    -0.147 NA
ATOM     20  C   UNL     1      10.164  -6.599  -0.030  0.00  0.00    +0.198 A 
ATOM     21  N   UNL     1       9.647  -7.856  -0.026  0.00  0.00    -0.326 N 
ATOM     22  H   UNL     1       8.706  -8.083  -0.086  0.00  0.00    +0.169 HD
ATOM     23  C   UNL     1      10.699  -8.760   0.080  0.00  0.00    +0.065 A 
ATOM     24  C   UNL     1      10.755 -10.146   0.131  0.00  0.00    +0.028 A 
ATOM     25  C   UNL     1      11.976 -10.781   0.240  0.00  0.00    +0.002 A 
ATOM     26  C   UNL     1      13.145 -10.041   0.299  0.00  0.00    +0.002 A 
ATOM     27  C   UNL     1      13.100  -8.663   0.249  0.00  0.00    +0.028 A 
ATOM     28  C   UNL     1      11.878  -8.014   0.140  0.00  0.00    +0.065 A 
ATOM     29  N   UNL     1      11.518  -6.673   0.063  0.00  0.00    -0.326 N 
ATOM     30  H   UNL     1      12.129  -5.919   0.077  0.00  0.00    +0.169 HD
ENDBRANCH  17  19
ENDBRANCH  16  17
ENDBRANCH   1  16
TORSDOF 5
