REMARK  Name = ZINC67267136
REMARK  11 active torsions:
REMARK  status: ('A' for Active; 'I' for Inactive)
REMARK    1  A    between atoms: C_1  and  C_2
REMARK    2  A    between atoms: C_2  and  N_3
REMARK    3  A    between atoms: N_6  and  C_7
REMARK    4  A    between atoms: C_7  and  C_12
REMARK    5  A    between atoms: N_14  and  C_15
REMARK    6  A    between atoms: C_15  and  C_16
REMARK    7  A    between atoms: C_16  and  C_18
REMARK    8  A    between atoms: C_16  and  N_25
REMARK    9  A    between atoms: C_21  and  C_24
REMARK   10  A    between atoms: N_25  and  C_26
REMARK   11  A    between atoms: N_25  and  C_27
REMARK                            x       y       z     vdW  Elec       q    Type
REMARK                         _______ _______ _______ _____ _____    ______ ____
ROOT
ATOM      1  C   UNL     1       2.312  -4.339  -1.427  0.00  0.00    +0.237 C 
ATOM      2  O   UNL     1       3.214  -5.112  -1.669  0.00  0.00    -0.273 OA
ATOM      3  N   UNL     1       2.083  -3.948  -0.158  0.00  0.00    -0.315 N 
ATOM      4  H   UNL     1       1.318  -3.387   0.046  0.00  0.00    +0.149 HD
ENDROOT
BRANCH   1   5
ATOM      5  C   UNL     1       1.448  -3.814  -2.545  0.00  0.00    +0.112 C 
ATOM      6  C   UNL     1       1.463  -4.799  -3.732  0.00  0.00    +0.035 C 
ATOM      7  C   UNL     1       1.446  -3.886  -4.983  0.00  0.00    +0.003 C 
ATOM      8  C   UNL     1       2.356  -2.706  -4.558  0.00  0.00    +0.003 C 
ATOM      9  C   UNL     1       2.016  -2.484  -3.070  0.00  0.00    +0.035 C 
BRANCH   5  13
ATOM     10  N   UNL     1      -1.942  -4.519  -1.312  0.00  0.00    -0.300 N 
ATOM     11  C   UNL     1      -0.648  -4.680  -1.655  0.00  0.00    +0.300 C 
ATOM     12  O   UNL     1      -0.135  -5.780  -1.590  0.00  0.00    -0.253 OA
ATOM     13  N   UNL     1       0.076  -3.622  -2.070  0.00  0.00    -0.285 N 
ATOM     14  H   UNL     1      -2.371  -3.657  -1.432  0.00  0.00    +0.150 HD
ATOM     15  H   UNL     1      -0.312  -2.732  -2.054  0.00  0.00    +0.151 HD
BRANCH  10  17
ATOM     16  C   UNL     1      -4.090  -5.166  -0.340  0.00  0.00    +0.024 C 
ATOM     17  C   UNL     1      -2.698  -5.644  -0.758  0.00  0.00    +0.102 C 
ENDBRANCH  10  17
ENDBRANCH   5  13
ENDBRANCH   1   5
BRANCH   3  18
ATOM     18  C   UNL     1       2.988  -4.370   0.914  0.00  0.00    +0.093 C 
BRANCH  18  19
ATOM     19  C   UNL     1       2.442  -3.891   2.261  0.00  0.00    -0.021 C 
BRANCH  19  20
ATOM     20  C   UNL     1       1.116  -4.554   2.530  0.00  0.00    -0.059 A 
ATOM     21  C   UNL     1       1.077  -5.847   3.018  0.00  0.00    +0.002 A 
ATOM     22  C   UNL     1      -0.140  -6.455   3.265  0.00  0.00    +0.003 A 
ATOM     23  C   UNL     1      -1.317  -5.771   3.024  0.00  0.00    -0.050 A 
ATOM     24  C   UNL     1      -1.277  -4.478   2.537  0.00  0.00    +0.003 A 
ATOM     25  C   UNL     1      -0.060  -3.868   2.294  0.00  0.00    +0.002 A 
ATOM     26  C   UNL     1      -2.643  -6.435   3.293  0.00  0.00    +0.044 C 
ENDBRANCH  19  20
BRANCH  19  27
ATOM     27  N   UNL     1       3.391  -4.242   3.326  0.00  0.00    +0.382 N 
ATOM     28  C   UNL     1       4.647  -3.507   3.125  0.00  0.00    -0.096 C 
ATOM     29  C   UNL     1       2.817  -3.884   4.630  0.00  0.00    -0.096 C 
ATOM     30  H   UNL     1       3.574  -5.234   3.300  0.00  0.00    -0.082 HD
ENDBRANCH  19  27
ENDBRANCH  18  19
ENDBRANCH   3  18
TORSDOF 7
