REMARK  Name = ZINC66045287
REMARK  6 active torsions:
REMARK  status: ('A' for Active; 'I' for Inactive)
REMARK    1  A    between atoms: C_1  and  N_2
REMARK    2  A    between atoms: C_4  and  C_7
REMARK    3  A    between atoms: C_9  and  C_10
REMARK    4  A    between atoms: N_12  and  N_13
REMARK    5  A    between atoms: C_17  and  C_25
REMARK    6  A    between atoms: N_18  and  C_19
REMARK                            x       y       z     vdW  Elec       q    Type
REMARK                         _______ _______ _______ _____ _____    ______ ____
ROOT
ATOM      1  N   UNL     1       3.203  -6.421  -3.798  0.00  0.00    -0.232 N 
ATOM      2  C   UNL     1       4.274  -7.295  -3.742  0.00  0.00    +0.238 A 
ATOM      3  N   UNL     1       4.956  -7.624  -2.668  0.00  0.00    -0.111 NA
ATOM      4  N   UNL     1       5.885  -8.459  -2.972  0.00  0.00    -0.127 NA
ATOM      5  C   UNL     1       5.854  -8.715  -4.259  0.00  0.00    +0.170 A 
ATOM      6  N   UNL     1       4.817  -7.981  -4.792  0.00  0.00    -0.262 N 
ATOM      7  H   UNL     1       2.762  -6.248  -4.645  0.00  0.00    +0.173 HD
ENDROOT
BRANCH   6   8
ATOM      8  C   UNL     1       4.407  -7.944  -6.132  0.00  0.00    +0.051 A 
ATOM      9  C   UNL     1       3.879  -9.081  -6.730  0.00  0.00    +0.026 A 
ATOM     10  C   UNL     1       3.475  -9.041  -8.050  0.00  0.00    +0.002 A 
ATOM     11  C   UNL     1       3.596  -7.870  -8.776  0.00  0.00    +0.000 A 
ATOM     12  C   UNL     1       4.121  -6.737  -8.184  0.00  0.00    +0.002 A 
ATOM     13  C   UNL     1       4.521  -6.769  -6.862  0.00  0.00    +0.026 A 
ENDBRANCH   6   8
BRANCH   5  14
ATOM     14  C   UNL     1       6.757  -9.624  -4.995  0.00  0.00    +0.020 A 
ATOM     15  C   UNL     1       6.826  -9.567  -6.388  0.00  0.00    +0.011 A 
ATOM     16  C   UNL     1       7.671 -10.419  -7.070  0.00  0.00    +0.001 A 
ATOM     17  C   UNL     1       8.449 -11.328  -6.376  0.00  0.00    +0.000 A 
ATOM     18  C   UNL     1       8.386 -11.390  -4.995  0.00  0.00    +0.001 A 
ATOM     19  C   UNL     1       7.549 -10.540  -4.301  0.00  0.00    +0.011 A 
ENDBRANCH   5  14
BRANCH   1  22
ATOM     20  C   UNL     1       1.710  -4.935  -2.687  0.00  0.00    +0.233 C 
ATOM     21  O   UNL     1       1.159  -4.719  -3.746  0.00  0.00    -0.274 OA
ATOM     22  N   UNL     1       2.754  -5.786  -2.632  0.00  0.00    -0.234 N 
ATOM     23  H   UNL     1       3.195  -5.959  -1.786  0.00  0.00    +0.173 HD
BRANCH  20  26
ATOM     24  C   UNL     1       0.039  -3.298  -1.561  0.00  0.00    +0.035 C 
ATOM     25  C   UNL     1      -0.143  -4.661  -0.890  0.00  0.00    +0.022 C 
ATOM     26  C   UNL     1       1.228  -4.253  -1.433  0.00  0.00    +0.085 C 
BRANCH  24  30
ATOM     27  C   UNL     1      -0.018   1.461   0.010  0.00  0.00    +0.172 C 
ATOM     28  N   UNL     1       0.002  -0.004   0.002  0.00  0.00    -0.274 N 
ATOM     29  C   UNL     1       0.008  -0.792  -1.094  0.00  0.00    +0.112 A 
ATOM     30  C   UNL     1       0.027  -2.079  -0.676  0.00  0.00    -0.006 A 
ATOM     31  C   UNL     1       0.034  -2.078   0.723  0.00  0.00    +0.138 A 
ATOM     32  N   UNL     1       0.025  -0.834   1.130  0.00  0.00    -0.180 NA
ENDBRANCH  24  30
ENDBRANCH  20  26
ENDBRANCH   1  22
TORSDOF 5
