REMARK  Name = ZINC19406892
REMARK  4 active torsions:
REMARK  status: ('A' for Active; 'I' for Inactive)
REMARK    1  A    between atoms: C_1  and  C_2
REMARK    2  A    between atoms: N_5  and  C_11
REMARK    3  A    between atoms: C_7  and  C_10
REMARK    4  A    between atoms: C_17  and  N_19
REMARK                            x       y       z     vdW  Elec       q    Type
REMARK                         _______ _______ _______ _____ _____    ______ ____
ROOT
ATOM      1  C   UNL     1      -2.780  -2.576   0.041  0.00  0.00    +0.074 C 
ATOM      2  C   UNL     1      -2.728  -4.104  -0.022  0.00  0.00    +0.020 C 
ATOM      3  C   UNL     1      -4.151  -4.662  -0.077  0.00  0.00    +0.002 C 
ATOM      4  C   UNL     1      -4.862  -4.124  -1.321  0.00  0.00    +0.002 C 
ATOM      5  C   UNL     1      -4.914  -2.596  -1.258  0.00  0.00    +0.020 C 
ATOM      6  C   UNL     1      -3.490  -2.038  -1.203  0.00  0.00    +0.068 C 
ENDROOT
BRANCH   1  10
ATOM      7  C   UNL     1       0.014   1.468   0.283  0.00  0.00    +0.039 C 
ATOM      8  C   UNL     1       0.017  -0.056   0.144  0.00  0.00    +0.130 C 
ATOM      9  C   UNL     1      -1.424  -0.572   0.150  0.00  0.00    +0.116 C 
ATOM     10  N   UNL     1      -1.413  -2.041   0.094  0.00  0.00    -0.293 NA
ATOM     11  C   UNL     1      -0.672  -2.600   1.235  0.00  0.00    +0.116 C 
ATOM     12  C   UNL     1       0.761  -2.063   1.218  0.00  0.00    +0.130 C 
ATOM     13  O   UNL     1       0.731  -0.633   1.240  0.00  0.00    -0.371 OA
ATOM     14  C   UNL     1       1.514  -2.578   2.446  0.00  0.00    +0.039 C 
ENDBRANCH   1  10
BRANCH   6  15
ATOM     15  N   UNL     1      -2.755  -2.454  -2.405  0.00  0.00    -0.326 NA
ATOM     16  H   UNL     1      -3.166  -2.056  -3.236  0.00  0.00    +0.119 HD
ATOM     17  H   UNL     1      -1.778  -2.211  -2.333  0.00  0.00    +0.119 HD
ENDBRANCH   6  15
TORSDOF 2
