REMARK  Name = ZINC66899999
REMARK  3 active torsions:
REMARK  status: ('A' for Active; 'I' for Inactive)
REMARK    1  A    between atoms: C_12  and  C_14
REMARK    2  A    between atoms: C_14  and  N_15
REMARK    3  A    between atoms: C_19  and  C_21
REMARK                            x       y       z     vdW  Elec       q    Type
REMARK                         _______ _______ _______ _____ _____    ______ ____
ROOT
ATOM      1  N   UNL     1       6.966  -0.290  -1.272  0.00  0.00    +0.390 N 
ATOM      2  C   UNL     1       7.104   0.985  -0.536  0.00  0.00    -0.077 C 
ATOM      3  C   UNL     1       8.379   0.808   0.326  0.00  0.00    -0.020 C 
ATOM      4  C   UNL     1       9.292  -0.005  -0.629  0.00  0.00    -0.012 C 
ATOM      5  C   UNL     1       8.294  -0.924  -1.365  0.00  0.00    -0.033 C 
ATOM      6  H   UNL     1       6.611  -0.108  -2.199  0.00  0.00    -0.080 HD
ENDROOT
BRANCH   5   7
ATOM      7  C   UNL     1       8.696  -1.063  -2.811  0.00  0.00    -0.016 A 
ATOM      8  C   UNL     1       8.212  -0.172  -3.751  0.00  0.00    +0.006 A 
ATOM      9  C   UNL     1       8.578  -0.297  -5.078  0.00  0.00    +0.004 A 
ATOM     10  C   UNL     1       9.428  -1.314  -5.470  0.00  0.00    +0.049 A 
ATOM     11  C   UNL     1       9.917  -2.211  -4.532  0.00  0.00    +0.162 A 
ATOM     12  C   UNL     1       9.555  -2.081  -3.196  0.00  0.00    +0.164 A 
ATOM     13  O   UNL     1      10.033  -2.943  -2.258  0.00  0.00    -0.485 OA
ATOM     14  C   UNL     1      10.591  -4.171  -2.738  0.00  0.00    +0.270 C 
ATOM     15  C   UNL     1      11.527  -3.848  -3.911  0.00  0.00    +0.270 C 
ATOM     16  O   UNL     1      10.750  -3.210  -4.934  0.00  0.00    -0.485 OA
ENDBRANCH   5   7
BRANCH   1  17
ATOM     17  C   UNL     1       6.043  -1.179  -0.554  0.00  0.00    +0.020 C 
BRANCH  17  29
ATOM     18  C   UNL     1      -0.235   0.303   0.052  0.00  0.00    +0.002 A 
ATOM     19  C   UNL     1       0.843   1.169   0.001  0.00  0.00    +0.002 A 
ATOM     20  C   UNL     1       2.134   0.672  -0.007  0.00  0.00    +0.025 A 
ATOM     21  C   UNL     1       2.344  -0.695   0.036  0.00  0.00    +0.058 A 
ATOM     22  C   UNL     1       1.258  -1.570   0.085  0.00  0.00    +0.055 A 
ATOM     23  C   UNL     1      -0.032  -1.064   0.094  0.00  0.00    +0.025 A 
ATOM     24  N   UNL     1       1.485  -2.951   0.116  0.00  0.00    -0.283 N 
ATOM     25  C   UNL     1       2.710  -3.440   0.386  0.00  0.00    +0.235 C 
ATOM     26  O   UNL     1       2.894  -4.639   0.365  0.00  0.00    -0.274 OA
ATOM     27  C   UNL     1       3.856  -2.516   0.713  0.00  0.00    +0.209 C 
ATOM     28  N   UNL     1       3.642  -1.229   0.035  0.00  0.00    -0.262 N 
ATOM     29  C   UNL     1       4.659  -0.583  -0.568  0.00  0.00    +0.204 C 
ATOM     30  O   UNL     1       4.461   0.477  -1.122  0.00  0.00    -0.277 OA
ATOM     31  H   UNL     1       0.752  -3.562  -0.058  0.00  0.00    +0.155 HD
ENDBRANCH  17  29
ENDBRANCH   1  17
TORSDOF 3
