REMARK  Name = ZINC40743091
REMARK  9 active torsions:
REMARK  status: ('A' for Active; 'I' for Inactive)
REMARK    1  A    between atoms: C_1  and  C_2
REMARK    2  A    between atoms: N_17  and  C_18
REMARK    3  A    between atoms: C_26  and  C_41
REMARK    4  A    between atoms: C_29  and  O_40
REMARK    5  A    between atoms: C_32  and  C_39
REMARK    6  A    between atoms: C_33  and  C_34
REMARK    7  A    between atoms: C_33  and  O_38
REMARK    8  A    between atoms: C_34  and  C_36
REMARK    9  A    between atoms: C_36  and  O_37
REMARK                            x       y       z     vdW  Elec       q    Type
REMARK                         _______ _______ _______ _____ _____    ______ ____
ROOT
ATOM      1  C   UNL     1       0.860   2.301   0.562  0.00  0.00    +0.011 C 
ATOM      2  C   UNL     1       0.802   0.820   0.177  0.00  0.00    +0.026 C 
ATOM      3  C   UNL     1      -0.657   0.420  -0.179  0.00  0.00    +0.011 C 
ATOM      4  C   UNL     1      -1.135  -0.293   1.091  0.00  0.00    +0.002 C 
ATOM      5  C   UNL     1      -2.323  -1.211   0.970  0.00  0.00    -0.001 C 
ATOM      6  C   UNL     1      -3.510  -0.553   0.299  0.00  0.00    +0.008 C 
ATOM      7  C   UNL     1      -4.579  -0.114   1.287  0.00  0.00    +0.031 C 
ATOM      8  C   UNL     1      -3.920   0.305   2.581  0.00  0.00    -0.061 C 
ATOM      9  C   UNL     1      -4.084   1.556   3.009  0.00  0.00    +0.028 C 
ATOM     10  C   UNL     1      -3.441   1.941   4.275  0.00  0.00    +0.071 A 
ATOM     11  C   UNL     1      -2.462   1.129   4.836  0.00  0.00    -0.001 A 
ATOM     12  C   UNL     1      -2.063   1.707   6.024  0.00  0.00    +0.139 A 
ATOM     13  N   UNL     1      -2.728   2.830   6.183  0.00  0.00    -0.174 NA
ATOM     14  N   UNL     1      -3.583   3.012   5.082  0.00  0.00    -0.230 N 
ATOM     15  C   UNL     1      -1.984  -0.119   4.139  0.00  0.00    +0.050 C 
ATOM     16  C   UNL     1      -3.124  -0.731   3.333  0.00  0.00    -0.001 C 
ATOM     17  C   UNL     1      -2.619  -1.787   2.355  0.00  0.00    +0.031 C 
ATOM     18  C   UNL     1      -1.404  -2.537   2.889  0.00  0.00    +0.119 C 
ATOM     19  C   UNL     1      -0.090  -1.760   2.830  0.00  0.00    +0.041 C 
ATOM     20  C   UNL     1       0.112  -1.119   1.481  0.00  0.00    +0.009 C 
ATOM     21  C   UNL     1       1.218  -0.060   1.384  0.00  0.00    +0.134 C 
ATOM     22  C   UNL     1       0.421  -2.201   0.440  0.00  0.00    +0.015 C 
ATOM     23  C   UNL     1      -4.099  -1.405   4.319  0.00  0.00    +0.016 C 
ENDROOT
BRANCH  14  24
ATOM     24  C   UNL     1      -4.425   4.111   4.867  0.00  0.00    +0.102 A 
ATOM     25  C   UNL     1      -5.752   3.922   4.507  0.00  0.00    +0.140 A 
ATOM     26  N   UNL     1      -6.548   4.953   4.304  0.00  0.00    -0.261 NA
ATOM     27  C   UNL     1      -6.123   6.195   4.432  0.00  0.00    +0.112 A 
ATOM     28  C   UNL     1      -4.815   6.465   4.787  0.00  0.00    +0.042 A 
ATOM     29  C   UNL     1      -3.944   5.411   5.016  0.00  0.00    +0.069 A 
ATOM     30 CL   UNL     1      -2.294   5.702   5.470  0.00  0.00    -0.081 Cl
ENDBRANCH  14  24
BRANCH  21  31
ATOM     31  C   UNL     1       2.544  -0.720   1.119  0.00  0.00    +0.190 C 
ATOM     32  O   UNL     1       2.884  -0.958  -0.015  0.00  0.00    -0.292 OA
BRANCH  31  33
ATOM     33  C   UNL     1       3.448  -1.085   2.269  0.00  0.00    +0.233 C 
BRANCH  33  34
ATOM     34  O   UNL     1       4.638  -1.694   1.765  0.00  0.00    -0.387 OA
ATOM     35  H   UNL     1       5.267  -1.955   2.451  0.00  0.00    +0.210 HD
ENDBRANCH  33  34
ENDBRANCH  31  33
ENDBRANCH  21  31
BRANCH  21  36
ATOM     36  O   UNL     1       1.270   0.718   2.578  0.00  0.00    -0.380 OA
ATOM     37  H   UNL     1       1.915   1.437   2.550  0.00  0.00    +0.211 HD
ENDBRANCH  21  36
BRANCH  18  38
ATOM     38  O   UNL     1      -1.634  -2.990   4.227  0.00  0.00    -0.391 OA
ATOM     39  H   UNL     1      -0.890  -3.474   4.611  0.00  0.00    +0.210 HD
ENDBRANCH  18  38
TORSDOF 6
