REMARK  Name = ZINC09520381
REMARK  7 active torsions:
REMARK  status: ('A' for Active; 'I' for Inactive)
REMARK    1  A    between atoms: C_1  and  C_2
REMARK    2  A    between atoms: C_4  and  C_29
REMARK    3  A    between atoms: C_5  and  N_9
REMARK    4  A    between atoms: C_6  and  C_8
REMARK    5  A    between atoms: C_10  and  C_12
REMARK    6  A    between atoms: C_12  and  S_13
REMARK    7  A    between atoms: S_13  and  C_14
REMARK                            x       y       z     vdW  Elec       q    Type
REMARK                         _______ _______ _______ _____ _____    ______ ____
ROOT
ATOM      1  S   UNL     1      -6.205   2.144  -0.435  0.00  0.00    -0.076 S 
ENDROOT
BRANCH   1   2
ATOM      2  C   UNL     1      -7.556   1.065  -0.776  0.00  0.00    +0.198 A 
ATOM      3  N   UNL     1      -7.471  -0.213  -1.052  0.00  0.00    -0.120 NA
ATOM      4  N   UNL     1      -8.768  -0.702  -1.258  0.00  0.00    -0.109 NA
ATOM      5  C   UNL     1      -9.605   0.295  -1.102  0.00  0.00    +0.237 A 
ATOM      6  N   UNL     1      -8.880   1.414  -0.795  0.00  0.00    -0.260 N 
ATOM      7  C   UNL     1      -9.508   2.627  -0.571  0.00  0.00    +0.037 A 
ATOM      8  C   UNL     1     -10.841   2.710  -0.653  0.00  0.00    +0.037 A 
ATOM      9  C   UNL     1     -11.601   1.545  -0.964  0.00  0.00    +0.256 A 
ATOM     10  O   UNL     1     -12.815   1.615  -1.034  0.00  0.00    -0.267 OA
ATOM     11  N   UNL     1     -10.985   0.370  -1.188  0.00  0.00    -0.291 N 
ATOM     12  H   UNL     1     -11.505  -0.421  -1.399  0.00  0.00    +0.172 HD
ATOM     13  C   UNL     1     -11.599   3.993  -0.433  0.00  0.00    +0.042 C 
ATOM     14  C   UNL     1     -10.731   5.014   0.301  0.00  0.00    +0.005 C 
ATOM     15  C   UNL     1      -9.388   5.116  -0.433  0.00  0.00    +0.006 C 
ATOM     16  C   UNL     1      -8.633   3.805  -0.230  0.00  0.00    +0.054 C 
ENDBRANCH   1   2
BRANCH   1  17
ATOM     17  C   UNL     1      -4.746   1.073  -0.559  0.00  0.00    +0.173 C 
BRANCH  17  19
ATOM     18  N   UNL     1      -2.294   1.291  -0.322  0.00  0.00    -0.284 N 
ATOM     19  C   UNL     1      -3.504   1.882  -0.285  0.00  0.00    +0.228 C 
ATOM     20  O   UNL     1      -3.595   3.064  -0.031  0.00  0.00    -0.275 OA
ATOM     21  H   UNL     1      -2.226   0.331  -0.445  0.00  0.00    +0.155 HD
BRANCH  18  26
ATOM     22  C   UNL     1       2.413   4.408   0.244  0.00  0.00    +0.044 C 
ATOM     23  C   UNL     1       1.161   3.583   0.092  0.00  0.00    -0.050 A 
ATOM     24  C   UNL     1       0.190   3.615   1.076  0.00  0.00    +0.008 A 
ATOM     25  C   UNL     1      -0.958   2.859   0.940  0.00  0.00    -0.029 A 
ATOM     26  C   UNL     1      -1.134   2.062  -0.184  0.00  0.00    +0.039 A 
ATOM     27  C   UNL     1      -0.160   2.038  -1.173  0.00  0.00    -0.029 A 
ATOM     28  C   UNL     1       0.986   2.795  -1.031  0.00  0.00    +0.008 A 
ATOM     29  C   UNL     1      -0.350   1.180  -2.398  0.00  0.00    +0.045 C 
ATOM     30  C   UNL     1      -2.016   2.893   2.013  0.00  0.00    +0.045 C 
ENDBRANCH  18  26
ENDBRANCH  17  19
ENDBRANCH   1  17
TORSDOF 4
