REMARK  Name = ZINC58504300
REMARK  9 active torsions:
REMARK  status: ('A' for Active; 'I' for Inactive)
REMARK    1  A    between atoms: C_1  and  C_2
REMARK    2  A    between atoms: C_2  and  C_3
REMARK    3  A    between atoms: C_2  and  C_4
REMARK    4  A    between atoms: C_4  and  C_5
REMARK    5  A    between atoms: C_8  and  N_14
REMARK    6  A    between atoms: C_9  and  C_10
REMARK    7  A    between atoms: C_10  and  O_12
REMARK    8  A    between atoms: O_12  and  C_13
REMARK    9  A    between atoms: C_15  and  C_17
REMARK                            x       y       z     vdW  Elec       q    Type
REMARK                         _______ _______ _______ _____ _____    ______ ____
ROOT
ATOM      1  C   UNL     1      -0.030  -0.130   2.478  0.00  0.00    -0.024 A 
ATOM      2  C   UNL     1       0.244   0.989   3.175  0.00  0.00    +0.051 A 
ATOM      3  S   UNL     1      -0.940   0.945   4.503  0.00  0.00    -0.081 S 
ATOM      4  C   UNL     1      -1.743  -0.482   4.137  0.00  0.00    +0.086 A 
ATOM      5  C   UNL     1      -1.114  -0.939   2.986  0.00  0.00    +0.091 A 
ENDROOT
BRANCH   4   6
ATOM      6  N   UNL     1      -2.795  -1.066   4.823  0.00  0.00    -0.275 N 
ATOM      7  C   UNL     1      -3.289  -0.476   5.929  0.00  0.00    +0.252 C 
ATOM      8  O   UNL     1      -2.812   0.570   6.325  0.00  0.00    -0.270 OA
ATOM      9  H   UNL     1      -3.175  -1.901   4.507  0.00  0.00    +0.156 HD
BRANCH   7  10
ATOM     10  C   UNL     1      -4.408  -1.098   6.658  0.00  0.00    +0.075 A 
ATOM     11  C   UNL     1      -5.070  -0.592   7.870  0.00  0.00    +0.054 A 
ATOM     12  C   UNL     1      -6.026  -1.486   8.168  0.00  0.00    +0.195 A 
ATOM     13  O   UNL     1      -6.004  -2.473   7.259  0.00  0.00    -0.470 OA
ATOM     14  C   UNL     1      -5.051  -2.261   6.347  0.00  0.00    +0.207 A 
ENDBRANCH   7  10
ENDBRANCH   4   6
BRANCH   5  15
ATOM     15  C   UNL     1      -1.525  -2.179   2.325  0.00  0.00    +0.342 C 
ATOM     16  O   UNL     1      -1.014  -3.236   2.643  0.00  0.00    -0.245 OA
BRANCH  15  17
ATOM     17  O   UNL     1      -2.470  -2.150   1.364  0.00  0.00    -0.464 OA
ATOM     18  C   UNL     1      -2.822  -3.397   0.762  0.00  0.00    +0.280 C 
ENDBRANCH  15  17
ENDBRANCH   5  15
BRANCH   1  19
ATOM     19  C   UNL     1       0.742  -0.511   1.242  0.00  0.00    +0.039 C 
BRANCH  19  21
ATOM     20  C   UNL     1      -0.019   1.526   0.010  0.00  0.00    +0.007 C 
ATOM     21  C   UNL     1       0.002  -0.004   0.002  0.00  0.00    -0.013 C 
ATOM     22  C   UNL     1       0.718  -0.497  -1.257  0.00  0.00    +0.007 C 
ENDBRANCH  19  21
ENDBRANCH   1  19
TORSDOF 6
