REMARK  Name = ZINC00078742
REMARK  7 active torsions:
REMARK  status: ('A' for Active; 'I' for Inactive)
REMARK    1  A    between atoms: C_1  and  C_2
REMARK    2  A    between atoms: C_3  and  C_16
REMARK    3  A    between atoms: C_4  and  C_15
REMARK    4  A    between atoms: C_8  and  N_14
REMARK    5  A    between atoms: C_9  and  C_11
REMARK    6  A    between atoms: C_16  and  C_17
REMARK    7  A    between atoms: C_17  and  C_19
REMARK                            x       y       z     vdW  Elec       q    Type
REMARK                         _______ _______ _______ _____ _____    ______ ____
ROOT
ATOM      1  C   UNL     1      -0.851   1.835   1.409  0.00  0.00    +0.045 C 
ATOM      2  C   UNL     1      -1.012   0.360   1.143  0.00  0.00    -0.034 A 
ATOM      3  C   UNL     1      -1.928  -0.086   0.219  0.00  0.00    -0.017 A 
ATOM      4  C   UNL     1      -2.075  -1.443  -0.024  0.00  0.00    +0.018 A 
ATOM      5  N   UNL     1      -1.339  -2.323   0.627  0.00  0.00    -0.352 N 
ATOM      6  C   UNL     1      -0.450  -1.946   1.520  0.00  0.00    +0.088 A 
ATOM      7  C   UNL     1      -0.219  -0.587   1.836  0.00  0.00    +0.030 A 
ATOM      8  C   UNL     1       0.805  -0.352   2.842  0.00  0.00    +0.054 A 
ATOM      9  C   UNL     1       1.451  -1.441   3.384  0.00  0.00    +0.097 A 
ATOM     10  S   UNL     1       0.688  -2.825   2.562  0.00  0.00    -0.064 S 
ATOM     11  C   UNL     1      -3.083  -1.917  -1.039  0.00  0.00    +0.063 C 
ATOM     12  H   UNL     1      -1.456  -3.268   0.445  0.00  0.00    +0.166 HD
ENDROOT
BRANCH   9  13
ATOM     13  C   UNL     1       2.472  -1.457   4.368  0.00  0.00    +0.250 C 
ATOM     14  O   UNL     1       2.879  -0.410   4.839  0.00  0.00    -0.270 OA
ATOM     15  N   UNL     1       2.991  -2.630   4.781  0.00  0.00    -0.325 N 
ATOM     16  H   UNL     1       2.666  -3.463   4.405  0.00  0.00    +0.145 HD
ATOM     17  H   UNL     1       3.689  -2.641   5.454  0.00  0.00    +0.145 HD
ENDBRANCH   9  13
BRANCH   8  18
ATOM     18  N   UNL     1       1.123   0.938   3.245  0.00  0.00    -0.356 N 
ATOM     19  H   UNL     1       1.035   1.676   2.623  0.00  0.00    +0.142 HD
ATOM     20  H   UNL     1       1.434   1.100   4.150  0.00  0.00    +0.142 HD
ENDBRANCH   8  18
BRANCH   3  21
ATOM     21  C   UNL     1      -2.777   0.906  -0.534  0.00  0.00    +0.116 C 
BRANCH  21  22
ATOM     22  C   UNL     1      -2.002   1.440  -1.710  0.00  0.00    +0.167 C 
ATOM     23  O   UNL     1      -0.871   1.054  -1.917  0.00  0.00    -0.292 OA
BRANCH  22  24
ATOM     24  C   UNL     1      -2.617   2.431  -2.608  0.00  0.00    +0.018 A 
ATOM     25  C   UNL     1      -3.918   2.884  -2.369  0.00  0.00    +0.011 A 
ATOM     26  C   UNL     1      -4.487   3.813  -3.214  0.00  0.00    +0.001 A 
ATOM     27  C   UNL     1      -3.774   4.297  -4.296  0.00  0.00    +0.000 A 
ATOM     28  C   UNL     1      -2.485   3.854  -4.540  0.00  0.00    +0.001 A 
ATOM     29  C   UNL     1      -1.900   2.930  -3.700  0.00  0.00    +0.011 A 
ENDBRANCH  22  24
ENDBRANCH  21  22
ENDBRANCH   3  21
TORSDOF 5
