REMARK  Name = ZINC00061413
REMARK  7 active torsions:
REMARK  status: ('A' for Active; 'I' for Inactive)
REMARK    1  A    between atoms: C_1  and  C_2
REMARK    2  A    between atoms: C_2  and  C_3
REMARK    3  A    between atoms: C_2  and  C_4
REMARK    4  A    between atoms: C_2  and  C_5
REMARK    5  A    between atoms: C_5  and  C_7
REMARK    6  A    between atoms: C_8  and  N_21
REMARK    7  A    between atoms: N_18  and  C_20
REMARK                            x       y       z     vdW  Elec       q    Type
REMARK                         _______ _______ _______ _____ _____    ______ ____
ROOT
ATOM      1  C   UNL     1       0.852  -1.868  -1.469  0.00  0.00    +0.078 A 
ATOM      2  C   UNL     1       1.468  -2.499  -2.536  0.00  0.00    +0.052 A 
ATOM      3  C   UNL     1       1.492  -3.953  -2.553  0.00  0.00    +0.029 A 
ATOM      4  C   UNL     1       2.052  -4.818  -3.523  0.00  0.00    +0.016 A 
ATOM      5  C   UNL     1       1.965  -6.184  -3.345  0.00  0.00    -0.042 A 
ATOM      6  C   UNL     1       1.336  -6.698  -2.224  0.00  0.00    +0.042 A 
ATOM      7  N   UNL     1       0.812  -5.884  -1.322  0.00  0.00    -0.244 NA
ATOM      8  C   UNL     1       0.869  -4.578  -1.448  0.00  0.00    +0.111 A 
ATOM      9  S   UNL     1       0.295  -3.223  -0.455  0.00  0.00    -0.064 S 
ATOM     10  C   UNL     1       1.232  -8.185  -1.996  0.00  0.00    +0.037 C 
ATOM     11  C   UNL     1       1.516  -8.930  -3.300  0.00  0.00    -0.073 C 
ATOM     12  N   UNL     1       2.781  -8.429  -3.860  0.00  0.00    +0.381 N 
ATOM     13  C   UNL     1       2.566  -7.082  -4.395  0.00  0.00    -0.042 C 
ATOM     14  C   UNL     1       3.228  -9.321  -4.938  0.00  0.00    -0.096 C 
ATOM     15  H   UNL     1       3.481  -8.397  -3.135  0.00  0.00    -0.082 HD
ENDROOT
BRANCH   2  16
ATOM     16  N   UNL     1       2.045  -1.767  -3.558  0.00  0.00    -0.356 N 
ATOM     17  H   UNL     1       2.021  -0.797  -3.534  0.00  0.00    +0.142 HD
ATOM     18  H   UNL     1       2.472  -2.223  -4.300  0.00  0.00    +0.142 HD
ENDBRANCH   2  16
BRANCH   1  19
ATOM     19  C   UNL     1       0.707  -0.490  -1.238  0.00  0.00    +0.177 C 
ATOM     20  O   UNL     1       1.151   0.310  -2.038  0.00  0.00    -0.291 OA
BRANCH  19  22
ATOM     21  C   UNL     1      -0.019   1.526   0.010  0.00  0.00    +0.019 C 
ATOM     22  C   UNL     1       0.002  -0.004   0.002  0.00  0.00    +0.026 C 
ATOM     23  C   UNL     1       0.742  -0.511   1.242  0.00  0.00    +0.019 C 
ATOM     24  C   UNL     1      -1.433  -0.534   0.013  0.00  0.00    +0.019 C 
ENDBRANCH  19  22
ENDBRANCH   1  19
TORSDOF 3
