REMARK  Name = ZINC59879950
REMARK  6 active torsions:
REMARK  status: ('A' for Active; 'I' for Inactive)
REMARK    1  A    between atoms: N_6  and  N_7
REMARK    2  A    between atoms: C_10  and  S_13
REMARK    3  A    between atoms: S_13  and  C_14
REMARK    4  A    between atoms: C_14  and  C_15
REMARK    5  A    between atoms: N_17  and  N_18
REMARK    6  A    between atoms: C_19  and  C_21
REMARK                            x       y       z     vdW  Elec       q    Type
REMARK                         _______ _______ _______ _____ _____    ______ ____
ROOT
ATOM      1  N   UNL     1       1.835  -2.957   0.059  0.00  0.00    -0.205 N 
ATOM      2  C   UNL     1       2.176  -4.187   0.593  0.00  0.00    +0.232 A 
ATOM      3  N   UNL     1       3.257  -4.453   1.296  0.00  0.00    -0.186 NA
ATOM      4  C   UNL     1       3.258  -5.743   1.648  0.00  0.00    +0.211 A 
ATOM      5  N   UNL     1       2.177  -6.315   1.174  0.00  0.00    -0.144 NA
ATOM      6  N   UNL     1       1.455  -5.324   0.490  0.00  0.00    -0.245 N 
ATOM      7  H   UNL     1       1.011  -2.857  -0.443  0.00  0.00    +0.177 HD
ATOM      8  H   UNL     1       0.608  -5.434   0.032  0.00  0.00    +0.192 HD
ENDROOT
BRANCH   1  14
ATOM      9  C   UNL     1       0.133   1.494  -0.781  0.00  0.00    +0.000 C 
ATOM     10  C   UNL     1       1.527   2.123  -0.622  0.00  0.00    +0.000 C 
ATOM     11  C   UNL     1       2.329   1.560   0.525  0.00  0.00    +0.006 C 
ATOM     12  C   UNL     1       3.224   0.414  -0.018  0.00  0.00    +0.052 C 
ATOM     13  C   UNL     1       2.420  -0.744  -0.337  0.00  0.00    +0.037 C 
ATOM     14  N   UNL     1       2.680  -1.855   0.243  0.00  0.00    -0.189 NA
ATOM     15  C   UNL     1       1.276  -0.691  -1.336  0.00  0.00    +0.052 C 
ATOM     16  C   UNL     1       0.121  -0.027  -0.630  0.00  0.00    +0.006 C 
ENDBRANCH   1  14
BRANCH   4  17
ATOM     17  S   UNL     1       4.509  -6.544   2.596  0.00  0.00    -0.075 S 
BRANCH  17  18
ATOM     18  C   UNL     1       3.930  -8.258   2.726  0.00  0.00    +0.174 C 
BRANCH  18  19
ATOM     19  C   UNL     1       4.923  -9.064   3.524  0.00  0.00    +0.239 C 
ATOM     20  O   UNL     1       5.922  -8.534   3.962  0.00  0.00    -0.273 OA
ATOM     21  N   UNL     1       4.700 -10.374   3.751  0.00  0.00    -0.234 N 
ATOM     22  H   UNL     1       3.901 -10.798   3.402  0.00  0.00    +0.173 HD
BRANCH  21  23
ATOM     23  N   UNL     1       5.623 -11.123   4.493  0.00  0.00    -0.234 N 
ATOM     24  C   UNL     1       5.400 -12.433   4.721  0.00  0.00    +0.232 C 
ATOM     25  O   UNL     1       4.400 -12.963   4.283  0.00  0.00    -0.274 OA
ATOM     26  H   UNL     1       6.422 -10.699   4.843  0.00  0.00    +0.173 HD
BRANCH  24  27
ATOM     27  C   UNL     1       6.392 -13.239   5.518  0.00  0.00    +0.076 C 
ATOM     28  C   UNL     1       7.587 -13.739   4.690  0.00  0.00    +0.013 C 
ATOM     29  C   UNL     1       7.476 -15.058   5.472  0.00  0.00    +0.001 C 
ATOM     30  C   UNL     1       5.993 -14.714   5.688  0.00  0.00    +0.013 C 
ENDBRANCH  24  27
ENDBRANCH  21  23
ENDBRANCH  18  19
ENDBRANCH  17  18
ENDBRANCH   4  17
TORSDOF 6
