REMARK  Name = ZINC35097080
REMARK  10 active torsions:
REMARK  status: ('A' for Active; 'I' for Inactive)
REMARK    1  A    between atoms: C_1  and  C_2
REMARK    2  A    between atoms: C_7  and  C_8
REMARK    3  A    between atoms: N_13  and  C_16
REMARK    4  A    between atoms: C_16  and  C_17
REMARK    5  A    between atoms: C_17  and  N_18
REMARK    6  A    between atoms: N_18  and  C_19
REMARK    7  A    between atoms: C_19  and  C_20
REMARK    8  A    between atoms: C_28  and  C_29
REMARK    9  A    between atoms: C_28  and  C_30
REMARK   10  A    between atoms: N_33  and  C_34
REMARK                            x       y       z     vdW  Elec       q    Type
REMARK                         _______ _______ _______ _____ _____    ______ ____
ROOT
ATOM      1  N   UNL     1       3.772  -2.684   8.729  0.00  0.00    -0.283 N 
ATOM      2  C   UNL     1       3.817  -3.905   9.298  0.00  0.00    +0.307 C 
ATOM      3  O   UNL     1       3.001  -4.751   8.986  0.00  0.00    -0.252 OA
ATOM      4  N   UNL     1       4.766  -4.188  10.212  0.00  0.00    -0.269 N 
ATOM      5  H   UNL     1       5.465  -3.543  10.402  0.00  0.00    +0.156 HD
ENDROOT
BRANCH   4   6
ATOM      6  C   UNL     1       4.743  -5.414  10.888  0.00  0.00    +0.035 A 
ATOM      7  C   UNL     1       5.933  -6.043  11.229  0.00  0.00    +0.025 A 
ATOM      8  C   UNL     1       5.907  -7.252  11.895  0.00  0.00    +0.022 A 
ATOM      9  C   UNL     1       4.697  -7.837  12.224  0.00  0.00    +0.041 A 
ATOM     10  C   UNL     1       3.509  -7.213  11.885  0.00  0.00    +0.022 A 
ATOM     11  C   UNL     1       3.530  -6.001  11.223  0.00  0.00    +0.025 A 
ATOM     12 CL   UNL     1       4.668  -9.357  13.062  0.00  0.00    -0.084 Cl
ENDBRANCH   4   6
BRANCH   1  13
ATOM     13  C   UNL     1       2.741  -2.375   7.736  0.00  0.00    +0.091 C 
BRANCH  13  14
ATOM     14  C   UNL     1       3.257  -2.726   6.339  0.00  0.00    -0.059 C 
BRANCH  14  20
ATOM     15  C   UNL     1       1.044  -0.495   1.933  0.00  0.00    +0.247 C 
ATOM     16  O   UNL     1       0.800   0.694   2.008  0.00  0.00    -0.270 OA
ATOM     17  N   UNL     1       1.135  -1.236   3.055  0.00  0.00    -0.301 N 
ATOM     18  C   UNL     1       1.550  -2.646   2.999  0.00  0.00    +0.089 C 
ATOM     19  C   UNL     1       2.673  -2.863   4.018  0.00  0.00    -0.059 C 
ATOM     20  N   UNL     1       2.223  -2.417   5.343  0.00  0.00    +0.383 N 
ATOM     21  C   UNL     1       1.979  -0.969   5.326  0.00  0.00    -0.059 C 
ATOM     22  C   UNL     1       0.827  -0.656   4.372  0.00  0.00    +0.089 C 
ATOM     23  H   UNL     1       1.370  -2.897   5.587  0.00  0.00    -0.082 HD
BRANCH  15  30
ATOM     24  C   UNL     1       2.921   0.662   0.060  0.00  0.00    +0.044 C 
ATOM     25  C   UNL     1       2.144  -0.578  -0.300  0.00  0.00    -0.038 A 
ATOM     26  C   UNL     1       2.328  -1.176  -1.530  0.00  0.00    +0.004 A 
ATOM     27  C   UNL     1       1.616  -2.314  -1.862  0.00  0.00    +0.000 A 
ATOM     28  C   UNL     1       0.715  -2.861  -0.965  0.00  0.00    +0.001 A 
ATOM     29  C   UNL     1       0.522  -2.273   0.268  0.00  0.00    +0.013 A 
ATOM     30  C   UNL     1       1.242  -1.127   0.612  0.00  0.00    +0.040 A 
ENDBRANCH  15  30
ENDBRANCH  14  20
ENDBRANCH  13  14
ENDBRANCH   1  13
BRANCH   1  31
ATOM     31  C   UNL     1       4.755  -1.665   9.105  0.00  0.00    +0.140 C 
BRANCH  31  32
ATOM     32  C   UNL     1       4.230  -0.865  10.269  0.00  0.00    -0.053 C 
ATOM     33  C   UNL     1       4.554  -1.166  11.505  0.00  0.00    -0.025 C 
ATOM     34  C   UNL     1       4.000  -0.344  12.644  0.00  0.00    +0.031 C 
ATOM     35  C   UNL     1       3.161   0.814  12.085  0.00  0.00    -0.000 C 
ATOM     36  C   UNL     1       3.845   1.533  10.909  0.00  0.00    +0.012 C 
ATOM     37  C   UNL     1       3.311   0.326  10.057  0.00  0.00    +0.022 C 
ATOM     38  C   UNL     1       2.133   0.300  11.056  0.00  0.00    -0.025 C 
ATOM     39  C   UNL     1       1.026   1.305  10.733  0.00  0.00    +0.012 C 
ATOM     40  C   UNL     1       1.603  -1.102  11.358  0.00  0.00    +0.012 C 
ENDBRANCH  31  32
ENDBRANCH   1  31
TORSDOF 7
