REMARK  Name = ZINC23587623
REMARK  9 active torsions:
REMARK  status: ('A' for Active; 'I' for Inactive)
REMARK    1  A    between atoms: C_1  and  C_2
REMARK    2  A    between atoms: N_4  and  C_5
REMARK    3  A    between atoms: C_7  and  C_15
REMARK    4  A    between atoms: C_9  and  N_11
REMARK    5  A    between atoms: C_12  and  C_14
REMARK    6  A    between atoms: C_15  and  O_17
REMARK    7  A    between atoms: O_17  and  C_18
REMARK    8  A    between atoms: C_18  and  C_19
REMARK    9  A    between atoms: N_24  and  C_25
REMARK                            x       y       z     vdW  Elec       q    Type
REMARK                         _______ _______ _______ _____ _____    ______ ____
ROOT
ATOM      1  O   UNL     1      -1.369   5.911  -0.438  0.00  0.00    -0.452 OA
ENDROOT
BRANCH   1   2
ATOM      2  C   UNL     1      -0.186   5.267  -0.440  0.00  0.00    +0.340 C 
ATOM      3  O   UNL     1       0.844   5.890  -0.603  0.00  0.00    -0.245 OA
BRANCH   2   6
ATOM      4  C   UNL     1      -1.277   1.712   0.124  0.00  0.00    +0.036 A 
ATOM      5  C   UNL     1      -1.323   3.086  -0.055  0.00  0.00    +0.038 A 
ATOM      6  C   UNL     1      -0.141   3.804  -0.242  0.00  0.00    +0.063 A 
ATOM      7  C   UNL     1       1.084   3.135  -0.244  0.00  0.00    +0.038 A 
ATOM      8  C   UNL     1       1.123   1.761  -0.059  0.00  0.00    +0.036 A 
ATOM      9  C   UNL     1      -0.056   1.051   0.127  0.00  0.00    +0.046 A 
BRANCH   4  13
ATOM     10  C   UNL     1      -4.830   0.522  -0.233  0.00  0.00    +0.109 C 
ATOM     11  C   UNL     1      -3.582   1.358  -0.348  0.00  0.00    +0.214 C 
ATOM     12  O   UNL     1      -3.585   2.361  -1.030  0.00  0.00    -0.276 OA
ATOM     13  N   UNL     1      -2.462   0.991   0.307  0.00  0.00    -0.286 N 
ATOM     14  H   UNL     1      -2.481   0.125   0.985  0.00  0.00    +0.155 HD
ENDBRANCH   4  13
BRANCH   8  15
ATOM     15  N   UNL     1       2.350   1.090  -0.060  0.00  0.00    -0.286 N 
ATOM     16  C   UNL     1       3.451   1.697   0.425  0.00  0.00    +0.214 C 
ATOM     17  O   UNL     1       3.361   2.788   0.948  0.00  0.00    -0.276 OA
ATOM     18  C   UNL     1       4.794   1.021   0.319  0.00  0.00    +0.109 C 
ATOM     19  H   UNL     1       2.417   0.066  -0.458  0.00  0.00    +0.155 HD
ENDBRANCH   8  15
ENDBRANCH   2   6
ENDBRANCH   1   2
BRANCH   1  20
ATOM     20  C   UNL     1      -1.338   7.349  -0.638  0.00  0.00    +0.328 C 
BRANCH  20  21
ATOM     21  C   UNL     1      -2.743   7.891  -0.605  0.00  0.00    +0.258 C 
ATOM     22  O   UNL     1      -3.679   7.140  -0.431  0.00  0.00    -0.272 OA
ATOM     23  N   UNL     1      -2.960   9.211  -0.770  0.00  0.00    -0.237 N 
ATOM     24  C   UNL     1      -4.217   9.697  -0.741  0.00  0.00    +0.306 C 
ATOM     25  O   UNL     1      -5.155   8.944  -0.567  0.00  0.00    -0.252 OA
ATOM     26  N   UNL     1      -4.434  11.017  -0.905  0.00  0.00    -0.294 N 
ATOM     27  H   UNL     1      -2.111   9.893  -0.928  0.00  0.00    +0.159 HD
ATOM     28  H   UNL     1      -3.585  11.698  -1.063  0.00  0.00    +0.151 HD
BRANCH  26  29
ATOM     29  C   UNL     1      -5.800  11.544  -0.874  0.00  0.00    +0.037 C 
ATOM     30  C   UNL     1      -6.624  10.893  -1.987  0.00  0.00    +0.029 C 
ATOM     31  C   UNL     1      -8.051  11.443  -1.954  0.00  0.00    -0.008 C 
ATOM     32  C   UNL     1      -8.018  12.959  -2.164  0.00  0.00    +0.007 C 
ATOM     33  C   UNL     1      -7.194  13.610  -1.052  0.00  0.00    -0.008 C 
ATOM     34  C   UNL     1      -5.767  13.059  -1.084  0.00  0.00    +0.029 C 
ATOM     35  C   UNL     1      -7.830  13.297   0.304  0.00  0.00    +0.007 C 
ATOM     36  C   UNL     1      -7.864  11.782   0.514  0.00  0.00    -0.008 C 
ATOM     37  C   UNL     1      -8.687  11.130  -0.598  0.00  0.00    +0.007 C 
ATOM     38  C   UNL     1      -6.437  11.231   0.482  0.00  0.00    +0.029 C 
ENDBRANCH  26  29
ENDBRANCH  20  21
ENDBRANCH   1  20
TORSDOF 7
