REMARK  Name = ZINC09088431
REMARK  10 active torsions:
REMARK  status: ('A' for Active; 'I' for Inactive)
REMARK    1  A    between atoms: C_1  and  O_2
REMARK    2  A    between atoms: O_2  and  C_3
REMARK    3  A    between atoms: C_7  and  N_9
REMARK    4  A    between atoms: C_12  and  C_18
REMARK    5  A    between atoms: C_13  and  O_17
REMARK    6  A    between atoms: C_15  and  O_16
REMARK    7  A    between atoms: C_22  and  O_30
REMARK    8  A    between atoms: C_23  and  O_28
REMARK    9  A    between atoms: O_28  and  C_29
REMARK   10  A    between atoms: O_30  and  C_31
REMARK                            x       y       z     vdW  Elec       q    Type
REMARK                         _______ _______ _______ _____ _____    ______ ____
ROOT
ATOM      1  N   UNL     1      -0.831  -2.841   3.128  0.00  0.00    -0.231 N 
ATOM      2  C   UNL     1      -1.446  -1.896   2.387  0.00  0.00    +0.267 A 
ATOM      3  O   UNL     1      -1.873  -0.878   2.909  0.00  0.00    -0.267 OA
ATOM      4  C   UNL     1      -1.586  -2.104   1.010  0.00  0.00    +0.069 A 
ATOM      5  C   UNL     1      -1.093  -3.274   0.460  0.00  0.00    +0.224 A 
ATOM      6  N   UNL     1      -0.487  -4.172   1.244  0.00  0.00    -0.161 NA
ATOM      7  C   UNL     1      -0.358  -3.971   2.537  0.00  0.00    +0.306 A 
ENDROOT
BRANCH   4   8
ATOM      8  C   UNL     1      -2.267  -1.076   0.143  0.00  0.00    +0.001 C 
ATOM      9  C   UNL     1      -1.449   0.189   0.137  0.00  0.00    -0.050 A 
ATOM     10  C   UNL     1      -0.070   0.081   0.035  0.00  0.00    +0.052 A 
ATOM     11  C   UNL     1       0.722   1.215   0.016  0.00  0.00    +0.162 A 
ATOM     12  C   UNL     1       0.130   2.472   0.101  0.00  0.00    +0.162 A 
ATOM     13  C   UNL     1      -1.246   2.575   0.205  0.00  0.00    +0.053 A 
ATOM     14  C   UNL     1      -2.035   1.434   0.225  0.00  0.00    -0.044 A 
ATOM     15  C   UNL     1      -3.529   1.598   0.351  0.00  0.00    +0.016 C 
ATOM     16  C   UNL     1      -4.233   0.304  -0.059  0.00  0.00    -0.077 C 
ATOM     17  N   UNL     1      -3.614  -0.818   0.670  0.00  0.00    +0.387 N 
ATOM     18  H   UNL     1      -3.550  -0.582   1.667  0.00  0.00    -0.085 HD
ATOM     19  H   UNL     1      -4.192  -1.659   0.554  0.00  0.00    -0.085 HD
BRANCH  12  20
ATOM     20  O   UNL     1       0.899   3.593   0.082  0.00  0.00    -0.491 OA
ATOM     21  C   UNL     1       0.221   4.847   0.173  0.00  0.00    +0.277 C 
ENDBRANCH  12  20
BRANCH  11  22
ATOM     22  O   UNL     1       2.074   1.103  -0.083  0.00  0.00    -0.491 OA
ATOM     23  C   UNL     1       2.611  -0.219  -0.166  0.00  0.00    +0.277 C 
ENDBRANCH  11  22
ENDBRANCH   4   8
BRANCH   1  28
ATOM     24  C   UNL     1       0.601  -1.846   6.371  0.00  0.00    +0.122 A 
ATOM     25  C   UNL     1      -0.381  -2.300   7.240  0.00  0.00    +0.046 A 
ATOM     26  C   UNL     1      -1.507  -2.930   6.745  0.00  0.00    +0.006 A 
ATOM     27  C   UNL     1      -1.658  -3.110   5.383  0.00  0.00    +0.026 A 
ATOM     28  C   UNL     1      -0.678  -2.658   4.509  0.00  0.00    +0.058 A 
ATOM     29  C   UNL     1       0.456  -2.029   5.005  0.00  0.00    +0.072 A 
BRANCH  24  31
ATOM     30  C   UNL     1       1.794  -1.077   8.279  0.00  0.00    +0.277 C 
ATOM     31  O   UNL     1       1.708  -1.227   6.860  0.00  0.00    -0.495 OA
ENDBRANCH  24  31
ENDBRANCH   1  28
BRANCH   7  32
ATOM     32  O   UNL     1       0.255  -4.906   3.292  0.00  0.00    -0.479 OA
ATOM     33  H   UNL     1       0.578  -5.696   2.837  0.00  0.00    +0.295 HD
ENDBRANCH   7  32
BRANCH   5  34
ATOM     34  O   UNL     1      -1.218  -3.507  -0.867  0.00  0.00    -0.492 OA
ATOM     35  H   UNL     1      -0.842  -4.350  -1.156  0.00  0.00    +0.294 HD
ENDBRANCH   5  34
TORSDOF 7
