REMARK  Name = ZINC11813776
REMARK  10 active torsions:
REMARK  status: ('A' for Active; 'I' for Inactive)
REMARK    1  A    between atoms: C_1  and  C_2
REMARK    2  A    between atoms: C_3  and  C_10
REMARK    3  A    between atoms: C_4  and  C_8
REMARK    4  A    between atoms: C_4  and  C_9
REMARK    5  A    between atoms: C_10  and  C_11
REMARK    6  A    between atoms: C_11  and  N_75
REMARK    7  A    between atoms: C_15  and  C_25
REMARK    8  A    between atoms: C_16  and  O_23
REMARK    9  A    between atoms: O_23  and  C_24
REMARK   10  A    between atoms: C_31  and  O_34
REMARK                            x       y       z     vdW  Elec       q    Type
REMARK                         _______ _______ _______ _____ _____    ______ ____
ROOT
ATOM      1  C   UNL     1      -5.391   6.235   1.359  0.00  0.00    -0.073 C 
ATOM      2  C   UNL     1      -4.156   5.499   1.875  0.00  0.00    +0.036 C 
ATOM      3  C   UNL     1      -2.905   6.320   1.679  0.00  0.00    +0.036 A 
ATOM      4  C   UNL     1      -1.722   5.617   1.505  0.00  0.00    +0.098 A 
ATOM      5  C   UNL     1      -0.465   6.350   1.347  0.00  0.00    +0.139 A 
ATOM      6  C   UNL     1      -0.513   7.729   1.395  0.00  0.00    +0.116 A 
ATOM      7  C   UNL     1      -1.746   8.357   1.574  0.00  0.00    +0.255 A 
ATOM      8  O   UNL     1      -1.786   9.575   1.629  0.00  0.00    -0.268 OA
ATOM      9  N   UNL     1      -2.901   7.659   1.688  0.00  0.00    -0.313 N 
ATOM     10  C   UNL     1      -4.131   8.450   1.795  0.00  0.00    +0.106 C 
ATOM     11  C   UNL     1      -4.987   7.992   2.967  0.00  0.00    -0.057 C 
ATOM     12  N   UNL     1      -5.981   7.029   2.456  0.00  0.00    +0.381 N 
ATOM     13  H   UNL     1      -6.792   7.546   2.096  0.00  0.00    -0.082 HD
ENDROOT
BRANCH   4  14
ATOM     14  C   UNL     1      -1.731   4.145   1.474  0.00  0.00    +0.252 C 
ATOM     15  O   UNL     1      -1.678   3.559   0.410  0.00  0.00    -0.270 OA
ATOM     16  N   UNL     1      -1.798   3.447   2.625  0.00  0.00    -0.295 N 
ATOM     17  C   UNL     1      -1.760   4.136   3.922  0.00  0.00    +0.108 C 
ATOM     18  C   UNL     1      -0.646   3.521   4.775  0.00  0.00    +0.021 C 
ATOM     19  C   UNL     1      -0.860   2.009   4.873  0.00  0.00    +0.034 C 
ATOM     20  C   UNL     1      -0.795   1.391   3.474  0.00  0.00    +0.132 C 
ATOM     21  C   UNL     1      -1.910   1.982   2.607  0.00  0.00    +0.139 C 
BRANCH  20  22
ATOM     22  O   UNL     1      -0.964  -0.025   3.570  0.00  0.00    -0.390 OA
ATOM     23  H   UNL     1      -0.934  -0.483   2.719  0.00  0.00    +0.210 HD
ENDBRANCH  20  22
ENDBRANCH   4  14
BRANCH   5  24
ATOM     24  O   UNL     1       0.706   5.697   1.161  0.00  0.00    -0.494 OA
ATOM     25  C   UNL     1       1.894   6.491   1.131  0.00  0.00    +0.277 C 
ENDBRANCH   5  24
BRANCH  12  26
ATOM     26  C   UNL     1      -6.426   6.135   3.547  0.00  0.00    -0.074 C 
BRANCH  26  27
ATOM     27  C   UNL     1      -7.232   6.951   4.559  0.00  0.00    +0.013 C 
BRANCH  27  30
ATOM     28  C   UNL     1      -5.732   6.801   6.809  0.00  0.00    +0.039 C 
ATOM     29  C   UNL     1      -6.989   5.972   6.741  0.00  0.00    -0.073 C 
ATOM     30  C   UNL     1      -7.709   6.048   5.667  0.00  0.00    -0.067 C 
ATOM     31  C   UNL     1      -8.985   5.288   5.455  0.00  0.00    -0.014 C 
ATOM     32  C   UNL     1      -9.086   4.137   6.459  0.00  0.00    +0.011 C 
ATOM     33  C   UNL     1      -8.800   4.689   7.861  0.00  0.00    +0.005 C 
ATOM     34  C   UNL     1      -7.331   5.114   7.923  0.00  0.00    +0.030 C 
ATOM     35  C   UNL     1     -10.175   6.231   5.644  0.00  0.00    +0.015 C 
ATOM     36  C   UNL     1      -9.008   4.721   4.034  0.00  0.00    +0.015 C 
ENDBRANCH  27  30
ENDBRANCH  26  27
ENDBRANCH  12  26
TORSDOF 6
