REMARK  Name = ZINC04027841
REMARK  6 active torsions:
REMARK  status: ('A' for Active; 'I' for Inactive)
REMARK    1  A    between atoms: C_1  and  C_2
REMARK    2  A    between atoms: C_5  and  O_32
REMARK    3  A    between atoms: C_18  and  C_31
REMARK    4  A    between atoms: C_19  and  O_30
REMARK    5  A    between atoms: C_22  and  C_24
REMARK    6  A    between atoms: O_32  and  N_33
REMARK                            x       y       z     vdW  Elec       q    Type
REMARK                         _______ _______ _______ _____ _____    ______ ____
ROOT
ATOM      1  C   UNL     1       0.864  -1.949  -1.230  0.00  0.00    +0.012 C 
ATOM      2  C   UNL     1       0.777  -0.421  -1.226  0.00  0.00    -0.026 C 
ATOM      3  C   UNL     1       2.188   0.169  -1.236  0.00  0.00    +0.011 C 
ATOM      4  C   UNL     1       2.103   1.696  -1.228  0.00  0.00    +0.048 C 
ATOM      5  C   UNL     1       1.365   2.160   0.029  0.00  0.00    +0.209 C 
ATOM      6  C   UNL     1      -0.047   1.571   0.038  0.00  0.00    +0.051 C 
ATOM      7  C   UNL     1       0.038   0.043   0.031  0.00  0.00    -0.001 C 
ATOM      8  C   UNL     1      -1.373  -0.547   0.040  0.00  0.00    +0.004 C 
ATOM      9  C   UNL     1      -2.132  -0.076  -1.201  0.00  0.00    +0.007 C 
ATOM     10  C   UNL     1      -1.393  -0.539  -2.459  0.00  0.00    +0.025 C 
ATOM     11  C   UNL     1       0.017   0.050  -2.468  0.00  0.00    +0.001 C 
ATOM     12  C   UNL     1       0.743  -0.448  -3.723  0.00  0.00    +0.005 C 
ATOM     13  C   UNL     1       0.012   0.087  -4.951  0.00  0.00    +0.010 C 
ATOM     14  C   UNL     1      -1.419  -0.453  -5.008  0.00  0.00    +0.004 C 
ATOM     15  C   UNL     1      -2.154  -0.134  -3.697  0.00  0.00    +0.075 C 
ATOM     16  C   UNL     1      -2.446   1.357  -3.776  0.00  0.00    +0.036 C 
ATOM     17  C   UNL     1      -2.810   1.578  -5.262  0.00  0.00    +0.011 C 
ATOM     18  C   UNL     1      -2.181   0.412  -6.048  0.00  0.00    +0.027 C 
ATOM     19  C   UNL     1      -1.447  -1.938  -5.376  0.00  0.00    +0.014 C 
ENDROOT
BRANCH  18  20
ATOM     20  C   UNL     1      -3.257  -0.406  -6.713  0.00  0.00    -0.022 C 
ATOM     21  C   UNL     1      -3.301  -0.766  -7.993  0.00  0.00    +0.094 C 
ATOM     22  C   UNL     1      -4.510  -1.558  -8.238  0.00  0.00    +0.332 C 
ATOM     23  O   UNL     1      -4.827  -2.033  -9.311  0.00  0.00    -0.246 OA
ATOM     24  O   UNL     1      -5.219  -1.678  -7.100  0.00  0.00    -0.457 OA
ATOM     25  C   UNL     1      -4.495  -0.969  -6.055  0.00  0.00    +0.264 C 
ENDBRANCH  18  20
BRANCH  15  26
ATOM     26  O   UNL     1      -3.414  -0.808  -3.716  0.00  0.00    -0.388 OA
ATOM     27  H   UNL     1      -3.972  -0.619  -2.949  0.00  0.00    +0.210 HD
ENDBRANCH  15  26
BRANCH   5  28
ATOM     28  O   UNL     1       2.073   1.716   1.188  0.00  0.00    -0.348 OA
BRANCH  28  29
ATOM     29  N   UNL     1       3.121   2.581   1.589  0.00  0.00    +0.218 N 
ATOM     30  O   UNL     1       3.346   3.598   0.958  0.00  0.00    -0.090 OA
ATOM     31  O   UNL     1       3.796   2.307   2.565  0.00  0.00    -0.090 OA
ENDBRANCH  28  29
ENDBRANCH   5  28
TORSDOF 4
