REMARK  Name = ZINC01352814
REMARK  6 active torsions:
REMARK  status: ('A' for Active; 'I' for Inactive)
REMARK    1  A    between atoms: C_1  and  C_2
REMARK    2  A    between atoms: C_7  and  C_14
REMARK    3  A    between atoms: C_14  and  N_15
REMARK    4  A    between atoms: N_15  and  C_16
REMARK    5  A    between atoms: C_16  and  C_17
REMARK    6  A    between atoms: N_24  and  C_25
REMARK                            x       y       z     vdW  Elec       q    Type
REMARK                         _______ _______ _______ _____ _____    ______ ____
ROOT
ATOM      1  N   UNL     1       1.383  -2.634  -1.395  0.00  0.00    -0.276 N 
ATOM      2  C   UNL     1       0.278  -2.884  -2.124  0.00  0.00    +0.307 C 
ATOM      3  O   UNL     1      -0.823  -2.717  -1.636  0.00  0.00    -0.252 OA
ATOM      4  N   UNL     1       0.392  -3.318  -3.395  0.00  0.00    -0.268 N 
ATOM      5  H   UNL     1       1.267  -3.374  -3.812  0.00  0.00    +0.156 HD
ENDROOT
BRANCH   4   6
ATOM      6  C   UNL     1      -0.750  -3.690  -4.114  0.00  0.00    +0.053 A 
ATOM      7  C   UNL     1      -1.890  -4.109  -3.440  0.00  0.00    +0.025 A 
ATOM      8  C   UNL     1      -3.017  -4.471  -4.152  0.00  0.00    +0.002 A 
ATOM      9  C   UNL     1      -3.009  -4.426  -5.534  0.00  0.00    +0.002 A 
ATOM     10  C   UNL     1      -1.875  -4.014  -6.208  0.00  0.00    +0.022 A 
ATOM     11  C   UNL     1      -0.745  -3.646  -5.502  0.00  0.00    +0.062 A 
ATOM     12 CL   UNL     1       0.680  -3.130  -6.350  0.00  0.00    -0.082 Cl
ENDBRANCH   4   6
BRANCH   1  13
ATOM     13  C   UNL     1       1.259  -2.162  -0.014  0.00  0.00    +0.150 C 
BRANCH  13  20
ATOM     14  C   UNL     1       0.055   5.723   0.066  0.00  0.00    +0.044 C 
ATOM     15  C   UNL     1       0.049   4.216   0.053  0.00  0.00    -0.048 A 
ATOM     16  C   UNL     1      -1.160   3.533   0.055  0.00  0.00    +0.004 A 
ATOM     17  C   UNL     1      -1.187   2.167   0.048  0.00  0.00    +0.010 A 
ATOM     18  C   UNL     1       0.014   1.450   0.027  0.00  0.00    -0.001 A 
ATOM     19  C   UNL     1       0.021  -0.014   0.014  0.00  0.00    +0.020 A 
ATOM     20  C   UNL     1       1.216  -0.655  -0.000  0.00  0.00    +0.035 A 
ATOM     21  C   UNL     1       2.419   0.082  -0.002  0.00  0.00    +0.254 A 
ATOM     22  O   UNL     1       3.482  -0.514  -0.015  0.00  0.00    -0.268 OA
ATOM     23  N   UNL     1       2.422   1.427   0.011  0.00  0.00    -0.322 N 
ATOM     24  H   UNL     1       3.267   1.903   0.009  0.00  0.00    +0.169 HD
ATOM     25  C   UNL     1       1.241   2.139   0.025  0.00  0.00    +0.049 A 
ATOM     26  C   UNL     1       1.244   3.530   0.038  0.00  0.00    +0.029 A 
ENDBRANCH  13  20
ENDBRANCH   1  13
BRANCH   1  27
ATOM     27  C   UNL     1       2.710  -2.835  -1.984  0.00  0.00    +0.152 C 
BRANCH  27  28
ATOM     28  C   UNL     1       3.165  -4.248  -1.726  0.00  0.00    +0.007 A 
ATOM     29  C   UNL     1       2.971  -5.358  -2.479  0.00  0.00    +0.013 A 
ATOM     30  C   UNL     1       3.489  -6.564  -2.042  0.00  0.00    +0.008 A 
ATOM     31  C   UNL     1       4.166  -6.601  -0.869  0.00  0.00    +0.045 A 
ATOM     32  S   UNL     1       4.093  -4.896  -0.345  0.00  0.00    -0.100 S 
ENDBRANCH  27  28
ENDBRANCH   1  27
TORSDOF 5
