REMARK  Name = ZINC54205713
REMARK  3 active torsions:
REMARK  status: ('A' for Active; 'I' for Inactive)
REMARK    1  A    between atoms: C_3  and  C_9
REMARK    2  A    between atoms: C_9  and  C_11
REMARK    3  A    between atoms: C_9  and  N_24
REMARK                            x       y       z     vdW  Elec       q    Type
REMARK                         _______ _______ _______ _____ _____    ______ ____
ROOT
ATOM      1  C   UNL     1       3.671   2.190  -0.023  0.00  0.00    -0.009 C 
ENDROOT
BRANCH   1   2
ATOM      2  C   UNL     1       4.180   2.334   1.388  0.00  0.00    -0.042 A 
ATOM      3  C   UNL     1       3.795   3.421   2.150  0.00  0.00    +0.031 A 
ATOM      4  C   UNL     1       4.263   3.554   3.448  0.00  0.00    +0.067 A 
ATOM      5  C   UNL     1       5.122   2.589   3.981  0.00  0.00    +0.068 A 
ATOM      6  C   UNL     1       5.502   1.502   3.209  0.00  0.00    +0.043 A 
ATOM      7  C   UNL     1       5.026   1.375   1.918  0.00  0.00    +0.022 A 
ATOM      8 BR   UNL     1       5.538  -0.112   0.868  0.00  0.00    -0.050 Br
ATOM      9  N   UNL     1       5.418   2.988   5.282  0.00  0.00    -0.306 N 
ATOM     10  H   UNL     1       5.993   2.515   5.904  0.00  0.00    +0.170 HD
ATOM     11  C   UNL     1       4.769   4.142   5.530  0.00  0.00    +0.325 A 
ATOM     12  O   UNL     1       4.814   4.760   6.577  0.00  0.00    -0.247 OA
ATOM     13  N   UNL     1       4.065   4.509   4.443  0.00  0.00    -0.306 N 
ATOM     14  H   UNL     1       3.513   5.303   4.365  0.00  0.00    +0.170 HD
ENDBRANCH   1   2
BRANCH   1  17
ATOM     15  C   UNL     1       0.633   0.278   1.150  0.00  0.00    +0.003 A 
ATOM     16  C   UNL     1       1.761   1.077   1.152  0.00  0.00    +0.005 A 
ATOM     17  C   UNL     1       2.442   1.317  -0.026  0.00  0.00    -0.020 A 
ATOM     18  C   UNL     1       1.995   0.756  -1.210  0.00  0.00    +0.160 A 
ATOM     19  C   UNL     1       0.864  -0.046  -1.212  0.00  0.00    +0.159 A 
ATOM     20  C   UNL     1       0.184  -0.283  -0.030  0.00  0.00    +0.041 A 
ATOM     21  F   UNL     1       0.426  -0.594  -2.367  0.00  0.00    -0.202 F 
ATOM     22  F   UNL     1       2.660   0.991  -2.363  0.00  0.00    -0.202 F 
ENDBRANCH   1  17
BRANCH   1  23
ATOM     23  N   UNL     1       3.333   3.514  -0.559  0.00  0.00    +0.385 N 
ATOM     24  H   UNL     1       2.618   3.937   0.014  0.00  0.00    -0.089 HD
ATOM     25  H   UNL     1       4.155   4.098  -0.557  0.00  0.00    -0.089 HD
ATOM     26  H   UNL     1       2.992   3.417  -1.504  0.00  0.00    -0.089 HD
ENDBRANCH   1  23
TORSDOF 3
