REMARK  Name = ZINC37823299
REMARK  6 active torsions:
REMARK  status: ('A' for Active; 'I' for Inactive)
REMARK    1  A    between atoms: C_1  and  C_2
REMARK    2  A    between atoms: C_2  and  C_4
REMARK    3  A    between atoms: C_2  and  C_20
REMARK    4  A    between atoms: C_4  and  N_5
REMARK    5  A    between atoms: N_5  and  C_6
REMARK    6  A    between atoms: C_7  and  C_9
REMARK                            x       y       z     vdW  Elec       q    Type
REMARK                         _______ _______ _______ _____ _____    ______ ____
ROOT
ATOM      1  C   UNL     1      -1.795  -0.548  -4.144  0.00  0.00    +0.145 C 
ATOM      2  C   UNL     1      -0.975  -0.824  -5.404  0.00  0.00    +0.063 C 
ATOM      3  C   UNL     1      -1.841  -0.663  -6.627  0.00  0.00    -0.041 A 
ATOM      4  C   UNL     1      -1.224  -0.517  -7.860  0.00  0.00    +0.004 A 
ATOM      5  C   UNL     1      -1.981  -0.370  -9.006  0.00  0.00    +0.000 A 
ATOM      6  C   UNL     1      -3.361  -0.371  -8.923  0.00  0.00    +0.000 A 
ATOM      7  C   UNL     1      -3.976  -0.515  -7.696  0.00  0.00    +0.005 A 
ATOM      8  C   UNL     1      -3.217  -0.659  -6.543  0.00  0.00    -0.030 A 
ATOM      9  C   UNL     1      -3.934  -0.802  -5.226  0.00  0.00    +0.117 C 
ATOM     10  N   UNL     1      -3.033  -1.342  -4.204  0.00  0.00    -0.301 NA
ATOM     11  H   UNL     1      -2.831  -2.314  -4.382  0.00  0.00    +0.123 HD
ENDROOT
BRANCH   1  14
ATOM     12  N   UNL     1      -0.055  -0.114  -2.441  0.00  0.00    -0.302 N 
ATOM     13  C   UNL     1       0.199   1.171  -3.096  0.00  0.00    +0.132 C 
ATOM     14  C   UNL     1      -1.000  -0.943  -2.926  0.00  0.00    +0.233 C 
ATOM     15  O   UNL     1      -1.210  -2.007  -2.383  0.00  0.00    -0.274 OA
BRANCH  12  16
ATOM     16  C   UNL     1       0.718  -0.497  -1.257  0.00  0.00    +0.125 C 
BRANCH  16  18
ATOM     17  C   UNL     1      -0.019   1.526   0.010  0.00  0.00    +0.025 C 
ATOM     18  C   UNL     1       0.002  -0.004   0.002  0.00  0.00    +0.106 C 
BRANCH  18  19
ATOM     19  C   UNL     1       0.714  -0.492   1.195  0.00  0.00    +0.067 C 
ATOM     20  N   UNL     1       1.263  -0.868   2.115  0.00  0.00    -0.196 NA
ENDBRANCH  18  19
ENDBRANCH  16  18
ENDBRANCH  12  16
ENDBRANCH   1  14
TORSDOF 4
