REMARK  Name = ZINC04992874
REMARK  4 active torsions:
REMARK  status: ('A' for Active; 'I' for Inactive)
REMARK    1  A    between atoms: C_3  and  C_6
REMARK    2  A    between atoms: C_6  and  N_7
REMARK    3  A    between atoms: C_10  and  C_16
REMARK    4  A    between atoms: N_18  and  C_19
REMARK                            x       y       z     vdW  Elec       q    Type
REMARK                         _______ _______ _______ _____ _____    ______ ____
ROOT
ATOM      1  N   UNL     1       4.098   0.626   1.367  0.00  0.00    -0.248 NA
ATOM      2  C   UNL     1       4.656  -0.451   1.840  0.00  0.00    +0.183 C 
ATOM      3  N   UNL     1       5.046  -0.532   3.166  0.00  0.00    -0.305 N 
ATOM      4  C   UNL     1       6.312  -1.237   3.437  0.00  0.00    +0.168 C 
ATOM      5  C   UNL     1       6.209  -2.645   2.844  0.00  0.00    +0.128 C 
ATOM      6  C   UNL     1       5.626  -2.584   1.460  0.00  0.00    +0.221 C 
ATOM      7  O   UNL     1       5.839  -3.502   0.697  0.00  0.00    -0.275 OA
ATOM      8  N   UNL     1       4.873  -1.557   1.036  0.00  0.00    -0.258 N 
ATOM      9  H   UNL     1       4.478  -1.587   0.151  0.00  0.00    +0.157 HD
ATOM     10  H   UNL     1       4.515  -0.145   3.880  0.00  0.00    +0.149 HD
ENDROOT
BRANCH   4  11
ATOM     11  C   UNL     1       7.455  -0.495   2.793  0.00  0.00    +0.238 C 
ATOM     12  O   UNL     1       7.240   0.286   1.890  0.00  0.00    -0.273 OA
ATOM     13  N   UNL     1       8.717  -0.700   3.220  0.00  0.00    -0.283 N 
ATOM     14  H   UNL     1       8.899  -1.380   3.887  0.00  0.00    +0.155 HD
BRANCH  13  15
ATOM     15  C   UNL     1       9.765   0.070   2.701  0.00  0.00    +0.052 A 
ATOM     16  C   UNL     1       9.509   1.329   2.173  0.00  0.00    +0.026 A 
ATOM     17  C   UNL     1      10.544   2.086   1.662  0.00  0.00    +0.022 A 
ATOM     18  C   UNL     1      11.837   1.593   1.676  0.00  0.00    +0.042 A 
ATOM     19  C   UNL     1      12.097   0.339   2.201  0.00  0.00    +0.041 A 
ATOM     20  C   UNL     1      11.065  -0.421   2.720  0.00  0.00    +0.064 A 
ATOM     21 CL   UNL     1      11.392  -1.990   3.385  0.00  0.00    -0.082 Cl
ATOM     22 CL   UNL     1      13.136   2.548   1.031  0.00  0.00    -0.083 Cl
ENDBRANCH  13  15
ENDBRANCH   4  11
BRANCH   1  23
ATOM     23  C   UNL     1       3.592   0.646  -0.007  0.00  0.00    +0.219 C 
BRANCH  23  26
ATOM     24  C   UNL     1       0.045   1.646   0.021  0.00  0.00    +0.041 A 
ATOM     25  C   UNL     1       1.422   1.966  -0.005  0.00  0.00    +0.046 A 
ATOM     26  C   UNL     1       2.093   0.800   0.011  0.00  0.00    +0.126 A 
ATOM     27  O   UNL     1       1.201  -0.203   0.045  0.00  0.00    -0.466 OA
ATOM     28  C   UNL     1      -0.043   0.304   0.051  0.00  0.00    +0.195 A 
ENDBRANCH  23  26
ENDBRANCH   1  23
TORSDOF 4
