REMARK  Name = ZINC39730511
REMARK  8 active torsions:
REMARK  status: ('A' for Active; 'I' for Inactive)
REMARK    1  A    between atoms: C_1  and  C_2
REMARK    2  A    between atoms: C_4  and  C_12
REMARK    3  A    between atoms: C_12  and  C_14
REMARK    4  A    between atoms: C_14  and  C_16
REMARK    5  A    between atoms: C_14  and  S_17
REMARK    6  A    between atoms: S_17  and  C_18
REMARK    7  A    between atoms: N_24  and  C_25
REMARK    8  A    between atoms: C_25  and  C_26
REMARK                            x       y       z     vdW  Elec       q    Type
REMARK                         _______ _______ _______ _____ _____    ______ ____
ROOT
ATOM      1  C   UNL     1      -3.445  -0.808  -1.093  0.00  0.00    +0.117 C 
ATOM      2  C   UNL     1      -3.269  -2.264  -1.531  0.00  0.00    +0.027 C 
ENDROOT
BRANCH   1   3
ATOM      3  C   UNL     1      -2.295   0.015  -1.613  0.00  0.00    +0.174 C 
ATOM      4  O   UNL     1      -2.393   0.592  -2.677  0.00  0.00    -0.291 OA
BRANCH   3   7
ATOM      5  C   UNL     1      -0.315   2.464  -1.162  0.00  0.00    +0.035 C 
ATOM      6  C   UNL     1       0.094   0.990  -1.163  0.00  0.00    +0.111 C 
ATOM      7  C   UNL     1      -1.104   0.117  -0.863  0.00  0.00    +0.027 C 
ATOM      8  C   UNL     1      -0.788  -0.561   0.301  0.00  0.00    +0.006 A 
ATOM      9  C   UNL     1      -1.487  -1.512   1.081  0.00  0.00    +0.010 A 
ATOM     10  C   UNL     1      -0.925  -2.022   2.199  0.00  0.00    +0.001 A 
ATOM     11  C   UNL     1       0.354  -1.645   2.639  0.00  0.00    +0.002 A 
ATOM     12  C   UNL     1       1.105  -0.745   1.967  0.00  0.00    +0.026 A 
ATOM     13  C   UNL     1       0.567  -0.141   0.737  0.00  0.00    +0.043 A 
ATOM     14  N   UNL     1       1.063   0.735  -0.092  0.00  0.00    -0.377 N 
ATOM     15  H   UNL     1       1.935   1.152  -0.013  0.00  0.00    +0.160 HD
ENDBRANCH   3   7
ENDBRANCH   1   3
BRANCH   1  16
ATOM     16  S   UNL     1      -5.003  -0.161  -1.760  0.00  0.00    -0.115 S 
BRANCH  16  17
ATOM     17  C   UNL     1      -5.261   1.386  -0.847  0.00  0.00    +0.212 C 
ATOM     18  N   UNL     1      -4.013   2.177  -0.764  0.00  0.00    -0.244 N 
ATOM     19  N   UNL     1      -3.535   2.387   0.510  0.00  0.00    -0.163 NA
ATOM     20  C   UNL     1      -4.122   1.933   1.574  0.00  0.00    +0.174 C 
ATOM     21  S   UNL     1      -5.552   1.067   0.942  0.00  0.00    -0.054 S 
ATOM     22  N   UNL     1      -3.729   2.084   2.898  0.00  0.00    -0.315 N 
ATOM     23  H   UNL     1      -3.563   2.523  -1.551  0.00  0.00    +0.170 HD
ATOM     24  H   UNL     1      -4.260   1.691   3.609  0.00  0.00    +0.148 HD
BRANCH  22  25
ATOM     25  C   UNL     1      -2.514   2.836   3.221  0.00  0.00    +0.178 C 
BRANCH  25  26
ATOM     26  C   UNL     1      -2.315   2.851   4.714  0.00  0.00    +0.122 A 
ATOM     27  C   UNL     1      -1.620   1.945   5.424  0.00  0.00    +0.046 A 
ATOM     28  C   UNL     1      -1.691   2.343   6.779  0.00  0.00    +0.041 A 
ATOM     29  C   UNL     1      -2.426   3.469   6.816  0.00  0.00    +0.195 A 
ATOM     30  O   UNL     1      -2.796   3.776   5.562  0.00  0.00    -0.466 OA
ENDBRANCH  25  26
ENDBRANCH  22  25
ENDBRANCH  16  17
ENDBRANCH   1  16
TORSDOF 6
