REMARK  Name = ZINC53113380
REMARK  8 active torsions:
REMARK  status: ('A' for Active; 'I' for Inactive)
REMARK    1  A    between atoms: C_1  and  C_2
REMARK    2  A    between atoms: C_4  and  N_22
REMARK    3  A    between atoms: C_7  and  S_8
REMARK    4  A    between atoms: S_8  and  N_11
REMARK    5  A    between atoms: N_11  and  C_12
REMARK    6  A    between atoms: C_12  and  C_20
REMARK    7  A    between atoms: C_16  and  C_19
REMARK    8  A    between atoms: C_20  and  O_21
REMARK                            x       y       z     vdW  Elec       q    Type
REMARK                         _______ _______ _______ _____ _____    ______ ____
ROOT
ATOM      1  S   UNL     1       2.831  -0.307   3.031  0.00  0.00    +0.059 S 
ATOM      2  O   UNL     1       2.336  -0.993   4.173  0.00  0.00    -0.153 OA
ATOM      3  O   UNL     1       4.049   0.424   3.050  0.00  0.00    -0.153 OA
ENDROOT
BRANCH   1  10
ATOM      4  C   UNL     1       0.637  -2.228   2.235  0.00  0.00    +0.046 C 
ATOM      5  C   UNL     1       1.923  -2.344   1.458  0.00  0.00    -0.022 A 
ATOM      6  C   UNL     1       2.038  -3.282   0.451  0.00  0.00    +0.028 A 
ATOM      7  C   UNL     1       3.223  -3.389  -0.265  0.00  0.00    +0.025 A 
ATOM      8  C   UNL     1       4.290  -2.550   0.035  0.00  0.00    +0.024 A 
ATOM      9  C   UNL     1       4.168  -1.614   1.042  0.00  0.00    +0.030 A 
ATOM     10  C   UNL     1       2.984  -1.508   1.750  0.00  0.00    +0.108 A 
BRANCH   7  11
ATOM     11  N   UNL     1       3.343  -4.337  -1.284  0.00  0.00    -0.358 N 
ATOM     12  H   UNL     1       2.597  -4.922  -1.492  0.00  0.00    +0.142 HD
ATOM     13  H   UNL     1       4.171  -4.410  -1.783  0.00  0.00    +0.142 HD
ENDBRANCH   7  11
ENDBRANCH   1  10
BRANCH   1  14
ATOM     14  N   UNL     1       1.648   0.755   2.567  0.00  0.00    -0.182 NA
ATOM     15  H   UNL     1       0.800   0.772   3.037  0.00  0.00    +0.149 HD
BRANCH  14  16
ATOM     16  C   UNL     1       1.883   1.669   1.447  0.00  0.00    +0.063 C 
ATOM     17  C   UNL     1       0.587   2.411   1.113  0.00  0.00    +0.026 C 
ATOM     18  C   UNL     1       0.128   3.209   2.335  0.00  0.00    +0.002 C 
ATOM     19  C   UNL     1       1.209   4.220   2.720  0.00  0.00    +0.003 C 
ATOM     20  C   UNL     1       2.505   3.479   3.053  0.00  0.00    -0.012 C 
ATOM     21  C   UNL     1       2.965   2.681   1.832  0.00  0.00    +0.029 C 
ATOM     22  C   UNL     1       2.260   2.524   4.223  0.00  0.00    +0.007 C 
BRANCH  16  23
ATOM     23  C   UNL     1       2.343   0.871   0.225  0.00  0.00    +0.179 C 
BRANCH  23  24
ATOM     24  O   UNL     1       1.355  -0.107  -0.104  0.00  0.00    -0.393 OA
ATOM     25  H   UNL     1       1.611  -0.698  -0.825  0.00  0.00    +0.209 HD
ENDBRANCH  23  24
ENDBRANCH  16  23
ENDBRANCH  14  16
ENDBRANCH   1  14
TORSDOF 6
