REMARK  Name = ZINC44022571
REMARK  4 active torsions:
REMARK  status: ('A' for Active; 'I' for Inactive)
REMARK    1  A    between atoms: C_1  and  C_2
REMARK    2  A    between atoms: C_8  and  N_10
REMARK    3  A    between atoms: N_10  and  C_11
REMARK    4  A    between atoms: N_15  and  C_20
REMARK                            x       y       z     vdW  Elec       q    Type
REMARK                         _______ _______ _______ _____ _____    ______ ____
ROOT
ATOM      1  C   UNL     1       0.750   0.096   3.622  0.00  0.00    +0.105 A 
ATOM      2  C   UNL     1       0.115   0.530   4.752  0.00  0.00    +0.112 A 
ATOM      3  C   UNL     1       0.850   0.658   5.941  0.00  0.00    +0.258 A 
ATOM      4  O   UNL     1       0.304   1.044   6.961  0.00  0.00    -0.267 OA
ATOM      5  N   UNL     1       2.162   0.351   5.949  0.00  0.00    -0.264 N 
ATOM      6  C   UNL     1       2.771  -0.075   4.828  0.00  0.00    +0.330 A 
ATOM      7  O   UNL     1       3.956  -0.347   4.856  0.00  0.00    -0.246 OA
ATOM      8  N   UNL     1       2.088  -0.212   3.676  0.00  0.00    -0.296 N 
ATOM      9  H   UNL     1       2.543  -0.525   2.880  0.00  0.00    +0.172 HD
ATOM     10  C   UNL     1       2.932   0.484   7.188  0.00  0.00    +0.157 C 
ENDROOT
BRANCH   1  11
ATOM     11  N   UNL     1       0.056  -0.038   2.447  0.00  0.00    -0.327 N 
ATOM     12  H   UNL     1      -0.888   0.180   2.413  0.00  0.00    +0.148 HD
BRANCH  11  19
ATOM     13  C   UNL     1      -0.019   1.526   0.010  0.00  0.00    +0.009 C 
ATOM     14  C   UNL     1       0.002  -0.004   0.002  0.00  0.00    +0.006 C 
ATOM     15  C   UNL     1      -1.433  -0.534   0.013  0.00  0.00    +0.005 C 
ATOM     16  C   UNL     1      -1.413  -2.063   0.004  0.00  0.00    +0.000 C 
ATOM     17  C   UNL     1      -0.673  -2.570   1.244  0.00  0.00    +0.002 C 
ATOM     18  C   UNL     1       0.763  -2.041   1.233  0.00  0.00    +0.022 C 
ATOM     19  C   UNL     1       0.742  -0.511   1.242  0.00  0.00    +0.074 C 
ENDBRANCH  11  19
ENDBRANCH   1  11
TORSDOF 2
