REMARK  Name = ZINC08752067
REMARK  7 active torsions:
REMARK  status: ('A' for Active; 'I' for Inactive)
REMARK    1  A    between atoms: C_1  and  C_2
REMARK    2  A    between atoms: C_6  and  N_23
REMARK    3  A    between atoms: C_7  and  N_8
REMARK    4  A    between atoms: C_9  and  C_11
REMARK    5  A    between atoms: C_11  and  O_12
REMARK    6  A    between atoms: O_12  and  C_13
REMARK    7  A    between atoms: C_18  and  C_19
REMARK                            x       y       z     vdW  Elec       q    Type
REMARK                         _______ _______ _______ _____ _____    ______ ____
ROOT
ATOM      1  N   UNL     1       0.084   1.087  -0.196  0.00  0.00    -0.281 N 
ATOM      2  C   UNL     1      -1.054   1.434   0.437  0.00  0.00    +0.255 C 
ATOM      3  O   UNL     1      -1.115   2.481   1.046  0.00  0.00    -0.272 OA
ATOM      4  H   UNL     1       0.107   0.293  -0.752  0.00  0.00    +0.155 HD
ENDROOT
BRANCH   1  11
ATOM      5  C   UNL     1      -0.089   3.843  -0.886  0.00  0.00    +0.046 C 
ATOM      6  C   UNL     1       1.190   3.226  -0.381  0.00  0.00    -0.027 A 
ATOM      7  C   UNL     1       2.324   4.003  -0.242  0.00  0.00    +0.005 A 
ATOM      8  C   UNL     1       3.498   3.439   0.221  0.00  0.00    +0.003 A 
ATOM      9  C   UNL     1       3.542   2.095   0.546  0.00  0.00    +0.034 A 
ATOM     10  C   UNL     1       2.410   1.314   0.414  0.00  0.00    +0.148 A 
ATOM     11  C   UNL     1       1.231   1.877  -0.056  0.00  0.00    +0.067 A 
BRANCH  10  12
ATOM     12  N   UNL     1       2.456  -0.122   0.768  0.00  0.00    +0.058 N 
ATOM     13  O   UNL     1       3.514  -0.640   1.078  0.00  0.00    -0.126 OA
ATOM     14  O   UNL     1       1.436  -0.787   0.749  0.00  0.00    -0.126 OA
ENDBRANCH  10  12
ENDBRANCH   1  11
BRANCH   2  15
ATOM     15  C   UNL     1      -2.251   0.520   0.389  0.00  0.00    +0.324 C 
BRANCH  15  16
ATOM     16  O   UNL     1      -3.325   1.103   1.129  0.00  0.00    -0.482 OA
BRANCH  16  17
ATOM     17  C   UNL     1      -4.486   0.402   1.186  0.00  0.00    +0.133 A 
ATOM     18  C   UNL     1      -4.592  -0.822   0.543  0.00  0.00    +0.048 A 
ATOM     19  C   UNL     1      -5.773  -1.535   0.601  0.00  0.00    +0.023 A 
ATOM     20  C   UNL     1      -6.860  -1.034   1.301  0.00  0.00    +0.042 A 
ATOM     21  C   UNL     1      -6.772   0.182   1.946  0.00  0.00    +0.036 A 
ATOM     22  C   UNL     1      -5.580   0.910   1.899  0.00  0.00    +0.079 A 
ATOM     23 CL   UNL     1      -8.339  -1.941   1.366  0.00  0.00    -0.084 Cl
BRANCH  22  24
ATOM     24  C   UNL     1      -5.476   2.208   2.592  0.00  0.00    +0.245 C 
ATOM     25  O   UNL     1      -4.439   2.840   2.546  0.00  0.00    -0.270 OA
ATOM     26  N   UNL     1      -6.531   2.692   3.277  0.00  0.00    -0.325 N 
ATOM     27  H   UNL     1      -7.358   2.188   3.314  0.00  0.00    +0.145 HD
ATOM     28  H   UNL     1      -6.462   3.546   3.733  0.00  0.00    +0.145 HD
ENDBRANCH  22  24
ENDBRANCH  16  17
ENDBRANCH  15  16
ENDBRANCH   2  15
TORSDOF 6
