REMARK  Name = ZINC06462118
REMARK  14 active torsions:
REMARK  status: ('A' for Active; 'I' for Inactive)
REMARK    1  A    between atoms: C_1  and  C_2
REMARK    2  A    between atoms: C_2  and  C_3
REMARK    3  A    between atoms: C_3  and  C_4
REMARK    4  A    between atoms: C_3  and  C_5
REMARK    5  A    between atoms: C_3  and  N_6
REMARK    6  A    between atoms: C_7  and  C_9
REMARK    7  A    between atoms: C_9  and  C_11
REMARK    8  A    between atoms: C_9  and  N_17
REMARK    9  A    between atoms: C_14  and  C_16
REMARK   10  A    between atoms: N_17  and  C_18
REMARK   11  A    between atoms: C_18  and  C_19
REMARK   12  A    between atoms: C_26  and  C_28
REMARK   13  A    between atoms: C_29  and  N_36
REMARK   14  A    between atoms: C_30  and  C_33
REMARK                            x       y       z     vdW  Elec       q    Type
REMARK                         _______ _______ _______ _____ _____    ______ ____
ROOT
ATOM      1  N   UNL     1      -4.468   3.184   0.987  0.00  0.00    -0.274 N 
ATOM      2  C   UNL     1      -5.381   4.134   0.703  0.00  0.00    +0.258 C 
ATOM      3  O   UNL     1      -5.608   5.020   1.506  0.00  0.00    -0.269 OA
ENDROOT
BRANCH   2   4
ATOM      4  C   UNL     1      -6.101   4.101  -0.572  0.00  0.00    +0.115 A 
ATOM      5  C   UNL     1      -6.953   5.054  -1.133  0.00  0.00    +0.076 A 
ATOM      6  C   UNL     1      -7.452   4.660  -2.374  0.00  0.00    +0.155 A 
ATOM      7  N   UNL     1      -7.095   3.496  -2.871  0.00  0.00    -0.203 NA
ATOM      8  S   UNL     1      -6.116   2.837  -1.826  0.00  0.00    +0.019 S 
BRANCH   6   9
ATOM      9  C   UNL     1      -8.371   5.538  -3.120  0.00  0.00    +0.262 C 
ATOM     10  O   UNL     1      -8.698   6.613  -2.654  0.00  0.00    -0.269 OA
ATOM     11  N   UNL     1      -8.849   5.150  -4.319  0.00  0.00    -0.324 N 
ATOM     12  H   UNL     1      -8.589   4.293  -4.691  0.00  0.00    +0.145 HD
ATOM     13  H   UNL     1      -9.454   5.729  -4.810  0.00  0.00    +0.145 HD
ENDBRANCH   6   9
BRANCH   5  14
ATOM     14  N   UNL     1      -7.269   6.260  -0.522  0.00  0.00    -0.355 N 
ATOM     15  H   UNL     1      -6.890   6.479   0.344  0.00  0.00    +0.142 HD
ATOM     16  H   UNL     1      -7.868   6.884  -0.961  0.00  0.00    +0.142 HD
ENDBRANCH   5  14
ENDBRANCH   2   4
BRANCH   1  17
ATOM     17  C   UNL     1      -3.856   3.131   2.317  0.00  0.00    +0.229 C 
BRANCH  17  18
ATOM     18  C   UNL     1      -2.356   3.111   2.179  0.00  0.00    +0.135 A 
ATOM     19  C   UNL     1      -1.485   3.773   2.962  0.00  0.00    +0.047 A 
ATOM     20  C   UNL     1      -0.190   3.473   2.479  0.00  0.00    +0.045 A 
ATOM     21  C   UNL     1      -0.347   2.646   1.430  0.00  0.00    +0.102 A 
ATOM     22  O   UNL     1      -1.661   2.434   1.249  0.00  0.00    -0.462 OA
ATOM     23  C   UNL     1       0.762   2.060   0.595  0.00  0.00    +0.086 C 
ENDBRANCH  17  18
BRANCH  17  25
ATOM     24  N   UNL     1      -3.659   1.459   4.129  0.00  0.00    -0.308 N 
ATOM     25  C   UNL     1      -4.312   1.883   3.029  0.00  0.00    +0.242 C 
ATOM     26  O   UNL     1      -5.266   1.261   2.613  0.00  0.00    -0.273 OA
ATOM     27  H   UNL     1      -2.923   1.980   4.488  0.00  0.00    +0.149 HD
BRANCH  24  28
ATOM     28  C   UNL     1      -4.060   0.211   4.784  0.00  0.00    +0.029 C 
ATOM     29  C   UNL     1      -5.450   0.382   5.399  0.00  0.00    +0.031 C 
ATOM     30  C   UNL     1      -4.094  -0.918   3.751  0.00  0.00    +0.031 C 
BRANCH  28  32
ATOM     31  C   UNL     1      -3.473  -1.437   6.567  0.00  0.00    +0.006 C 
ATOM     32  C   UNL     1      -3.054  -0.134   5.884  0.00  0.00    +0.022 C 
ENDBRANCH  28  32
ENDBRANCH  24  28
ENDBRANCH  17  25
ENDBRANCH   1  17
BRANCH   1  33
ATOM     33  C   UNL     1      -4.088   2.205  -0.035  0.00  0.00    +0.147 C 
BRANCH  33  34
ATOM     34  C   UNL     1      -4.716   0.874   0.287  0.00  0.00    +0.005 A 
ATOM     35  C   UNL     1      -3.916  -0.221   0.556  0.00  0.00    +0.008 A 
ATOM     36  C   UNL     1      -4.492  -1.441   0.856  0.00  0.00    +0.000 A 
ATOM     37  C   UNL     1      -5.868  -1.571   0.877  0.00  0.00    +0.003 A 
ATOM     38  C   UNL     1      -6.670  -0.479   0.603  0.00  0.00    +0.038 A 
ATOM     39  C   UNL     1      -6.094   0.745   0.307  0.00  0.00    +0.128 A 
ATOM     40  F   UNL     1      -6.877   1.813   0.039  0.00  0.00    -0.205 F 
ENDBRANCH  33  34
ENDBRANCH   1  33
TORSDOF 10
