REMARK  Name = ZINC12413802
REMARK  8 active torsions:
REMARK  status: ('A' for Active; 'I' for Inactive)
REMARK    1  A    between atoms: C_1  and  C_2
REMARK    2  A    between atoms: C_2  and  O_3
REMARK    3  A    between atoms: O_3  and  C_4
REMARK    4  A    between atoms: C_4  and  C_6
REMARK    5  A    between atoms: C_7  and  C_36
REMARK    6  A    between atoms: C_9  and  C_12
REMARK    7  A    between atoms: C_10  and  O_11
REMARK    8  A    between atoms: C_17  and  C_18
REMARK                            x       y       z     vdW  Elec       q    Type
REMARK                         _______ _______ _______ _____ _____    ______ ____
ROOT
ATOM      1  C   UNL     1      -4.778  -0.522   0.831  0.00  0.00    +0.032 A 
ATOM      2  C   UNL     1      -5.794  -1.522   0.485  0.00  0.00    +0.090 A 
ATOM      3  C   UNL     1      -5.239  -2.332  -0.503  0.00  0.00    +0.126 A 
ATOM      4  N   UNL     1      -3.986  -1.884  -0.766  0.00  0.00    -0.340 N 
ATOM      5  H   UNL     1      -3.386  -2.274  -1.420  0.00  0.00    +0.167 HD
ATOM      6  C   UNL     1      -3.685  -0.798   0.030  0.00  0.00    +0.057 A 
ATOM      7  N   UNL     1      -5.997  -3.366  -1.010  0.00  0.00    -0.293 N 
ATOM      8  H   UNL     1      -5.614  -3.957  -1.720  0.00  0.00    +0.172 HD
ATOM      9  C   UNL     1      -7.245  -3.589  -0.565  0.00  0.00    +0.328 A 
ATOM     10  O   UNL     1      -7.879  -4.512  -1.041  0.00  0.00    -0.247 OA
ATOM     11  N   UNL     1      -7.820  -2.834   0.385  0.00  0.00    -0.274 N 
ATOM     12  H   UNL     1      -8.752  -3.039   0.684  0.00  0.00    +0.173 HD
ATOM     13  C   UNL     1      -7.153  -1.798   0.941  0.00  0.00    +0.264 A 
ATOM     14  O   UNL     1      -7.673  -1.113   1.803  0.00  0.00    -0.267 OA
ENDROOT
BRANCH   6  15
ATOM     15  C   UNL     1      -2.412  -0.053   0.024  0.00  0.00    +0.003 A 
ATOM     16  C   UNL     1      -2.417   1.345   0.026  0.00  0.00    +0.014 A 
ATOM     17  C   UNL     1      -1.226   2.037   0.016  0.00  0.00    +0.050 A 
ATOM     18  C   UNL     1      -0.017   1.353   0.010  0.00  0.00    +0.162 A 
ATOM     19  C   UNL     1      -0.004  -0.039   0.010  0.00  0.00    +0.163 A 
ATOM     20  C   UNL     1      -1.196  -0.742   0.016  0.00  0.00    +0.059 A 
ATOM     21  O   UNL     1       1.172  -0.724   0.005  0.00  0.00    -0.485 OA
ATOM     22  C   UNL     1       2.341   0.007  -0.379  0.00  0.00    +0.270 C 
ATOM     23  C   UNL     1       2.335   1.349   0.366  0.00  0.00    +0.270 C 
ATOM     24  O   UNL     1       1.147   2.059  -0.001  0.00  0.00    -0.485 OA
ENDBRANCH   6  15
BRANCH   1  28
ATOM     25  C   UNL     1      -4.403   2.000   3.668  0.00  0.00    +0.111 A 
ATOM     26  C   UNL     1      -5.602   2.629   3.383  0.00  0.00    +0.005 A 
ATOM     27  S   UNL     1      -6.206   1.751   2.019  0.00  0.00    -0.089 S 
ATOM     28  C   UNL     1      -4.898   0.557   1.829  0.00  0.00    +0.065 A 
ATOM     29  C   UNL     1      -4.030   0.888   2.832  0.00  0.00    +0.146 A 
ATOM     30  C   UNL     1      -6.229   3.803   4.089  0.00  0.00    +0.052 C 
BRANCH  25  31
ATOM     31  C   UNL     1      -3.548   2.446   4.777  0.00  0.00    +0.344 C 
ATOM     32  O   UNL     1      -2.694   3.289   4.585  0.00  0.00    -0.245 OA
BRANCH  31  33
ATOM     33  O   UNL     1      -3.711   1.920   6.008  0.00  0.00    -0.461 OA
BRANCH  33  35
ATOM     34  C   UNL     1      -3.163   1.701   8.370  0.00  0.00    +0.048 C 
ATOM     35  C   UNL     1      -2.831   2.408   7.055  0.00  0.00    +0.229 C 
ENDBRANCH  33  35
ENDBRANCH  31  33
ENDBRANCH  25  31
BRANCH  29  36
ATOM     36  O   UNL     1      -2.871   0.202   3.029  0.00  0.00    -0.505 OA
ATOM     37  H   UNL     1      -2.100   0.603   2.606  0.00  0.00    +0.292 HD
ENDBRANCH  29  36
ENDBRANCH   1  28
TORSDOF 6
