REMARK  Name = ZINC32088122
REMARK  1 active torsions:
REMARK  status: ('A' for Active; 'I' for Inactive)
REMARK    1  A    between atoms: C_1  and  N_2
REMARK                            x       y       z     vdW  Elec       q    Type
REMARK                         _______ _______ _______ _____ _____    ______ ____
ROOT
ATOM      1  C   UNL     1      -0.018   1.461   0.010  0.00  0.00    +0.138 C 
ATOM      2  N   UNL     1       0.002  -0.004   0.002  0.00  0.00    -0.273 N 
ATOM      3  C   UNL     1      -1.135  -0.793   0.003  0.00  0.00    +0.040 A 
ATOM      4  C   UNL     1      -2.478  -0.413   0.012  0.00  0.00    +0.024 A 
ATOM      5  C   UNL     1      -3.424  -1.426   0.010  0.00  0.00    +0.002 A 
ATOM      6  C   UNL     1      -3.067  -2.759   0.001  0.00  0.00    +0.000 A 
ATOM      7  C   UNL     1      -1.733  -3.151  -0.007  0.00  0.00    +0.007 A 
ATOM      8  C   UNL     1      -0.786  -2.150  -0.006  0.00  0.00    -0.006 A 
ATOM      9  C   UNL     1       0.709  -2.196  -0.015  0.00  0.00    +0.112 C 
ATOM     10  C   UNL     1       1.131  -0.743  -0.013  0.00  0.00    +0.235 C 
ATOM     11  O   UNL     1       2.269  -0.323  -0.021  0.00  0.00    -0.274 OA
ATOM     12  C   UNL     1       1.233  -2.892  -1.269  0.00  0.00    +0.122 C 
ATOM     13  C   UNL     1       1.175  -4.387  -1.128  0.00  0.00    +0.220 C 
ATOM     14  O   UNL     1       0.884  -5.058  -2.096  0.00  0.00    -0.275 OA
ATOM     15  N   UNL     1       1.435  -5.008   0.042  0.00  0.00    -0.270 N 
ATOM     16  C   UNL     1       1.571  -4.230   1.189  0.00  0.00    +0.135 A 
ATOM     17  C   UNL     1       1.241  -2.899   1.203  0.00  0.00    +0.032 A 
ATOM     18  C   UNL     1       1.490  -2.410   2.478  0.00  0.00    +0.141 A 
ATOM     19  N   UNL     1       1.942  -3.396   3.218  0.00  0.00    -0.171 NA
ATOM     20  N   UNL     1       1.992  -4.557   2.430  0.00  0.00    -0.194 N 
ATOM     21  C   UNL     1       2.403  -5.817   2.851  0.00  0.00    +0.196 A 
ATOM     22  N   UNL     1       2.477  -6.931   2.163  0.00  0.00    -0.221 NA
ATOM     23  C   UNL     1       2.898  -8.093   2.705  0.00  0.00    +0.081 A 
ATOM     24  C   UNL     1       3.024  -9.355   2.078  0.00  0.00    +0.029 A 
ATOM     25  C   UNL     1       3.471 -10.444   2.780  0.00  0.00    +0.002 A 
ATOM     26  C   UNL     1       3.814 -10.351   4.121  0.00  0.00    +0.001 A 
ATOM     27  C   UNL     1       3.704  -9.133   4.766  0.00  0.00    +0.017 A 
ATOM     28  C   UNL     1       3.258  -8.037   4.071  0.00  0.00    +0.041 A 
ATOM     29  S   UNL     1       2.971  -6.329   4.467  0.00  0.00    -0.048 S 
ATOM     30  H   UNL     1       1.526  -5.973   0.083  0.00  0.00    +0.156 HD
ENDROOT
TORSDOF 0
