REMARK  Name = ZINC57380548
REMARK  9 active torsions:
REMARK  status: ('A' for Active; 'I' for Inactive)
REMARK    1  A    between atoms: C_1  and  N_2
REMARK    2  A    between atoms: N_2  and  C_3
REMARK    3  A    between atoms: C_6  and  C_11
REMARK    4  A    between atoms: C_11  and  N_12
REMARK    5  A    between atoms: N_12  and  C_13
REMARK    6  A    between atoms: N_12  and  C_24
REMARK    7  A    between atoms: C_13  and  C_14
REMARK    8  A    between atoms: N_20  and  C_21
REMARK    9  A    between atoms: N_20  and  C_22
REMARK                            x       y       z     vdW  Elec       q    Type
REMARK                         _______ _______ _______ _____ _____    ______ ____
ROOT
ATOM      1  N   UNL     1      -1.564  -4.368  -3.006  0.00  0.00    -0.282 NA
ENDROOT
BRANCH   1   2
ATOM      2  C   UNL     1      -1.523  -3.991  -1.587  0.00  0.00    +0.024 C 
ATOM      3  C   UNL     1      -0.293  -4.620  -0.928  0.00  0.00    +0.026 C 
ATOM      4  C   UNL     1      -0.250  -4.227   0.550  0.00  0.00    -0.009 C 
ATOM      5  C   UNL     1      -0.171  -2.704   0.671  0.00  0.00    +0.007 C 
ATOM      6  C   UNL     1      -1.401  -2.076   0.013  0.00  0.00    -0.009 C 
ATOM      7  C   UNL     1      -1.444  -2.468  -1.465  0.00  0.00    +0.026 C 
ATOM      8  C   UNL     1      -2.666  -2.578   0.711  0.00  0.00    +0.007 C 
ATOM      9  C   UNL     1      -2.745  -4.102   0.590  0.00  0.00    -0.009 C 
ATOM     10  C   UNL     1      -1.515  -4.730   1.248  0.00  0.00    +0.007 C 
ATOM     11  C   UNL     1      -2.788  -4.494  -0.888  0.00  0.00    +0.026 C 
ENDBRANCH   1   2
BRANCH   1  12
ATOM     12  C   UNL     1      -0.240  -4.231  -3.626  0.00  0.00    +0.161 C 
BRANCH  12  18
ATOM     13  C   UNL     1       2.446   1.138  -2.448  0.00  0.00    +0.132 C 
ATOM     14  N   UNL     1       2.186  -0.299  -2.333  0.00  0.00    -0.306 N 
ATOM     15  C   UNL     1       2.909  -1.097  -1.339  0.00  0.00    +0.132 C 
ATOM     16  C   UNL     1       1.260  -0.901  -3.160  0.00  0.00    +0.222 A 
ATOM     17  N   UNL     1       0.971  -2.192  -3.009  0.00  0.00    -0.198 NA
ATOM     18  C   UNL     1       0.084  -2.769  -3.800  0.00  0.00    +0.150 A 
ATOM     19  N   UNL     1      -0.519  -2.069  -4.745  0.00  0.00    -0.198 NA
ATOM     20  C   UNL     1      -0.235  -0.778  -4.902  0.00  0.00    +0.217 A 
ATOM     21  N   UNL     1       0.652  -0.193  -4.104  0.00  0.00    -0.181 NA
ATOM     22  N   UNL     1      -0.865  -0.047  -5.889  0.00  0.00    -0.327 N 
ATOM     23  H   UNL     1      -1.515  -0.475  -6.469  0.00  0.00    +0.145 HD
ATOM     24  H   UNL     1      -0.658   0.893  -6.003  0.00  0.00    +0.145 HD
ENDBRANCH  12  18
ENDBRANCH   1  12
BRANCH   1  25
ATOM     25  C   UNL     1      -2.086  -5.731  -3.174  0.00  0.00    +0.161 C 
BRANCH  25  26
ATOM     26  C   UNL     1      -3.515  -5.667  -3.647  0.00  0.00    +0.150 A 
ATOM     27  N   UNL     1      -4.503  -5.781  -2.777  0.00  0.00    -0.198 NA
ATOM     28  C   UNL     1      -5.767  -5.725  -3.192  0.00  0.00    +0.217 A 
ATOM     29  N   UNL     1      -6.034  -5.554  -4.482  0.00  0.00    -0.181 NA
ATOM     30  C   UNL     1      -5.038  -5.441  -5.354  0.00  0.00    +0.222 A 
ATOM     31  N   UNL     1      -3.777  -5.493  -4.931  0.00  0.00    -0.198 NA
ATOM     32  N   UNL     1      -5.310  -5.264  -6.695  0.00  0.00    -0.306 N 
ATOM     33  C   UNL     1      -6.699  -5.202  -7.158  0.00  0.00    +0.132 C 
ATOM     34  C   UNL     1      -4.211  -5.139  -7.655  0.00  0.00    +0.132 C 
ATOM     35  N   UNL     1      -6.798  -5.844  -2.282  0.00  0.00    -0.327 N 
ATOM     36  H   UNL     1      -6.602  -5.968  -1.341  0.00  0.00    +0.145 HD
ATOM     37  H   UNL     1      -7.719  -5.803  -2.585  0.00  0.00    +0.145 HD
ENDBRANCH  25  26
ENDBRANCH   1  25
TORSDOF 5
