REMARK  Name = ZINC09586262
REMARK  4 active torsions:
REMARK  status: ('A' for Active; 'I' for Inactive)
REMARK    1  A    between atoms: C_12  and  C_13
REMARK    2  A    between atoms: C_12  and  N_52
REMARK    3  A    between atoms: N_15  and  C_16
REMARK    4  A    between atoms: C_17  and  C_24
REMARK                            x       y       z     vdW  Elec       q    Type
REMARK                         _______ _______ _______ _____ _____    ______ ____
ROOT
ATOM      1  C   UNL     1      -2.648   3.108  -5.347  0.00  0.00    +0.201 C 
ATOM      2  O   UNL     1      -3.637   3.340  -4.684  0.00  0.00    -0.278 OA
ATOM      3  N   UNL     1      -1.550   2.591  -4.761  0.00  0.00    -0.281 N 
ATOM      4  H   UNL     1      -0.759   2.406  -5.292  0.00  0.00    +0.155 HD
ENDROOT
BRANCH   3   5
ATOM      5  C   UNL     1      -1.551   2.324  -3.401  0.00  0.00    +0.084 A 
ATOM      6  C   UNL     1      -0.530   1.797  -2.627  0.00  0.00    +0.068 A 
ATOM      7  C   UNL     1      -0.790   1.611  -1.200  0.00  0.00    -0.023 A 
ATOM      8  C   UNL     1      -2.016   1.982  -0.789  0.00  0.00    -0.004 A 
ATOM      9  S   UNL     1      -2.827   2.567  -2.257  0.00  0.00    -0.077 S 
ATOM     10  C   UNL     1      -2.206   1.763   0.688  0.00  0.00    +0.043 C 
ATOM     11  C   UNL     1      -0.773   1.602   1.246  0.00  0.00    +0.010 C 
ATOM     12  C   UNL     1      -0.013   1.086   0.008  0.00  0.00    +0.037 C 
BRANCH   6  13
ATOM     13  C   UNL     1       0.763   1.440  -3.217  0.00  0.00    +0.244 C 
ATOM     14  O   UNL     1       0.944   0.318  -3.654  0.00  0.00    -0.270 OA
ATOM     15  N   UNL     1       1.753   2.353  -3.276  0.00  0.00    -0.325 N 
ATOM     16  H   UNL     1       1.609   3.247  -2.927  0.00  0.00    +0.145 HD
ATOM     17  H   UNL     1       2.609   2.117  -3.666  0.00  0.00    +0.145 HD
ENDBRANCH   6  13
ENDBRANCH   3   5
BRANCH   1  18
ATOM     18  C   UNL     1      -2.648   3.399  -6.825  0.00  0.00    +0.019 C 
BRANCH  18  28
ATOM     19  C   UNL     1      -5.337   3.178 -11.182  0.00  0.00    +0.000 C 
ATOM     20  C   UNL     1      -3.922   2.731 -10.809  0.00  0.00    -0.002 C 
ATOM     21  C   UNL     1      -3.797   2.648  -9.286  0.00  0.00    -0.015 C 
ATOM     22  C   UNL     1      -4.076   4.024  -8.677  0.00  0.00    -0.065 C 
ATOM     23  C   UNL     1      -5.494   4.465  -9.047  0.00  0.00    -0.025 C 
ATOM     24  C   UNL     1      -5.618   4.552 -10.570  0.00  0.00    +0.002 C 
ATOM     25  C   UNL     1      -5.772   5.838  -8.430  0.00  0.00    +0.000 C 
ATOM     26  C   UNL     1      -5.588   5.752  -6.912  0.00  0.00    -0.018 C 
ATOM     27  C   UNL     1      -4.169   5.269  -6.601  0.00  0.00    -0.078 C 
ATOM     28  N   UNL     1      -3.972   3.934  -7.206  0.00  0.00    +0.387 N 
ATOM     29  H   UNL     1      -4.700   3.300  -6.858  0.00  0.00    -0.081 HD
ENDBRANCH  18  28
ENDBRANCH   1  18
TORSDOF 4
