REMARK  Name = ZINC12252478
REMARK  7 active torsions:
REMARK  status: ('A' for Active; 'I' for Inactive)
REMARK    1  A    between atoms: C_1  and  C_2
REMARK    2  A    between atoms: C_3  and  O_26
REMARK    3  A    between atoms: C_12  and  C_13
REMARK    4  A    between atoms: C_13  and  S_14
REMARK    5  A    between atoms: S_14  and  C_15
REMARK    6  A    between atoms: C_18  and  C_21
REMARK    7  A    between atoms: N_19  and  N_20
REMARK                            x       y       z     vdW  Elec       q    Type
REMARK                         _______ _______ _______ _____ _____    ______ ____
ROOT
ATOM      1  C   UNL     1       2.729   9.584  -0.036  0.00  0.00    +0.113 C 
ENDROOT
BRANCH   1  13
ATOM      2  C   UNL     1       6.042  14.164  -2.927  0.00  0.00    +0.051 C 
ATOM      3  C   UNL     1       5.034  13.050  -2.801  0.00  0.00    +0.034 A 
ATOM      4  C   UNL     1       4.282  12.665  -3.899  0.00  0.00    +0.123 A 
ATOM      5  C   UNL     1       3.347  11.638  -3.792  0.00  0.00    +0.046 A 
ATOM      6  C   UNL     1       3.159  10.996  -2.603  0.00  0.00    +0.015 A 
ATOM      7  C   UNL     1       3.910  11.371  -1.483  0.00  0.00    +0.022 A 
ATOM      8  C   UNL     1       4.856  12.409  -1.585  0.00  0.00    +0.146 A 
ATOM      9  O   UNL     1       5.578  12.768  -0.502  0.00  0.00    -0.422 OA
ATOM     10  C   UNL     1       5.417  12.157   0.682  0.00  0.00    +0.338 A 
ATOM     11  O   UNL     1       6.091  12.516   1.631  0.00  0.00    -0.245 OA
ATOM     12  C   UNL     1       4.484  11.114   0.856  0.00  0.00    +0.097 A 
ATOM     13  C   UNL     1       3.730  10.700  -0.194  0.00  0.00    -0.020 A 
BRANCH   4  14
ATOM     14  O   UNL     1       4.457  13.295  -5.089  0.00  0.00    -0.506 OA
ATOM     15  H   UNL     1       5.130  12.889  -5.653  0.00  0.00    +0.292 HD
ENDBRANCH   4  14
ENDBRANCH   1  13
BRANCH   1  16
ATOM     16  S   UNL     1       3.530   8.001  -0.397  0.00  0.00    -0.080 S 
BRANCH  16  17
ATOM     17  C   UNL     1       2.172   6.907  -0.142  0.00  0.00    +0.209 A 
ATOM     18  N   UNL     1       0.953   7.246   0.210  0.00  0.00    -0.121 NA
ATOM     19  N   UNL     1       0.212   6.201   0.307  0.00  0.00    -0.126 NA
ATOM     20  C   UNL     1       0.914   5.126   0.021  0.00  0.00    +0.188 A 
ATOM     21  N   UNL     1       2.193   5.545  -0.271  0.00  0.00    -0.223 N 
BRANCH  20  22
ATOM     22  C   UNL     1       0.426   3.737   0.018  0.00  0.00    +0.058 A 
ATOM     23  C   UNL     1      -0.866   3.275   0.028  0.00  0.00    +0.019 A 
ATOM     24  C   UNL     1      -1.081   1.915   0.017  0.00  0.00    +0.008 A 
ATOM     25  C   UNL     1      -0.013   1.076   0.008  0.00  0.00    +0.046 A 
ATOM     26  S   UNL     1       1.361   2.216   0.001  0.00  0.00    -0.093 S 
ENDBRANCH  20  22
BRANCH  21  27
ATOM     27  N   UNL     1       3.259   4.765  -0.618  0.00  0.00    -0.295 N 
ATOM     28  H   UNL     1       3.307   4.643  -1.619  0.00  0.00    +0.163 HD
ATOM     29  H   UNL     1       4.120   5.149  -0.259  0.00  0.00    +0.163 HD
ENDBRANCH  21  27
ENDBRANCH  16  17
ENDBRANCH   1  16
TORSDOF 6
