REMARK  Name = ZINC20749006
REMARK  5 active torsions:
REMARK  status: ('A' for Active; 'I' for Inactive)
REMARK    1  A    between atoms: C_1  and  C_2
REMARK    2  A    between atoms: N_4  and  C_5
REMARK    3  A    between atoms: C_18  and  C_21
REMARK    4  A    between atoms: C_26  and  O_27
REMARK    5  A    between atoms: O_27  and  C_28
REMARK                            x       y       z     vdW  Elec       q    Type
REMARK                         _______ _______ _______ _____ _____    ______ ____
ROOT
ATOM      1  C   UNL     1      -0.552   4.072  -0.006  0.00  0.00    +0.034 A 
ATOM      2  C   UNL     1      -1.645   3.251   0.245  0.00  0.00    +0.025 A 
ATOM      3  C   UNL     1      -1.479   1.881   0.261  0.00  0.00    +0.025 A 
ATOM      4  C   UNL     1      -0.230   1.327   0.014  0.00  0.00    +0.031 A 
ATOM      5  C   UNL     1       0.865   2.139  -0.239  0.00  0.00    -0.018 A 
ATOM      6  C   UNL     1       0.694   3.516  -0.246  0.00  0.00    +0.029 A 
ATOM      7  C   UNL     1       2.211   1.587  -0.523  0.00  0.00    +0.049 C 
ATOM      8  C   UNL     1       3.112   1.780   0.674  0.00  0.00    -0.023 C 
ATOM      9  C   UNL     1       3.919   0.755   0.804  0.00  0.00    -0.030 C 
ATOM     10  C   UNL     1       3.669  -0.279  -0.307  0.00  0.00    +0.033 C 
ATOM     11  C   UNL     1       2.220   0.065  -0.763  0.00  0.00    +0.029 C 
ATOM     12  C   UNL     1       1.261  -0.624   0.212  0.00  0.00    +0.108 C 
ATOM     13  N   UNL     1      -0.083  -0.067   0.029  0.00  0.00    -0.336 N 
ATOM     14  H   UNL     1      -0.945  -0.740  -0.092  0.00  0.00    +0.147 HD
ENDROOT
BRANCH  12  15
ATOM     15  C   UNL     1       1.719  -0.380   1.627  0.00  0.00    +0.015 A 
ATOM     16  C   UNL     1       1.276   0.733   2.316  0.00  0.00    +0.009 A 
ATOM     17  C   UNL     1       1.696   0.957   3.614  0.00  0.00    +0.001 A 
ATOM     18  C   UNL     1       2.560   0.067   4.227  0.00  0.00    +0.004 A 
ATOM     19  C   UNL     1       3.006  -1.047   3.543  0.00  0.00    +0.046 A 
ATOM     20  C   UNL     1       2.581  -1.277   2.242  0.00  0.00    +0.125 A 
BRANCH  20  21
ATOM     21  O   UNL     1       3.014  -2.375   1.569  0.00  0.00    -0.495 OA
ATOM     22  C   UNL     1       3.900  -3.255   2.264  0.00  0.00    +0.277 C 
ENDBRANCH  20  21
ENDBRANCH  12  15
BRANCH   1  26
ATOM     23  C   UNL     1      -1.978   7.507  -0.598  0.00  0.00    +0.109 C 
ATOM     24  C   UNL     1      -1.848   6.010  -0.491  0.00  0.00    +0.214 C 
ATOM     25  O   UNL     1      -2.766   5.295  -0.833  0.00  0.00    -0.276 OA
ATOM     26  N   UNL     1      -0.711   5.464  -0.015  0.00  0.00    -0.286 N 
ATOM     27  H   UNL     1       0.092   6.112   0.366  0.00  0.00    +0.155 HD
ENDBRANCH   1  26
TORSDOF 3
