REMARK  Name = ZINC67623453
REMARK  7 active torsions:
REMARK  status: ('A' for Active; 'I' for Inactive)
REMARK    1  A    between atoms: C_1  and  C_2
REMARK    2  A    between atoms: N_5  and  C_8
REMARK    3  A    between atoms: C_8  and  C_9
REMARK    4  A    between atoms: C_9  and  C_11
REMARK    5  A    between atoms: C_9  and  O_26
REMARK    6  A    between atoms: C_11  and  N_12
REMARK    7  A    between atoms: N_15  and  C_16
REMARK                            x       y       z     vdW  Elec       q    Type
REMARK                         _______ _______ _______ _____ _____    ______ ____
ROOT
ATOM      1  N   UNL     1       0.630  -6.349   4.007  0.00  0.00    -0.297 N 
ATOM      2  C   UNL     1       0.786  -7.662   4.270  0.00  0.00    +0.300 C 
ATOM      3  O   UNL     1       0.440  -8.491   3.452  0.00  0.00    -0.253 OA
ATOM      4  N   UNL     1       1.328  -8.054   5.441  0.00  0.00    -0.292 N 
ATOM      5  H   UNL     1       0.906  -5.687   4.660  0.00  0.00    +0.150 HD
ATOM      6  H   UNL     1       1.605  -7.392   6.093  0.00  0.00    +0.151 HD
ENDROOT
BRANCH   4   7
ATOM      7  C   UNL     1       1.499  -9.481   5.727  0.00  0.00    +0.108 C 
ATOM      8  C   UNL     1       2.625  -9.671   6.750  0.00  0.00    +0.027 C 
ATOM      9  C   UNL     1       2.624 -11.120   7.246  0.00  0.00    +0.010 C 
ATOM     10  C   UNL     1       1.387 -11.362   8.119  0.00  0.00    +0.075 C 
ATOM     11  C   UNL     1       0.171 -10.869   7.372  0.00  0.00    +0.110 A 
ATOM     12  C   UNL     1       0.226 -10.037   6.311  0.00  0.00    +0.014 A 
ATOM     13  C   UNL     1      -1.097  -9.812   5.889  0.00  0.00    +0.047 A 
ATOM     14  C   UNL     1      -1.891 -10.519   6.718  0.00  0.00    +0.195 A 
ATOM     15  O   UNL     1      -1.113 -11.155   7.615  0.00  0.00    -0.467 OA
ENDBRANCH   4   7
BRANCH   1  16
ATOM     16  C   UNL     1       0.041  -5.922   2.735  0.00  0.00    +0.135 C 
BRANCH  16  17
ATOM     17  C   UNL     1      -0.023  -4.394   2.690  0.00  0.00    +0.115 C 
BRANCH  17  18
ATOM     18  O   UNL     1       1.303  -3.862   2.691  0.00  0.00    -0.392 OA
ATOM     19  H   UNL     1       1.841  -4.147   1.940  0.00  0.00    +0.210 HD
ENDBRANCH  17  18
BRANCH  17  20
ATOM     20  C   UNL     1      -0.750  -3.952   1.419  0.00  0.00    -0.046 C 
BRANCH  20  25
ATOM     21  C   UNL     1      -2.158   1.567   1.124  0.00  0.00    +0.007 C 
ATOM     22  C   UNL     1      -2.222   0.038   1.151  0.00  0.00    -0.018 C 
ATOM     23  C   UNL     1      -1.674  -0.474   2.486  0.00  0.00    -0.016 C 
ATOM     24  C   UNL     1      -1.667  -2.005   2.474  0.00  0.00    -0.078 C 
ATOM     25  N   UNL     1      -0.817  -2.485   1.378  0.00  0.00    +0.381 N 
ATOM     26  C   UNL     1      -1.376  -2.057   0.090  0.00  0.00    -0.078 C 
ATOM     27  C   UNL     1      -1.372  -0.529   0.010  0.00  0.00    -0.016 C 
ATOM     28  H   UNL     1       0.112  -2.105   1.483  0.00  0.00    -0.082 HD
ENDBRANCH  20  25
ENDBRANCH  17  20
ENDBRANCH  16  17
ENDBRANCH   1  16
TORSDOF 6
