REMARK  Name = ZINC07445587
REMARK  5 active torsions:
REMARK  status: ('A' for Active; 'I' for Inactive)
REMARK    1  A    between atoms: C_12  and  C_13
REMARK    2  A    between atoms: C_12  and  N_55
REMARK    3  A    between atoms: C_13  and  C_14
REMARK    4  A    between atoms: N_16  and  C_17
REMARK    5  A    between atoms: C_18  and  C_27
REMARK                            x       y       z     vdW  Elec       q    Type
REMARK                         _______ _______ _______ _____ _____    ______ ____
ROOT
ATOM      1  C   UNL     1      -0.742   1.585  -1.213  0.00  0.00    +0.216 C 
ATOM      2  O   UNL     1      -1.736   2.268  -1.088  0.00  0.00    -0.276 OA
ATOM      3  N   UNL     1      -0.288   1.272  -2.443  0.00  0.00    -0.279 N 
ATOM      4  H   UNL     1       0.507   0.726  -2.543  0.00  0.00    +0.155 HD
ENDROOT
BRANCH   3   5
ATOM      5  C   UNL     1      -0.960   1.732  -3.568  0.00  0.00    +0.090 A 
ATOM      6  C   UNL     1      -0.649   1.524  -4.901  0.00  0.00    +0.084 A 
ATOM      7  C   UNL     1      -1.525   2.115  -5.902  0.00  0.00    -0.018 A 
ATOM      8  C   UNL     1      -2.558   2.830  -5.404  0.00  0.00    -0.004 A 
ATOM      9  S   UNL     1      -2.386   2.712  -3.644  0.00  0.00    -0.077 S 
ATOM     10  C   UNL     1      -3.609   3.573  -6.168  0.00  0.00    +0.043 C 
ATOM     11  C   UNL     1      -4.184   2.659  -7.258  0.00  0.00    +0.005 C 
ATOM     12  C   UNL     1      -3.350   2.834  -8.523  0.00  0.00    +0.001 C 
ATOM     13  C   UNL     1      -1.894   3.118  -8.158  0.00  0.00    +0.005 C 
ATOM     14  C   UNL     1      -1.296   1.939  -7.398  0.00  0.00    +0.037 C 
BRANCH   6  15
ATOM     15  C   UNL     1       0.494   0.750  -5.282  0.00  0.00    +0.102 C 
ATOM     16  N   UNL     1       1.401   0.136  -5.585  0.00  0.00    -0.191 NA
ENDBRANCH   6  15
ENDBRANCH   3   5
BRANCH   1  17
ATOM     17  C   UNL     1      -0.013   1.086   0.008  0.00  0.00    +0.077 C 
BRANCH  17  18
ATOM     18  C   UNL     1      -0.729   1.579   1.267  0.00  0.00    -0.069 C 
BRANCH  18  30
ATOM     19  C   UNL     1       2.164  -1.547   8.274  0.00  0.00    +0.039 A 
ATOM     20  C   UNL     1       1.525  -2.432   7.419  0.00  0.00    +0.116 A 
ATOM     21  N   UNL     1       0.894  -1.960   6.356  0.00  0.00    -0.223 NA
ATOM     22  C   UNL     1       0.869  -0.660   6.105  0.00  0.00    +0.218 A 
ATOM     23  N   UNL     1       1.474   0.212   6.898  0.00  0.00    -0.223 NA
ATOM     24  C   UNL     1       2.118  -0.193   7.981  0.00  0.00    +0.116 A 
ATOM     25  N   UNL     1       0.200  -0.201   4.984  0.00  0.00    -0.303 N 
ATOM     26  C   UNL     1       0.286   1.262   4.880  0.00  0.00    +0.089 C 
ATOM     27  C   UNL     1      -0.531   1.735   3.675  0.00  0.00    -0.060 C 
ATOM     28  C   UNL     1      -0.105  -0.371   2.560  0.00  0.00    -0.060 C 
ATOM     29  C   UNL     1       0.712  -0.844   3.765  0.00  0.00    +0.089 C 
ATOM     30  N   UNL     1       0.009   1.099   2.455  0.00  0.00    +0.382 N 
ATOM     31  H   UNL     1       0.999   1.351   2.357  0.00  0.00    -0.082 HD
ENDBRANCH  18  30
ENDBRANCH  17  18
ENDBRANCH   1  17
TORSDOF 5
