REMARK  Name = ZINC55502907
REMARK  6 active torsions:
REMARK  status: ('A' for Active; 'I' for Inactive)
REMARK    1  A    between atoms: C_1  and  C_2
REMARK    2  A    between atoms: C_8  and  C_19
REMARK    3  A    between atoms: C_12  and  C_13
REMARK    4  A    between atoms: C_13  and  O_15
REMARK    5  A    between atoms: O_15  and  C_16
REMARK    6  A    between atoms: C_16  and  C_17
REMARK                            x       y       z     vdW  Elec       q    Type
REMARK                         _______ _______ _______ _____ _____    ______ ____
ROOT
ATOM      1  C   UNL     1      -0.018   1.503   0.010  0.00  0.00    +0.046 C 
ATOM      2  C   UNL     1       0.002  -0.004   0.002  0.00  0.00    -0.015 A 
ATOM      3  C   UNL     1       0.005  -0.697  -1.210  0.00  0.00    +0.076 A 
ATOM      4  C   UNL     1      -0.009  -0.162  -2.590  0.00  0.00    +0.260 A 
ATOM      5  O   UNL     1      -0.025   1.040  -2.793  0.00  0.00    -0.267 OA
ATOM      6  N   UNL     1      -0.002  -1.034  -3.616  0.00  0.00    -0.306 N 
ATOM      7  H   UNL     1      -0.011  -0.699  -4.527  0.00  0.00    +0.170 HD
ATOM      8  C   UNL     1       0.018  -2.383  -3.399  0.00  0.00    +0.142 A 
ATOM      9  N   UNL     1       0.030  -2.885  -2.183  0.00  0.00    -0.222 NA
ATOM     10  C   UNL     1       0.025  -2.109  -1.112  0.00  0.00    +0.117 A 
ATOM     11  S   UNL     1       0.037  -2.396   0.640  0.00  0.00    -0.062 S 
ATOM     12  C   UNL     1       0.023  -0.694   1.180  0.00  0.00    +0.102 A 
ENDROOT
BRANCH   8  13
ATOM     13  C   UNL     1       0.025  -3.299  -4.557  0.00  0.00    +0.018 A 
ATOM     14  C   UNL     1       0.018  -2.786  -5.856  0.00  0.00    +0.014 A 
ATOM     15  C   UNL     1       0.025  -3.646  -6.933  0.00  0.00    +0.039 A 
ATOM     16  C   UNL     1       0.040  -5.017  -6.729  0.00  0.00    +0.123 A 
ATOM     17  C   UNL     1       0.047  -5.532  -5.442  0.00  0.00    +0.039 A 
ATOM     18  C   UNL     1       0.045  -4.681  -4.357  0.00  0.00    +0.014 A 
ATOM     19  F   UNL     1       0.046  -5.855  -7.789  0.00  0.00    -0.205 F 
ENDBRANCH   8  13
BRANCH  12  20
ATOM     20  C   UNL     1       0.030  -0.169   2.546  0.00  0.00    +0.347 C 
ATOM     21  O   UNL     1       0.015   1.032   2.736  0.00  0.00    -0.244 OA
BRANCH  20  22
ATOM     22  O   UNL     1       0.052  -1.018   3.595  0.00  0.00    -0.457 OA
BRANCH  22  23
ATOM     23  C   UNL     1       0.057  -0.436   4.900  0.00  0.00    +0.259 C 
BRANCH  23  24
ATOM     24  C   UNL     1       0.082  -1.530   5.937  0.00  0.00    +0.006 C 
ATOM     25  C   UNL     1       0.893  -1.442   6.962  0.00  0.00    +0.007 C 
ENDBRANCH  23  24
ENDBRANCH  22  23
ENDBRANCH  20  22
ENDBRANCH  12  20
TORSDOF 5
