REMARK  Name = ZINC12825322
REMARK  6 active torsions:
REMARK  status: ('A' for Active; 'I' for Inactive)
REMARK    1  A    between atoms: C_1  and  C_2
REMARK    2  A    between atoms: C_2  and  C_3
REMARK    3  A    between atoms: C_3  and  C_21
REMARK    4  A    between atoms: N_6  and  C_10
REMARK    5  A    between atoms: C_10  and  C_11
REMARK    6  A    between atoms: C_13  and  C_16
REMARK                            x       y       z     vdW  Elec       q    Type
REMARK                         _______ _______ _______ _____ _____    ______ ____
ROOT
ATOM      1  C   UNL     1       1.612   4.481   3.460  0.00  0.00    +0.138 C 
ATOM      2  C   UNL     1       0.985   4.206   2.108  0.00  0.00    +0.251 C 
ATOM      3  O   UNL     1      -0.140   4.485   1.752  0.00  0.00    -0.272 OA
ATOM      4  N   UNL     1       1.937   3.586   1.383  0.00  0.00    -0.215 N 
ATOM      5  C   UNL     1       3.069   3.439   2.081  0.00  0.00    +0.310 C 
ATOM      6  O   UNL     1       4.071   2.912   1.638  0.00  0.00    -0.252 OA
ATOM      7  N   UNL     1       2.975   3.939   3.326  0.00  0.00    -0.281 N 
ATOM      8  H   UNL     1       3.669   3.942   4.003  0.00  0.00    +0.152 HD
ENDROOT
BRANCH   1   9
ATOM      9  C   UNL     1       1.655   5.963   3.732  0.00  0.00    -0.015 A 
ATOM     10  C   UNL     1       0.642   6.561   4.459  0.00  0.00    +0.009 A 
ATOM     11  C   UNL     1       0.683   7.918   4.715  0.00  0.00    +0.039 A 
ATOM     12  C   UNL     1       1.733   8.682   4.232  0.00  0.00    +0.123 A 
ATOM     13  C   UNL     1       2.743   8.082   3.499  0.00  0.00    +0.039 A 
ATOM     14  C   UNL     1       2.703   6.724   3.250  0.00  0.00    +0.009 A 
ATOM     15  F   UNL     1       1.771  10.010   4.475  0.00  0.00    -0.205 F 
ENDBRANCH   1   9
BRANCH   1  17
ATOM     16  C   UNL     1       0.883   2.246   4.306  0.00  0.00    +0.007 C 
ATOM     17  C   UNL     1       0.850   3.753   4.569  0.00  0.00    +0.037 C 
ENDBRANCH   1  17
BRANCH   4  18
ATOM     18  C   UNL     1       1.756   3.134   0.002  0.00  0.00    +0.216 C 
BRANCH  18  19
ATOM     19  C   UNL     1       1.240   1.718  -0.001  0.00  0.00    +0.246 A 
ATOM     20  N   UNL     1      -0.016   1.350   0.009  0.00  0.00    -0.187 NA
ATOM     21  C   UNL     1       0.002  -0.004   0.002  0.00  0.00    +0.237 A 
ATOM     22  N   UNL     1       1.260  -0.372  -0.012  0.00  0.00    -0.053 NA
ATOM     23  O   UNL     1       1.979   0.604  -0.014  0.00  0.00    -0.336 OA
BRANCH  21  24
ATOM     24  C   UNL     1      -1.174  -0.898   0.008  0.00  0.00    +0.175 A 
ATOM     25  C   UNL     1      -1.144  -2.257  -0.005  0.00  0.00    +0.053 A 
ATOM     26  C   UNL     1      -2.482  -2.693   0.009  0.00  0.00    +0.042 A 
ATOM     27  C   UNL     1      -3.257  -1.590   0.022  0.00  0.00    +0.196 A 
ATOM     28  O   UNL     1      -2.464  -0.508   0.021  0.00  0.00    -0.460 OA
ENDBRANCH  21  24
ENDBRANCH  18  19
ENDBRANCH   4  18
TORSDOF 5
