REMARK  Name = ZINC16953599
REMARK  6 active torsions:
REMARK  status: ('A' for Active; 'I' for Inactive)
REMARK    1  A    between atoms: C_1  and  C_2
REMARK    2  A    between atoms: C_3  and  C_4
REMARK    3  A    between atoms: C_10  and  C_11
REMARK    4  A    between atoms: C_10  and  O_15
REMARK    5  A    between atoms: C_11  and  O_13
REMARK    6  A    between atoms: O_13  and  C_14
REMARK                            x       y       z     vdW  Elec       q    Type
REMARK                         _______ _______ _______ _____ _____    ______ ____
ROOT
ATOM      1  C   UNL     1      -2.109   2.943  -0.388  0.00  0.00    +0.018 C 
ATOM      2  C   UNL     1      -2.346   3.363   0.871  0.00  0.00    +0.091 C 
ATOM      3  C   UNL     1      -1.375   2.929   1.786  0.00  0.00    +0.196 C 
ATOM      4  O   UNL     1      -1.361   3.172   2.976  0.00  0.00    -0.289 OA
ATOM      5  C   UNL     1      -0.348   2.107   1.040  0.00  0.00    +0.199 C 
ATOM      6  C   UNL     1      -0.840   2.118  -0.420  0.00  0.00    +0.212 C 
ATOM      7 CL   UNL     1       1.281   2.869   1.162  0.00  0.00    -0.109 Cl
ATOM      8 CL   UNL     1      -3.712   4.339   1.314  0.00  0.00    -0.079 Cl
ENDROOT
BRANCH   1  11
ATOM      9  C   UNL     1      -4.725   1.885  -0.512  0.00  0.00    +0.035 C 
ATOM     10  C   UNL     1      -4.212   2.811  -1.585  0.00  0.00    -0.030 C 
ATOM     11  C   UNL     1      -2.947   3.240  -1.547  0.00  0.00    +0.004 C 
ENDBRANCH   1  11
BRANCH   6  12
ATOM     12  C   UNL     1      -1.136   0.715  -0.884  0.00  0.00    +0.346 C 
ATOM     13  O   UNL     1      -1.382  -0.149  -0.077  0.00  0.00    -0.247 OA
BRANCH  12  14
ATOM     14  O   UNL     1      -1.126   0.426  -2.195  0.00  0.00    -0.466 OA
ATOM     15  C   UNL     1      -1.532  -0.914  -2.578  0.00  0.00    +0.280 C 
ENDBRANCH  12  14
ENDBRANCH   6  12
BRANCH   6  16
ATOM     16  O   UNL     1       0.133   2.729  -1.268  0.00  0.00    -0.372 OA
ATOM     17  H   UNL     1      -0.092   2.702  -2.208  0.00  0.00    +0.211 HD
ENDBRANCH   6  16
TORSDOF 4
