REMARK  Name = ZINC15967815
REMARK  8 active torsions:
REMARK  status: ('A' for Active; 'I' for Inactive)
REMARK    1  A    between atoms: C_1  and  C_2
REMARK    2  A    between atoms: C_2  and  C_3
REMARK    3  A    between atoms: C_14  and  C_17
REMARK    4  A    between atoms: C_17  and  C_18
REMARK    5  A    between atoms: C_21  and  O_25
REMARK    6  A    between atoms: C_22  and  O_24
REMARK    7  A    between atoms: N_28  and  C_31
REMARK    8  A    between atoms: C_31  and  C_32
REMARK                            x       y       z     vdW  Elec       q    Type
REMARK                         _______ _______ _______ _____ _____    ______ ____
ROOT
ATOM      1  C   UNL     1      -1.412  -0.526   0.013  0.00  0.00    -0.047 A 
ATOM      2  C   UNL     1      -2.053  -0.767   1.214  0.00  0.00    +0.005 A 
ATOM      3  C   UNL     1      -3.347  -1.243   1.230  0.00  0.00    +0.024 A 
ATOM      4  C   UNL     1      -4.019  -1.486   0.034  0.00  0.00    +0.039 A 
ATOM      5  C   UNL     1      -3.363  -1.242  -1.169  0.00  0.00    +0.004 A 
ATOM      6  C   UNL     1      -2.074  -0.759  -1.179  0.00  0.00    +0.011 A 
ATOM      7  C   UNL     1      -4.341  -1.605  -2.250  0.00  0.00    +0.136 C 
ATOM      8  C   UNL     1      -4.636  -0.414  -3.170  0.00  0.00    +0.122 C 
ATOM      9  C   UNL     1      -4.812  -1.043  -4.580  0.00  0.00    +0.107 C 
ATOM     10  C   UNL     1      -4.608  -2.558  -4.366  0.00  0.00    +0.072 C 
ATOM     11  N   UNL     1      -3.812  -2.669  -3.123  0.00  0.00    -0.295 NA
ATOM     12  C   UNL     1      -6.263  -0.765  -4.905  0.00  0.00    +0.227 C 
ATOM     13  O   UNL     1      -6.826  -1.090  -5.928  0.00  0.00    -0.275 OA
ATOM     14  N   UNL     1      -6.829  -0.106  -3.888  0.00  0.00    -0.237 N 
ATOM     15  C   UNL     1      -6.000   0.154  -2.851  0.00  0.00    +0.229 C 
ATOM     16  O   UNL     1      -6.294   0.741  -1.832  0.00  0.00    -0.275 OA
ATOM     17  C   UNL     1      -5.578  -2.057  -1.523  0.00  0.00    +0.243 C 
ATOM     18  O   UNL     1      -6.615  -2.438  -2.025  0.00  0.00    -0.273 OA
ATOM     19  N   UNL     1      -5.310  -1.959  -0.207  0.00  0.00    -0.283 N 
ATOM     20  H   UNL     1      -2.833  -2.523  -3.317  0.00  0.00    +0.124 HD
ATOM     21  H   UNL     1      -5.942  -2.190   0.493  0.00  0.00    +0.155 HD
ENDROOT
BRANCH   1  23
ATOM     22  C   UNL     1      -0.019   1.526   0.010  0.00  0.00    +0.009 C 
ATOM     23  C   UNL     1       0.002  -0.004   0.002  0.00  0.00    +0.032 C 
ENDBRANCH   1  23
BRANCH  10  24
ATOM     24  C   UNL     1      -3.861  -3.167  -5.554  0.00  0.00    +0.054 C 
BRANCH  24  25
ATOM     25  C   UNL     1      -3.779  -4.662  -5.383  0.00  0.00    -0.042 A 
ATOM     26  C   UNL     1      -2.709  -5.223  -4.712  0.00  0.00    +0.007 A 
ATOM     27  C   UNL     1      -2.630  -6.593  -4.553  0.00  0.00    +0.049 A 
ATOM     28  C   UNL     1      -3.625  -7.409  -5.066  0.00  0.00    +0.158 A 
ATOM     29  C   UNL     1      -4.703  -6.845  -5.741  0.00  0.00    +0.158 A 
ATOM     30  C   UNL     1      -4.779  -5.470  -5.893  0.00  0.00    +0.052 A 
BRANCH  29  31
ATOM     31  O   UNL     1      -5.683  -7.642  -6.247  0.00  0.00    -0.503 OA
ATOM     32  H   UNL     1      -6.410  -7.809  -5.632  0.00  0.00    +0.292 HD
ENDBRANCH  29  31
BRANCH  28  33
ATOM     33  O   UNL     1      -3.549  -8.758  -4.910  0.00  0.00    -0.503 OA
ATOM     34  H   UNL     1      -3.970  -9.086  -4.104  0.00  0.00    +0.292 HD
ENDBRANCH  28  33
ENDBRANCH  24  25
ENDBRANCH  10  24
BRANCH  14  35
ATOM     35  C   UNL     1      -8.233   0.309  -3.896  0.00  0.00    +0.151 C 
BRANCH  35  36
ATOM     36  C   UNL     1      -9.084  -0.784  -3.303  0.00  0.00    -0.030 A 
ATOM     37  C   UNL     1      -9.606  -1.772  -4.116  0.00  0.00    +0.005 A 
ATOM     38  C   UNL     1     -10.386  -2.775  -3.571  0.00  0.00    +0.000 A 
ATOM     39  C   UNL     1     -10.644  -2.790  -2.213  0.00  0.00    +0.000 A 
ATOM     40  C   UNL     1     -10.121  -1.802  -1.400  0.00  0.00    +0.000 A 
ATOM     41  C   UNL     1      -9.338  -0.802  -1.944  0.00  0.00    +0.005 A 
ENDBRANCH  35  36
ENDBRANCH  14  35
TORSDOF 7
