REMARK  Name = ZINC33033287
REMARK  8 active torsions:
REMARK  status: ('A' for Active; 'I' for Inactive)
REMARK    1  A    between atoms: C_1  and  C_2
REMARK    2  A    between atoms: C_2  and  O_3
REMARK    3  A    between atoms: O_3  and  C_4
REMARK    4  A    between atoms: C_12  and  C_14
REMARK    5  A    between atoms: C_17  and  N_29
REMARK    6  A    between atoms: C_18  and  N_20
REMARK    7  A    between atoms: N_20  and  S_21
REMARK    8  A    between atoms: S_21  and  C_24
REMARK                            x       y       z     vdW  Elec       q    Type
REMARK                         _______ _______ _______ _____ _____    ______ ____
ROOT
ATOM      1  C   UNL     1       2.288  -5.245   6.253  0.00  0.00    +0.039 A 
ATOM      2  C   UNL     1       1.770  -6.144   5.317  0.00  0.00    +0.015 A 
ATOM      3  C   UNL     1       1.835  -7.500   5.553  0.00  0.00    +0.026 A 
ATOM      4  C   UNL     1       2.414  -7.978   6.722  0.00  0.00    +0.054 A 
ATOM      5  C   UNL     1       2.933  -7.085   7.663  0.00  0.00    +0.096 A 
ATOM      6  C   UNL     1       2.877  -5.724   7.427  0.00  0.00    +0.041 A 
ENDROOT
BRANCH   1  15
ATOM      7  C   UNL     1      -2.544  -1.492   5.886  0.00  0.00    +0.403 C 
ATOM      8  O   UNL     1      -2.615  -0.288   5.741  0.00  0.00    -0.226 OA
ATOM      9  N   UNL     1      -1.369  -2.063   6.219  0.00  0.00    -0.264 N 
ATOM     10  C   UNL     1      -1.268  -3.519   6.392  0.00  0.00    +0.130 C 
ATOM     11  C   UNL     1      -0.159  -4.045   5.472  0.00  0.00    +0.127 C 
ATOM     12  N   UNL     1       1.044  -3.223   5.668  0.00  0.00    -0.295 N 
ATOM     13  C   UNL     1       0.942  -1.767   5.495  0.00  0.00    +0.127 C 
ATOM     14  C   UNL     1      -0.166  -1.241   6.409  0.00  0.00    +0.130 C 
ATOM     15  C   UNL     1       2.218  -3.794   6.000  0.00  0.00    +0.247 C 
ATOM     16  O   UNL     1       3.221  -3.112   6.092  0.00  0.00    -0.270 OA
BRANCH   7  17
ATOM     17  O   UNL     1      -3.639  -2.257   5.715  0.00  0.00    -0.451 OA
BRANCH  17  19
ATOM     18  C   UNL     1      -5.977  -2.610   5.212  0.00  0.00    +0.048 C 
ATOM     19  C   UNL     1      -4.851  -1.585   5.363  0.00  0.00    +0.230 C 
ENDBRANCH  17  19
ENDBRANCH   7  17
ENDBRANCH   1  15
BRANCH   4  20
ATOM     20  N   UNL     1       2.477  -9.350   6.957  0.00  0.00    -0.332 N 
ATOM     21  C   UNL     1       1.387 -10.049   7.654  0.00  0.00    +0.086 C 
ATOM     22  C   UNL     1       0.982 -11.270   6.821  0.00  0.00    -0.063 C 
ATOM     23  N   UNL     1       2.165 -12.099   6.562  0.00  0.00    +0.381 N 
ATOM     24  C   UNL     1       3.125 -11.357   5.735  0.00  0.00    -0.063 C 
ATOM     25  C   UNL     1       3.634 -10.142   6.509  0.00  0.00    +0.086 C 
ATOM     26  H   UNL     1       2.599 -12.346   7.439  0.00  0.00    -0.086 HD
ATOM     27  H   UNL     1       1.886 -12.940   6.080  0.00  0.00    -0.086 HD
ENDBRANCH   4  20
BRANCH   5  28
ATOM     28  N   UNL     1       3.516  -7.568   8.841  0.00  0.00    -0.095 NA
BRANCH  28  29
ATOM     29  S   UNL     1       4.131  -6.509   9.956  0.00  0.00    +0.098 S 
ATOM     30  O   UNL     1       5.243  -5.872   9.341  0.00  0.00    -0.148 OA
ATOM     31  O   UNL     1       3.028  -5.780  10.475  0.00  0.00    -0.148 OA
BRANCH  29  32
ATOM     32  C   UNL     1       4.773  -7.468  11.287  0.00  0.00    +0.148 A 
ATOM     33  C   UNL     1       6.022  -7.967  11.455  0.00  0.00    +0.037 A 
ATOM     34  C   UNL     1       6.304  -8.700  12.593  0.00  0.00    +0.010 A 
ATOM     35  C   UNL     1       5.322  -8.897  13.507  0.00  0.00    +0.047 A 
ATOM     36  S   UNL     1       3.949  -8.028  12.769  0.00  0.00    -0.077 S 
ENDBRANCH  29  32
ENDBRANCH  28  29
ENDBRANCH   5  28
TORSDOF 7
