REMARK  Name = ZINC06501497
REMARK  16 active torsions:
REMARK  status: ('A' for Active; 'I' for Inactive)
REMARK    1  A    between atoms: C_1  and  C_2
REMARK    2  A    between atoms: C_2  and  C_3
REMARK    3  A    between atoms: C_3  and  C_4
REMARK    4  A    between atoms: C_4  and  C_6
REMARK    5  A    between atoms: C_4  and  N_14
REMARK    6  A    between atoms: N_8  and  C_9
REMARK    7  A    between atoms: C_9  and  C_10
REMARK    8  A    between atoms: C_10  and  C_11
REMARK    9  A    between atoms: C_11  and  C_12
REMARK   10  A    between atoms: C_11  and  C_13
REMARK   11  A    between atoms: N_14  and  C_15
REMARK   12  A    between atoms: C_18  and  C_22
REMARK   13  A    between atoms: C_20  and  C_21
REMARK   14  A    between atoms: C_23  and  C_25
REMARK   15  A    between atoms: C_26  and  N_33
REMARK   16  A    between atoms: C_27  and  C_30
REMARK                            x       y       z     vdW  Elec       q    Type
REMARK                         _______ _______ _______ _____ _____    ______ ____
ROOT
ATOM      1  N   UNL     1      -3.508   1.918   0.159  0.00  0.00    -0.255 N 
ATOM      2  C   UNL     1      -4.406   2.000  -0.843  0.00  0.00    +0.261 C 
ATOM      3  O   UNL     1      -4.308   1.266  -1.810  0.00  0.00    -0.269 OA
ENDROOT
BRANCH   1   4
ATOM      4  C   UNL     1      -3.621   2.761   1.269  0.00  0.00    +0.040 A 
ATOM      5  C   UNL     1      -3.023   4.015   1.254  0.00  0.00    +0.024 A 
ATOM      6  C   UNL     1      -3.140   4.846   2.350  0.00  0.00    +0.005 A 
ATOM      7  C   UNL     1      -3.842   4.428   3.466  0.00  0.00    -0.050 A 
ATOM      8  C   UNL     1      -4.434   3.179   3.486  0.00  0.00    +0.008 A 
ATOM      9  C   UNL     1      -4.325   2.344   2.390  0.00  0.00    -0.029 A 
ATOM     10  C   UNL     1      -4.971   0.982   2.413  0.00  0.00    +0.045 C 
ATOM     11  C   UNL     1      -3.963   5.336   4.663  0.00  0.00    +0.044 C 
ENDBRANCH   1   4
BRANCH   2  12
ATOM     12  C   UNL     1      -5.499   2.971  -0.769  0.00  0.00    +0.116 A 
ATOM     13  C   UNL     1      -6.525   3.220  -1.683  0.00  0.00    +0.076 A 
ATOM     14  C   UNL     1      -7.386   4.232  -1.257  0.00  0.00    +0.155 A 
ATOM     15  N   UNL     1      -7.164   4.821  -0.103  0.00  0.00    -0.203 NA
ATOM     16  S   UNL     1      -5.880   4.145   0.514  0.00  0.00    +0.019 S 
BRANCH  14  17
ATOM     17  C   UNL     1      -8.532   4.636  -2.092  0.00  0.00    +0.262 C 
ATOM     18  O   UNL     1      -8.731   4.086  -3.158  0.00  0.00    -0.269 OA
ATOM     19  N   UNL     1      -9.359   5.614  -1.673  0.00  0.00    -0.324 N 
ATOM     20  H   UNL     1      -9.200   6.052  -0.822  0.00  0.00    +0.145 HD
ATOM     21  H   UNL     1     -10.113   5.880  -2.222  0.00  0.00    +0.145 HD
ENDBRANCH  14  17
BRANCH  13  22
ATOM     22  N   UNL     1      -6.672   2.537  -2.883  0.00  0.00    -0.355 N 
ATOM     23  H   UNL     1      -6.040   1.842  -3.126  0.00  0.00    +0.142 HD
ATOM     24  H   UNL     1      -7.406   2.755  -3.478  0.00  0.00    +0.142 HD
ENDBRANCH  13  22
ENDBRANCH   2  12
BRANCH   1  25
ATOM     25  C   UNL     1      -2.414   0.946   0.084  0.00  0.00    +0.167 C 
BRANCH  25  26
ATOM     26  C   UNL     1      -2.985  -0.447   0.017  0.00  0.00    +0.234 C 
ATOM     27  O   UNL     1      -4.186  -0.612   0.029  0.00  0.00    -0.274 OA
ATOM     28  N   UNL     1      -2.159  -1.510  -0.058  0.00  0.00    -0.314 N 
ATOM     29  H   UNL     1      -1.198  -1.378  -0.068  0.00  0.00    +0.149 HD
BRANCH  28  30
ATOM     30  C   UNL     1      -2.713  -2.865  -0.118  0.00  0.00    +0.104 C 
BRANCH  30  31
ATOM     31  C   UNL     1      -1.571  -3.880  -0.190  0.00  0.00    +0.022 C 
BRANCH  31  32
ATOM     32  C   UNL     1      -2.149  -5.295  -0.252  0.00  0.00    -0.016 C 
ATOM     33  C   UNL     1      -2.929  -5.470  -1.557  0.00  0.00    +0.007 C 
ATOM     34  C   UNL     1      -1.010  -6.315  -0.199  0.00  0.00    +0.007 C 
ENDBRANCH  31  32
ENDBRANCH  30  31
ENDBRANCH  28  30
ENDBRANCH  25  26
BRANCH  25  35
ATOM     35  C   UNL     1      -1.576   1.216  -1.167  0.00  0.00    +0.032 C 
BRANCH  35  37
ATOM     36  C   UNL     1      -0.188   2.916  -2.360  0.00  0.00    +0.004 C 
ATOM     37  C   UNL     1      -0.937   2.602  -1.063  0.00  0.00    -0.001 C 
ENDBRANCH  35  37
ENDBRANCH  25  35
ENDBRANCH   1  25
TORSDOF 11
