REMARK  Name = ZINC33907372
REMARK  8 active torsions:
REMARK  status: ('A' for Active; 'I' for Inactive)
REMARK    1  A    between atoms: C_4  and  C_7
REMARK    2  A    between atoms: C_8  and  C_9
REMARK    3  A    between atoms: N_11  and  C_12
REMARK    4  A    between atoms: C_12  and  C_14
REMARK    5  A    between atoms: C_12  and  N_18
REMARK    6  A    between atoms: N_18  and  C_19
REMARK    7  A    between atoms: C_19  and  N_21
REMARK    8  A    between atoms: N_21  and  C_22
REMARK                            x       y       z     vdW  Elec       q    Type
REMARK                         _______ _______ _______ _____ _____    ______ ____
ROOT
ATOM      1  C   UNL     1       0.703  -5.376   0.086  0.00  0.00    +0.211 C 
ENDROOT
BRANCH   1   4
ATOM      2  C   UNL     1       1.653  -3.271  -0.691  0.00  0.00    +0.238 C 
ATOM      3  O   UNL     1       0.524  -2.827  -0.778  0.00  0.00    -0.271 OA
ATOM      4  N   UNL     1       1.849  -4.536  -0.268  0.00  0.00    -0.290 N 
ATOM      5  H   UNL     1       2.750  -4.890  -0.198  0.00  0.00    +0.151 HD
BRANCH   2   7
ATOM      6  C   UNL     1       2.601  -1.218  -1.596  0.00  0.00    +0.013 C 
ATOM      7  C   UNL     1       2.800  -2.432  -1.044  0.00  0.00    +0.068 C 
BRANCH   6  11
ATOM      8  C   UNL     1      -1.270  -0.096  -2.919  0.00  0.00    +0.000 A 
ATOM      9  C   UNL     1      -0.539   0.766  -2.119  0.00  0.00    +0.001 A 
ATOM     10  C   UNL     1       0.720   0.408  -1.685  0.00  0.00    +0.008 A 
ATOM     11  C   UNL     1       1.258  -0.829  -2.055  0.00  0.00    -0.025 A 
ATOM     12  C   UNL     1       0.513  -1.693  -2.863  0.00  0.00    +0.008 A 
ATOM     13  C   UNL     1      -0.744  -1.321  -3.289  0.00  0.00    +0.001 A 
ENDBRANCH   6  11
ENDBRANCH   2   7
ENDBRANCH   1   4
BRANCH   1  14
ATOM     14  C   UNL     1       0.880  -6.766  -0.527  0.00  0.00    +0.225 C 
ATOM     15 CL   UNL     1       2.392  -7.515   0.109  0.00  0.00    -0.080 Cl
ATOM     16 CL   UNL     1      -0.531  -7.800  -0.091  0.00  0.00    -0.080 Cl
ATOM     17 CL   UNL     1       0.989  -6.623  -2.321  0.00  0.00    -0.080 Cl
ENDBRANCH   1  14
BRANCH   1  18
ATOM     18  N   UNL     1       0.614  -5.493   1.544  0.00  0.00    -0.305 N 
ATOM     19  H   UNL     1       1.235  -6.063   2.023  0.00  0.00    +0.150 HD
BRANCH  18  20
ATOM     20  C   UNL     1      -0.330  -4.808   2.219  0.00  0.00    +0.136 C 
ATOM     21  S   UNL     1      -1.426  -3.801   1.372  0.00  0.00    -0.019 S 
BRANCH  20  22
ATOM     22  N   UNL     1      -0.412  -4.915   3.560  0.00  0.00    -0.296 N 
ATOM     23  H   UNL     1       0.189  -5.510   4.036  0.00  0.00    +0.154 HD
BRANCH  22  24
ATOM     24  C   UNL     1      -1.362  -4.168   4.265  0.00  0.00    +0.053 A 
ATOM     25  C   UNL     1      -1.601  -2.844   3.921  0.00  0.00    +0.044 A 
ATOM     26  C   UNL     1      -2.541  -2.109   4.620  0.00  0.00    +0.043 A 
ATOM     27  C   UNL     1      -3.242  -2.692   5.661  0.00  0.00    +0.021 A 
ATOM     28  C   UNL     1      -3.006  -4.010   6.006  0.00  0.00    +0.023 A 
ATOM     29  C   UNL     1      -2.073  -4.752   5.307  0.00  0.00    +0.062 A 
ATOM     30 CL   UNL     1      -1.782  -6.409   5.736  0.00  0.00    -0.082 Cl
ATOM     31 CL   UNL     1      -2.840  -0.454   4.191  0.00  0.00    -0.083 Cl
ENDBRANCH  22  24
ENDBRANCH  20  22
ENDBRANCH  18  20
ENDBRANCH   1  18
TORSDOF 8
