REMARK  Name = ZINC23633876
REMARK  5 active torsions:
REMARK  status: ('A' for Active; 'I' for Inactive)
REMARK    1  A    between atoms: C_1  and  C_2
REMARK    2  A    between atoms: C_8  and  N_10
REMARK    3  A    between atoms: C_14  and  C_16
REMARK    4  A    between atoms: C_16  and  O_17
REMARK    5  A    between atoms: O_17  and  C_18
REMARK                            x       y       z     vdW  Elec       q    Type
REMARK                         _______ _______ _______ _____ _____    ______ ____
ROOT
ATOM      1  N   UNL     1      -2.119  -0.061   1.218  0.00  0.00    -0.296 N 
ATOM      2  C   UNL     1      -3.462   0.049   1.230  0.00  0.00    +0.306 C 
ATOM      3  O   UNL     1      -4.105  -0.243   0.240  0.00  0.00    -0.252 OA
ATOM      4  N   UNL     1      -4.093   0.484   2.339  0.00  0.00    -0.237 N 
ATOM      5  C   UNL     1      -5.436   0.594   2.350  0.00  0.00    +0.258 C 
ATOM      6  O   UNL     1      -6.077   0.303   1.363  0.00  0.00    -0.272 OA
ATOM      7  H   UNL     1      -1.538   0.203   2.114  0.00  0.00    +0.151 HD
ATOM      8  H   UNL     1      -3.512   0.748   3.234  0.00  0.00    +0.159 HD
ENDROOT
BRANCH   1  15
ATOM      9  C   UNL     1      -0.019   1.526   0.010  0.00  0.00    +0.009 C 
ATOM     10  C   UNL     1       0.002  -0.004   0.002  0.00  0.00    +0.006 C 
ATOM     11  C   UNL     1       0.742  -0.511   1.242  0.00  0.00    +0.005 C 
ATOM     12  C   UNL     1       0.763  -2.041   1.233  0.00  0.00    +0.000 C 
ATOM     13  C   UNL     1      -0.673  -2.570   1.244  0.00  0.00    +0.002 C 
ATOM     14  C   UNL     1      -1.413  -2.063   0.004  0.00  0.00    +0.022 C 
ATOM     15  C   UNL     1      -1.433  -0.534   0.013  0.00  0.00    +0.077 C 
ENDBRANCH   1  15
BRANCH   5  16
ATOM     16  C   UNL     1      -6.142   1.080   3.590  0.00  0.00    +0.325 C 
BRANCH  16  17
ATOM     17  O   UNL     1      -7.551   1.111   3.356  0.00  0.00    -0.482 OA
BRANCH  17  18
ATOM     18  C   UNL     1      -8.339   1.529   4.382  0.00  0.00    +0.135 A 
ATOM     19  C   UNL     1      -7.767   1.897   5.590  0.00  0.00    +0.049 A 
ATOM     20  C   UNL     1      -8.568   2.326   6.631  0.00  0.00    +0.042 A 
ATOM     21  C   UNL     1      -9.942   2.380   6.471  0.00  0.00    +0.125 A 
ATOM     22  C   UNL     1     -10.515   2.008   5.267  0.00  0.00    +0.057 A 
ATOM     23  C   UNL     1      -9.716   1.583   4.223  0.00  0.00    +0.062 A 
ATOM     24 BR   UNL     1     -10.499   1.075   2.578  0.00  0.00    -0.046 Br
ATOM     25  F   UNL     1     -10.725   2.796   7.491  0.00  0.00    -0.205 F 
ENDBRANCH  17  18
ENDBRANCH  16  17
ENDBRANCH   5  16
TORSDOF 4
