REMARK  Name = ZINC39359226
REMARK  4 active torsions:
REMARK  status: ('A' for Active; 'I' for Inactive)
REMARK    1  A    between atoms: C_4  and  O_30
REMARK    2  A    between atoms: C_5  and  C_7
REMARK    3  A    between atoms: C_10  and  O_29
REMARK    4  A    between atoms: C_21  and  C_24
REMARK                            x       y       z     vdW  Elec       q    Type
REMARK                         _______ _______ _______ _____ _____    ______ ____
ROOT
ATOM      1  C   UNL     1       1.227  -2.187  -0.022  0.00  0.00    +0.092 C 
ATOM      2  C   UNL     1       0.516  -2.715   1.188  0.00  0.00    +0.049 C 
ATOM      3  C   UNL     1       0.191  -2.213   2.359  0.00  0.00    +0.235 C 
ATOM      4  N   UNL     1      -0.578  -3.097   3.052  0.00  0.00    -0.114 NA
ATOM      5  N   UNL     1      -0.768  -4.174   2.473  0.00  0.00    -0.157 NA
ATOM      6  C   UNL     1      -0.028  -4.146   1.210  0.00  0.00    +0.245 C 
ATOM      7  N   UNL     1      -0.903  -4.209   0.037  0.00  0.00    -0.321 N 
ATOM      8  C   UNL     1      -0.493  -3.640  -1.143  0.00  0.00    +0.014 C 
ATOM      9  C   UNL     1       0.481  -2.709  -1.241  0.00  0.00    +0.024 C 
ATOM     10  C   UNL     1       0.859  -2.170  -2.482  0.00  0.00    +0.162 C 
ATOM     11  O   UNL     1       1.732  -1.324  -2.521  0.00  0.00    -0.292 OA
ATOM     12  C   UNL     1       0.209  -2.614  -3.763  0.00  0.00    +0.088 C 
ATOM     13  C   UNL     1      -0.270  -4.060  -3.592  0.00  0.00    +0.039 C 
ATOM     14  C   UNL     1      -1.218  -4.114  -2.387  0.00  0.00    +0.060 C 
ATOM     15  H   UNL     1      -1.766  -4.649   0.093  0.00  0.00    +0.148 HD
ENDROOT
BRANCH   1  20
ATOM     16  C   UNL     1      -0.017   1.378   0.010  0.00  0.00    +0.001 A 
ATOM     17  C   UNL     1       1.170   2.088   0.002  0.00  0.00    +0.004 A 
ATOM     18  C   UNL     1       2.377   1.417  -0.013  0.00  0.00    +0.046 A 
ATOM     19  C   UNL     1       2.399   0.030  -0.021  0.00  0.00    +0.121 A 
ATOM     20  C   UNL     1       1.207  -0.680  -0.013  0.00  0.00    +0.006 A 
ATOM     21  C   UNL     1       0.002  -0.004   0.002  0.00  0.00    +0.008 A 
BRANCH  19  22
ATOM     22  O   UNL     1       3.586  -0.632  -0.037  0.00  0.00    -0.506 OA
ATOM     23  H   UNL     1       3.938  -0.829   0.842  0.00  0.00    +0.292 HD
ENDBRANCH  19  22
ENDBRANCH   1  20
BRANCH  13  24
ATOM     24  C   UNL     1      -1.000  -4.504  -4.833  0.00  0.00    -0.006 A 
ATOM     25  C   UNL     1      -0.716  -5.532  -5.669  0.00  0.00    +0.011 A 
ATOM     26  C   UNL     1      -1.535  -5.755  -6.760  0.00  0.00    +0.008 A 
ATOM     27  C   UNL     1      -2.599  -4.939  -6.961  0.00  0.00    +0.045 A 
ATOM     28  S   UNL     1      -2.469  -3.815  -5.580  0.00  0.00    -0.101 S 
ENDBRANCH  13  24
BRANCH   3  29
ATOM     29  O   UNL     1       0.569  -0.989   2.813  0.00  0.00    -0.491 OA
ATOM     30  H   UNL     1       0.241  -0.779   3.698  0.00  0.00    +0.294 HD
ENDBRANCH   3  29
TORSDOF 4
