REMARK  Name = ZINC59379236
REMARK  5 active torsions:
REMARK  status: ('A' for Active; 'I' for Inactive)
REMARK    1  A    between atoms: C_1  and  C_2
REMARK    2  A    between atoms: C_2  and  N_3
REMARK    3  A    between atoms: N_3  and  N_16
REMARK    4  A    between atoms: C_17  and  C_18
REMARK    5  A    between atoms: C_27  and  O_28
REMARK                            x       y       z     vdW  Elec       q    Type
REMARK                         _______ _______ _______ _____ _____    ______ ____
ROOT
ATOM      1  N   UNL     1       0.688  -0.476  -1.203  0.00  0.00    -0.193 N 
ATOM      2  C   UNL     1       2.052  -0.688  -1.183  0.00  0.00    +0.218 A 
ATOM      3  N   UNL     1       2.799  -1.121  -2.244  0.00  0.00    -0.309 N 
ATOM      4  H   UNL     1       2.468  -1.331  -3.132  0.00  0.00    +0.170 HD
ATOM      5  C   UNL     1       4.102  -1.205  -1.824  0.00  0.00    +0.166 A 
ATOM      6  C   UNL     1       4.107  -0.809  -0.483  0.00  0.00    +0.174 A 
ATOM      7  N   UNL     1       2.831  -0.500  -0.146  0.00  0.00    -0.206 NA
ATOM      8  C   UNL     1       5.341  -0.800   0.213  0.00  0.00    +0.279 A 
ATOM      9  O   UNL     1       5.396  -0.463   1.383  0.00  0.00    -0.265 OA
ATOM     10  N   UNL     1       6.454  -1.175  -0.456  0.00  0.00    -0.312 N 
ATOM     11  H   UNL     1       7.311  -1.177  -0.002  0.00  0.00    +0.170 HD
ATOM     12  C   UNL     1       6.379  -1.548  -1.758  0.00  0.00    +0.201 A 
ATOM     13  N   UNL     1       5.252  -1.562  -2.412  0.00  0.00    -0.218 NA
ENDROOT
BRANCH   1  15
ATOM     14  C   UNL     1      -0.019   1.526   0.010  0.00  0.00    +0.026 C 
ATOM     15  C   UNL     1       0.002  -0.004   0.002  0.00  0.00    +0.132 C 
ENDBRANCH   1  15
BRANCH   1  16
ATOM     16  N   UNL     1      -0.041  -0.714  -2.376  0.00  0.00    -0.185 NA
ATOM     17  C   UNL     1      -1.325  -0.514  -2.395  0.00  0.00    +0.142 C 
BRANCH  17  18
ATOM     18  C   UNL     1      -2.090  -0.763  -3.626  0.00  0.00    +0.044 A 
ATOM     19  C   UNL     1      -3.533  -0.538  -3.666  0.00  0.00    -0.006 A 
ATOM     20  C   UNL     1      -4.234  -0.081  -2.543  0.00  0.00    +0.009 A 
ATOM     21  C   UNL     1      -5.580   0.116  -2.623  0.00  0.00    +0.001 A 
ATOM     22  C   UNL     1      -6.270  -0.131  -3.808  0.00  0.00    +0.001 A 
ATOM     23  C   UNL     1      -5.620  -0.576  -4.918  0.00  0.00    +0.008 A 
ATOM     24  C   UNL     1      -4.232  -0.790  -4.872  0.00  0.00    -0.017 A 
ATOM     25  C   UNL     1      -3.527  -1.248  -5.999  0.00  0.00    +0.012 A 
ATOM     26  C   UNL     1      -2.184  -1.452  -5.944  0.00  0.00    +0.046 A 
ATOM     27  C   UNL     1      -1.452  -1.213  -4.782  0.00  0.00    +0.126 A 
BRANCH  27  28
ATOM     28  O   UNL     1      -0.111  -1.424  -4.774  0.00  0.00    -0.506 OA
ATOM     29  H   UNL     1       0.144  -2.322  -4.519  0.00  0.00    +0.292 HD
ENDBRANCH  27  28
ENDBRANCH  17  18
ENDBRANCH   1  16
TORSDOF 4
