REMARK  Name = ZINC40962114
REMARK  5 active torsions:
REMARK  status: ('A' for Active; 'I' for Inactive)
REMARK    1  A    between atoms: C_1  and  C_2
REMARK    2  A    between atoms: C_5  and  N_8
REMARK    3  A    between atoms: C_9  and  C_11
REMARK    4  A    between atoms: C_12  and  C_27
REMARK    5  A    between atoms: C_19  and  C_21
REMARK                            x       y       z     vdW  Elec       q    Type
REMARK                         _______ _______ _______ _____ _____    ______ ____
ROOT
ATOM      1  C   UNL     1       0.065  -6.261   1.342  0.00  0.00    +0.060 C 
ATOM      2  C   UNL     1       0.018  -6.817   2.561  0.00  0.00    +0.018 C 
ATOM      3  N   UNL     1       0.011  -8.178   2.746  0.00  0.00    -0.287 N 
ATOM      4  C   UNL     1      -0.209  -8.973   1.630  0.00  0.00    +0.218 A 
ATOM      5  N   UNL     1      -0.481 -10.246   1.543  0.00  0.00    -0.201 NA
ATOM      6  C   UNL     1      -0.620 -10.587   0.258  0.00  0.00    +0.247 A 
ATOM      7  N   UNL     1      -0.435  -9.528  -0.491  0.00  0.00    -0.156 NA
ATOM      8  N   UNL     1      -0.164  -8.468   0.372  0.00  0.00    -0.221 N 
ATOM      9  C   UNL     1       0.120  -7.068   0.072  0.00  0.00    +0.177 C 
ATOM     10  C   UNL     1      -0.028  -5.918   3.770  0.00  0.00    +0.061 C 
ATOM     11  H   UNL     1       0.155  -8.568   3.622  0.00  0.00    +0.155 HD
ENDROOT
BRANCH   9  12
ATOM     12  C   UNL     1       1.496  -6.959  -0.533  0.00  0.00    -0.016 A 
ATOM     13  C   UNL     1       2.615  -7.384   0.166  0.00  0.00    +0.026 A 
ATOM     14  C   UNL     1       3.861  -7.268  -0.422  0.00  0.00    +0.111 A 
ATOM     15  N   UNL     1       3.991  -6.759  -1.631  0.00  0.00    -0.263 NA
ATOM     16  C   UNL     1       2.949  -6.344  -2.325  0.00  0.00    +0.111 A 
ATOM     17  C   UNL     1       1.672  -6.435  -1.805  0.00  0.00    +0.026 A 
ENDBRANCH   9  12
BRANCH   1  19
ATOM     18  N   UNL     1       1.207  -4.159   1.357  0.00  0.00    -0.282 N 
ATOM     19  C   UNL     1       0.056  -4.850   1.243  0.00  0.00    +0.248 C 
ATOM     20  O   UNL     1      -0.993  -4.259   1.056  0.00  0.00    -0.270 OA
ATOM     21  H   UNL     1       2.052  -4.632   1.420  0.00  0.00    +0.155 HD
BRANCH  18  26
ATOM     22  C   UNL     1       1.114   1.512   1.462  0.00  0.00    +0.044 C 
ATOM     23  C   UNL     1       1.139   0.005   1.434  0.00  0.00    -0.050 A 
ATOM     24  C   UNL     1       2.268  -0.658   0.990  0.00  0.00    +0.005 A 
ATOM     25  C   UNL     1       2.294  -2.039   0.963  0.00  0.00    +0.023 A 
ATOM     26  C   UNL     1       1.185  -2.761   1.383  0.00  0.00    +0.034 A 
ATOM     27  C   UNL     1       0.052  -2.092   1.829  0.00  0.00    +0.023 A 
ATOM     28  C   UNL     1       0.035  -0.711   1.858  0.00  0.00    +0.005 A 
ENDBRANCH  18  26
ENDBRANCH   1  19
TORSDOF 3
