REMARK  Name = ZINC52222341
REMARK  5 active torsions:
REMARK  status: ('A' for Active; 'I' for Inactive)
REMARK    1  A    between atoms: C_3  and  C_6
REMARK    2  A    between atoms: C_8  and  C_11
REMARK    3  A    between atoms: C_11  and  N_12
REMARK    4  A    between atoms: C_14  and  C_17
REMARK    5  A    between atoms: C_17  and  O_18
REMARK                            x       y       z     vdW  Elec       q    Type
REMARK                         _______ _______ _______ _____ _____    ______ ____
ROOT
ATOM      1  C   UNL     1       3.567   0.618  -0.029  0.00  0.00    +0.144 A 
ATOM      2  N   UNL     1       4.385  -0.428  -0.048  0.00  0.00    -0.239 NA
ATOM      3  C   UNL     1       5.689  -0.272  -0.059  0.00  0.00    +0.071 A 
ATOM      4  C   UNL     1       6.222   0.978  -0.051  0.00  0.00    +0.072 A 
ATOM      5  S   UNL     1       4.735   1.972  -0.034  0.00  0.00    -0.072 S 
ENDROOT
BRANCH   1   8
ATOM      6  C   UNL     1      -0.016   1.344   0.009  0.00  0.00    +0.042 A 
ATOM      7  C   UNL     1       1.324   1.776  -0.001  0.00  0.00    +0.052 A 
ATOM      8  C   UNL     1       2.097   0.654  -0.015  0.00  0.00    +0.160 A 
ATOM      9  O   UNL     1       1.279  -0.418  -0.012  0.00  0.00    -0.461 OA
ATOM     10  C   UNL     1       0.002  -0.004   0.002  0.00  0.00    +0.196 A 
ENDBRANCH   1   8
BRANCH   3  11
ATOM     11  C   UNL     1       6.592  -1.478  -0.080  0.00  0.00    +0.201 C 
BRANCH  11  12
ATOM     12  N   UNL     1       6.262  -2.356   1.046  0.00  0.00    -0.246 N 
ATOM     13  C   UNL     1       5.945  -3.668   0.961  0.00  0.00    +0.136 A 
ATOM     14  C   UNL     1       5.715  -4.083   2.229  0.00  0.00    +0.108 A 
ATOM     15  N   UNL     1       5.900  -3.018   3.016  0.00  0.00    -0.132 NA
ATOM     16  N   UNL     1       6.228  -2.012   2.285  0.00  0.00    -0.065 NA
BRANCH  14  17
ATOM     17  C   UNL     1       5.326  -5.472   2.666  0.00  0.00    +0.214 C 
BRANCH  17  18
ATOM     18  O   UNL     1       5.230  -6.322   1.522  0.00  0.00    -0.389 OA
ATOM     19  H   UNL     1       4.983  -7.234   1.730  0.00  0.00    +0.210 HD
ENDBRANCH  17  18
ENDBRANCH  14  17
ENDBRANCH  11  12
ENDBRANCH   3  11
TORSDOF 5
