REMARK  Name = ZINC63603801
REMARK  7 active torsions:
REMARK  status: ('A' for Active; 'I' for Inactive)
REMARK    1  A    between atoms: C_1  and  O_2
REMARK    2  A    between atoms: O_2  and  C_3
REMARK    3  A    between atoms: C_5  and  C_20
REMARK    4  A    between atoms: C_6  and  N_11
REMARK    5  A    between atoms: C_8  and  O_9
REMARK    6  A    between atoms: O_9  and  C_10
REMARK    7  A    between atoms: C_12  and  C_14
REMARK                            x       y       z     vdW  Elec       q    Type
REMARK                         _______ _______ _______ _____ _____    ______ ____
ROOT
ATOM      1  C   UNL     1       0.597  -0.599   1.046  0.00  0.00    +0.162 A 
ATOM      2  C   UNL     1       1.183   0.151   2.046  0.00  0.00    +0.064 A 
ATOM      3  C   UNL     1       1.830  -0.488   3.108  0.00  0.00    +0.061 A 
ATOM      4  C   UNL     1       1.882  -1.890   3.151  0.00  0.00    +0.049 A 
ATOM      5  C   UNL     1       1.290  -2.632   2.141  0.00  0.00    +0.073 A 
ATOM      6  C   UNL     1       0.645  -1.992   1.095  0.00  0.00    +0.163 A 
ENDROOT
BRANCH   3   7
ATOM      7  C   UNL     1       2.457   0.308   4.177  0.00  0.00    +0.243 C 
ATOM      8  O   UNL     1       2.940  -0.248   5.145  0.00  0.00    -0.270 OA
ATOM      9  N   UNL     1       2.495   1.652   4.083  0.00  0.00    -0.325 N 
ATOM     10  H   UNL     1       2.110   2.095   3.311  0.00  0.00    +0.145 HD
ATOM     11  H   UNL     1       2.908   2.176   4.788  0.00  0.00    +0.145 HD
ENDBRANCH   3   7
BRANCH   4  12
ATOM     12  N   UNL     1       2.526  -2.534   4.207  0.00  0.00    -0.284 N 
ATOM     13  C   UNL     1       3.196  -3.683   3.987  0.00  0.00    +0.221 C 
ATOM     14  O   UNL     1       3.319  -4.107   2.857  0.00  0.00    -0.275 OA
ATOM     15  H   UNL     1       2.493  -2.155   5.099  0.00  0.00    +0.155 HD
BRANCH  13  16
ATOM     16  C   UNL     1       3.791  -4.441   5.145  0.00  0.00    +0.079 C 
ATOM     17  C   UNL     1       4.471  -5.717   4.632  0.00  0.00    +0.017 C 
ATOM     18  C   UNL     1       5.216  -6.371   5.797  0.00  0.00    +0.027 C 
ATOM     19  C   UNL     1       4.312  -6.484   6.990  0.00  0.00    -0.031 C 
ATOM     20  C   UNL     1       3.213  -5.817   7.133  0.00  0.00    -0.030 C 
ATOM     21  C   UNL     1       2.683  -4.843   6.121  0.00  0.00    +0.039 C 
ENDBRANCH  13  16
ENDBRANCH   4  12
BRANCH   1  23
ATOM     22  C   UNL     1      -0.044   1.452   0.025  0.00  0.00    +0.277 C 
ATOM     23  O   UNL     1      -0.033   0.023   0.013  0.00  0.00    -0.491 OA
ENDBRANCH   1  23
BRANCH   6  24
ATOM     24  O   UNL     1       0.062  -2.724   0.111  0.00  0.00    -0.491 OA
ATOM     25  C   UNL     1       0.148  -4.146   0.222  0.00  0.00    +0.277 C 
ENDBRANCH   6  24
TORSDOF 5
