REMARK  Name = ZINC51347469
REMARK  7 active torsions:
REMARK  status: ('A' for Active; 'I' for Inactive)
REMARK    1  A    between atoms: C_1  and  C_2
REMARK    2  A    between atoms: C_5  and  C_17
REMARK    3  A    between atoms: C_7  and  S_8
REMARK    4  A    between atoms: S_8  and  N_11
REMARK    5  A    between atoms: C_19  and  C_20
REMARK    6  A    between atoms: C_19  and  C_22
REMARK    7  A    between atoms: N_24  and  C_25
REMARK                            x       y       z     vdW  Elec       q    Type
REMARK                         _______ _______ _______ _____ _____    ______ ____
ROOT
ATOM      1  C   UNL     1      -1.140   1.484  -0.228  0.00  0.00    +0.046 C 
ATOM      2  C   UNL     1      -0.323   0.226  -0.074  0.00  0.00    -0.024 A 
ATOM      3  C   UNL     1      -0.089  -0.581  -1.174  0.00  0.00    +0.006 A 
ATOM      4  C   UNL     1       0.656  -1.733  -1.041  0.00  0.00    +0.012 A 
ATOM      5  C   UNL     1       1.177  -2.085   0.208  0.00  0.00    +0.025 A 
ATOM      6  C   UNL     1       0.937  -1.264   1.314  0.00  0.00    +0.040 A 
ATOM      7  C   UNL     1       0.193  -0.112   1.164  0.00  0.00    +0.109 A 
ENDROOT
BRANCH   7   8
ATOM      8  S   UNL     1      -0.105   0.928   2.555  0.00  0.00    +0.061 S 
ATOM      9  O   UNL     1      -1.491   1.243   2.537  0.00  0.00    -0.153 OA
ATOM     10  O   UNL     1       0.520   0.306   3.669  0.00  0.00    -0.153 OA
BRANCH   8  11
ATOM     11  N   UNL     1       0.706   2.347   2.288  0.00  0.00    -0.172 NA
ATOM     12  C   UNL     1       2.132   2.480   2.626  0.00  0.00    +0.137 C 
ATOM     13  C   UNL     1       2.867   3.045   1.405  0.00  0.00    +0.177 C 
ATOM     14  O   UNL     1       2.205   4.234   0.966  0.00  0.00    -0.377 OA
ATOM     15  C   UNL     1       0.860   4.028   0.530  0.00  0.00    +0.177 C 
ATOM     16  C   UNL     1       0.023   3.511   1.701  0.00  0.00    +0.137 C 
ENDBRANCH   8  11
ENDBRANCH   7   8
BRANCH   5  17
ATOM     17  C   UNL     1       1.975  -3.314   0.358  0.00  0.00    +0.208 C 
ATOM     18  O   UNL     1       1.609  -4.250   1.258  0.00  0.00    -0.286 OA
ATOM     19  C   UNL     1       3.103  -3.510  -0.427  0.00  0.00    +0.160 C 
BRANCH  19  20
ATOM     20  C   UNL     1       3.592  -2.429  -1.290  0.00  0.00    +0.258 C 
ATOM     21  O   UNL     1       3.078  -1.327  -1.236  0.00  0.00    -0.269 OA
ATOM     22  N   UNL     1       4.611  -2.657  -2.142  0.00  0.00    -0.314 N 
ATOM     23  C   UNL     1       5.100  -1.578  -3.005  0.00  0.00    +0.128 C 
ATOM     24  H   UNL     1       5.021  -3.535  -2.185  0.00  0.00    +0.149 HD
ENDBRANCH  19  20
BRANCH  19  25
ATOM     25  C   UNL     1       3.789  -4.766  -0.393  0.00  0.00    +0.108 C 
ATOM     26  N   UNL     1       4.334  -5.763  -0.367  0.00  0.00    -0.191 NA
ENDBRANCH  19  25
ENDBRANCH   5  17
TORSDOF 5
