REMARK  Name = ZINC59862884
REMARK  5 active torsions:
REMARK  status: ('A' for Active; 'I' for Inactive)
REMARK    1  A    between atoms: C_1  and  C_2
REMARK    2  A    between atoms: C_3  and  C_31
REMARK    3  A    between atoms: C_7  and  C_8
REMARK    4  A    between atoms: C_11  and  C_13
REMARK    5  A    between atoms: N_20  and  C_23
REMARK                            x       y       z     vdW  Elec       q    Type
REMARK                         _______ _______ _______ _____ _____    ______ ____
ROOT
ATOM      1  C   UNL     1       1.576   1.925   5.480  0.00  0.00    +0.064 C 
ATOM      2  C   UNL     1       2.758   2.421   4.925  0.00  0.00    +0.105 C 
ATOM      3  C   UNL     1       3.261   3.702   5.284  0.00  0.00    +0.277 C 
ATOM      4  O   UNL     1       2.599   4.472   6.175  0.00  0.00    -0.268 OA
ATOM      5  N   UNL     1       4.384   4.130   4.733  0.00  0.00    -0.123 NA
ATOM      6  C   UNL     1       5.063   3.400   3.852  0.00  0.00    +0.340 C 
ATOM      7  O   UNL     1       6.091   3.858   3.384  0.00  0.00    -0.250 OA
ATOM      8  N   UNL     1       4.664   2.180   3.455  0.00  0.00    -0.188 N 
ATOM      9  C   UNL     1       3.534   1.634   3.953  0.00  0.00    +0.264 C 
ATOM     10  O   UNL     1       3.165   0.527   3.604  0.00  0.00    -0.269 OA
ENDROOT
BRANCH   8  11
ATOM     11  C   UNL     1       5.430   1.467   2.523  0.00  0.00    +0.046 A 
ATOM     12  C   UNL     1       5.182   1.610   1.165  0.00  0.00    +0.025 A 
ATOM     13  C   UNL     1       5.938   0.906   0.248  0.00  0.00    +0.022 A 
ATOM     14  C   UNL     1       6.942   0.058   0.682  0.00  0.00    +0.041 A 
ATOM     15  C   UNL     1       7.191  -0.086   2.036  0.00  0.00    +0.022 A 
ATOM     16  C   UNL     1       6.442   0.621   2.956  0.00  0.00    +0.025 A 
ATOM     17 CL   UNL     1       7.889  -0.827  -0.472  0.00  0.00    -0.084 Cl
ENDBRANCH   8  11
BRANCH   1  21
ATOM     18  C   UNL     1       0.350  -0.814   3.580  0.00  0.00    +0.136 A 
ATOM     19  C   UNL     1      -0.027  -1.227   4.844  0.00  0.00    +0.050 A 
ATOM     20  C   UNL     1       0.388  -0.243   5.736  0.00  0.00    +0.050 A 
ATOM     21  C   UNL     1       1.010   0.747   4.982  0.00  0.00    +0.129 A 
ATOM     22  O   UNL     1       0.976   0.371   3.684  0.00  0.00    -0.455 OA
BRANCH  18  29
ATOM     23  C   UNL     1      -0.831   0.554   1.320  0.00  0.00    +0.045 C 
ATOM     24  C   UNL     1      -0.459  -0.904   1.228  0.00  0.00    -0.036 A 
ATOM     25  C   UNL     1      -0.675  -1.599   0.056  0.00  0.00    -0.033 A 
ATOM     26  C   UNL     1      -0.335  -2.938  -0.030  0.00  0.00    +0.021 A 
ATOM     27  C   UNL     1       0.225  -3.589   1.058  0.00  0.00    +0.016 A 
ATOM     28  C   UNL     1       0.446  -2.906   2.234  0.00  0.00    +0.013 A 
ATOM     29  C   UNL     1       0.110  -1.552   2.327  0.00  0.00    +0.020 A 
ATOM     30 BR   UNL     1      -0.635  -3.884  -1.640  0.00  0.00    -0.050 Br
ATOM     31  C   UNL     1      -1.283  -0.900  -1.132  0.00  0.00    +0.045 C 
ENDBRANCH  18  29
ENDBRANCH   1  21
TORSDOF 3
