REMARK  Name = ZINC61637798
REMARK  9 active torsions:
REMARK  status: ('A' for Active; 'I' for Inactive)
REMARK    1  A    between atoms: C_1  and  C_2
REMARK    2  A    between atoms: C_2  and  C_3
REMARK    3  A    between atoms: C_3  and  C_4
REMARK    4  A    between atoms: C_3  and  C_5
REMARK    5  A    between atoms: C_5  and  C_6
REMARK    6  A    between atoms: C_5  and  N_25
REMARK    7  A    between atoms: N_8  and  C_9
REMARK    8  A    between atoms: C_9  and  C_10
REMARK    9  A    between atoms: C_13  and  C_16
REMARK                            x       y       z     vdW  Elec       q    Type
REMARK                         _______ _______ _______ _____ _____    ______ ____
ROOT
ATOM      1  C   UNL     1       1.558  -2.583  -2.413  0.00  0.00    +0.234 C 
ATOM      2  O   UNL     1       2.690  -2.970  -2.213  0.00  0.00    -0.274 OA
ATOM      3  N   UNL     1       1.072  -2.544  -3.670  0.00  0.00    -0.310 N 
ATOM      4  H   UNL     1       0.167  -2.233  -3.830  0.00  0.00    +0.149 HD
ENDROOT
BRANCH   1   5
ATOM      5  C   UNL     1       0.696  -2.144  -1.258  0.00  0.00    +0.163 C 
BRANCH   5   6
ATOM      6  N   UNL     1       1.226  -2.705  -0.012  0.00  0.00    -0.288 N 
ATOM      7  C   UNL     1       0.932  -3.973   0.335  0.00  0.00    +0.298 C 
ATOM      8  O   UNL     1       0.155  -4.623  -0.339  0.00  0.00    -0.253 OA
ATOM      9  N   UNL     1       1.498  -4.522   1.428  0.00  0.00    -0.313 N 
ATOM     10  H   UNL     1       1.790  -2.163   0.562  0.00  0.00    +0.151 HD
ATOM     11  H   UNL     1       2.118  -4.004   1.964  0.00  0.00    +0.146 HD
ATOM     12  H   UNL     1       1.286  -5.435   1.677  0.00  0.00    +0.146 HD
ENDBRANCH   5   6
BRANCH   5  13
ATOM     13  C   UNL     1       0.699  -0.616  -1.171  0.00  0.00    +0.015 C 
ATOM     14  C   UNL     1       2.113  -0.126  -0.855  0.00  0.00    +0.010 C 
BRANCH  13  16
ATOM     15  C   UNL     1      -0.349   1.360  -0.058  0.00  0.00    +0.004 C 
ATOM     16  C   UNL     1      -0.256  -0.167  -0.063  0.00  0.00    +0.002 C 
ENDBRANCH  13  16
ENDBRANCH   5  13
ENDBRANCH   1   5
BRANCH   3  17
ATOM     17  C   UNL     1       1.910  -2.970  -4.793  0.00  0.00    +0.139 C 
BRANCH  17  18
ATOM     18  C   UNL     1       1.136  -2.830  -6.079  0.00  0.00    -0.030 A 
ATOM     19  C   UNL     1       0.371  -3.886  -6.540  0.00  0.00    +0.006 A 
ATOM     20  C   UNL     1      -0.340  -3.764  -7.717  0.00  0.00    +0.009 A 
ATOM     21  C   UNL     1      -0.287  -2.573  -8.440  0.00  0.00    -0.018 A 
ATOM     22  C   UNL     1       0.485  -1.513  -7.969  0.00  0.00    +0.009 A 
ATOM     23  C   UNL     1       1.188  -1.645  -6.789  0.00  0.00    +0.006 A 
BRANCH  21  24
ATOM     24  C   UNL     1      -1.049  -2.436  -9.705  0.00  0.00    -0.017 A 
ATOM     25  C   UNL     1      -1.826  -3.493 -10.175  0.00  0.00    +0.012 A 
ATOM     26  C   UNL     1      -2.537  -3.363 -11.347  0.00  0.00    +0.046 A 
ATOM     27  C   UNL     1      -2.485  -2.176 -12.076  0.00  0.00    +0.124 A 
ATOM     28  C   UNL     1      -1.701  -1.128 -11.606  0.00  0.00    -0.002 A 
ATOM     29  C   UNL     1      -0.997  -1.246 -10.430  0.00  0.00    +0.015 A 
ATOM     30  C   UNL     1      -1.824   0.003 -12.608  0.00  0.00    +0.080 C 
ATOM     31  C   UNL     1      -2.433  -0.720 -13.833  0.00  0.00    +0.234 C 
ATOM     32  O   UNL     1      -3.110  -1.839 -13.238  0.00  0.00    -0.491 OA
ENDBRANCH  21  24
ENDBRANCH  17  18
ENDBRANCH   3  17
TORSDOF 7
