REMARK  Name = ZINC19232949
REMARK  4 active torsions:
REMARK  status: ('A' for Active; 'I' for Inactive)
REMARK    1  A    between atoms: C_3  and  N_20
REMARK    2  A    between atoms: C_4  and  C_16
REMARK    3  A    between atoms: C_6  and  N_7
REMARK    4  A    between atoms: C_8  and  C_10
REMARK                            x       y       z     vdW  Elec       q    Type
REMARK                         _______ _______ _______ _____ _____    ______ ____
ROOT
ATOM      1  C   UNL     1       1.176   2.103  -0.013  0.00  0.00    +0.025 A 
ATOM      2  C   UNL     1       2.383   1.433  -0.035  0.00  0.00    +0.025 A 
ATOM      3  C   UNL     1       2.406   0.045  -0.041  0.00  0.00    +0.036 A 
ATOM      4  C   UNL     1       1.216  -0.670  -0.024  0.00  0.00    +0.077 A 
ATOM      5  C   UNL     1       0.009   0.000  -0.002  0.00  0.00    +0.037 A 
ATOM      6  C   UNL     1      -0.015   1.389   0.003  0.00  0.00    +0.034 A 
ENDROOT
BRANCH   6   7
ATOM      7  N   UNL     1      -1.239   2.068   0.019  0.00  0.00    -0.281 N 
ATOM      8  C   UNL     1      -1.357   3.228   0.696  0.00  0.00    +0.255 C 
ATOM      9  O   UNL     1      -0.380   3.728   1.222  0.00  0.00    -0.269 OA
ATOM     10  H   UNL     1      -2.104   1.656  -0.520  0.00  0.00    +0.155 HD
BRANCH   8  11
ATOM     11  C   UNL     1      -2.662   3.887   0.797  0.00  0.00    +0.075 A 
ATOM     12  C   UNL     1      -2.995   5.070   1.439  0.00  0.00    +0.022 A 
ATOM     13  C   UNL     1      -4.308   5.465   1.378  0.00  0.00    +0.024 A 
ATOM     14  C   UNL     1      -5.203   4.693   0.706  0.00  0.00    +0.056 A 
ATOM     15  S   UNL     1      -4.233   3.380   0.122  0.00  0.00    -0.077 S 
ATOM     16 BR   UNL     1      -7.055   4.985   0.459  0.00  0.00    -0.043 Br
ENDBRANCH   8  11
ENDBRANCH   6   7
BRANCH   4  17
ATOM     17  C   UNL     1       1.241  -2.177  -0.030  0.00  0.00    +0.419 C 
ATOM     18  F   UNL     1      -0.070  -2.665  -0.010  0.00  0.00    -0.166 F 
ATOM     19  F   UNL     1       1.889  -2.628  -1.184  0.00  0.00    -0.166 F 
ATOM     20  F   UNL     1       1.927  -2.636   1.100  0.00  0.00    -0.166 F 
ENDBRANCH   4  17
BRANCH   3  21
ATOM     21  N   UNL     1       3.630  -0.634  -0.063  0.00  0.00    -0.358 N 
ATOM     22  H   UNL     1       3.648  -1.734  -0.068  0.00  0.00    +0.142 HD
ATOM     23  H   UNL     1       4.573  -0.068  -0.077  0.00  0.00    +0.142 HD
ENDBRANCH   3  21
TORSDOF 4
