REMARK  Name = ZINC39676167
REMARK  5 active torsions:
REMARK  status: ('A' for Active; 'I' for Inactive)
REMARK    1  A    between atoms: C_1  and  C_2
REMARK    2  A    between atoms: C_7  and  C_8
REMARK    3  A    between atoms: C_12  and  C_21
REMARK    4  A    between atoms: N_23  and  C_24
REMARK    5  A    between atoms: C_24  and  C_25
REMARK                            x       y       z     vdW  Elec       q    Type
REMARK                         _______ _______ _______ _____ _____    ______ ____
ROOT
ATOM      1  C   UNL     1       0.112   0.133   2.363  0.00  0.00    +0.247 C 
ATOM      2  O   UNL     1      -0.020   1.339   2.284  0.00  0.00    -0.270 OA
ATOM      3  N   UNL     1       0.313  -0.446   3.563  0.00  0.00    -0.296 N 
ATOM      4  C   UNL     1       0.612  -1.870   3.846  0.00  0.00    +0.121 C 
ATOM      5  C   UNL     1       1.656  -1.831   4.984  0.00  0.00    +0.100 C 
ATOM      6  C   UNL     1       1.437  -0.474   5.672  0.00  0.00    -0.004 C 
ATOM      7  C   UNL     1       0.293   0.199   4.898  0.00  0.00    +0.115 C 
ATOM      8  C   UNL     1       2.700   0.376   5.578  0.00  0.00    -0.010 C 
ATOM      9  C   UNL     1       2.477   1.698   6.318  0.00  0.00    -0.082 C 
ATOM     10  N   UNL     1       2.150   1.425   7.723  0.00  0.00    +0.379 N 
ATOM     11  C   UNL     1       0.884   0.687   7.808  0.00  0.00    -0.082 C 
ATOM     12  C   UNL     1       1.040  -0.678   7.131  0.00  0.00    -0.010 C 
ATOM     13  H   UNL     1       2.887   0.875   8.137  0.00  0.00    -0.086 HD
ATOM     14  H   UNL     1       2.063   2.297   8.222  0.00  0.00    -0.086 HD
ENDROOT
BRANCH   1  21
ATOM     15  C   UNL     1      -2.150   0.381   0.575  0.00  0.00    +0.044 C 
ATOM     16  C   UNL     1      -1.036  -0.588   0.272  0.00  0.00    -0.038 A 
ATOM     17  C   UNL     1      -1.084  -1.362  -0.869  0.00  0.00    +0.004 A 
ATOM     18  C   UNL     1      -0.062  -2.252  -1.148  0.00  0.00    +0.000 A 
ATOM     19  C   UNL     1       1.015  -2.371  -0.287  0.00  0.00    +0.001 A 
ATOM     20  C   UNL     1       1.075  -1.602   0.856  0.00  0.00    +0.013 A 
ATOM     21  C   UNL     1       0.050  -0.699   1.142  0.00  0.00    +0.040 A 
ENDBRANCH   1  21
BRANCH   5  22
ATOM     22  C   UNL     1       3.050  -1.917   4.419  0.00  0.00    +0.219 C 
ATOM     23  O   UNL     1       3.271  -1.539   3.288  0.00  0.00    -0.275 OA
ATOM     24  N   UNL     1       4.052  -2.414   5.171  0.00  0.00    -0.308 N 
ATOM     25  H   UNL     1       3.876  -2.717   6.076  0.00  0.00    +0.149 HD
BRANCH  24  26
ATOM     26  C   UNL     1       5.408  -2.498   4.623  0.00  0.00    +0.178 C 
BRANCH  26  27
ATOM     27  C   UNL     1       6.334  -3.085   5.657  0.00  0.00    +0.128 A 
ATOM     28  N   UNL     1       7.645  -3.239   5.336  0.00  0.00    -0.309 N 
ATOM     29  H   UNL     1       7.959  -2.971   4.458  0.00  0.00    +0.170 HD
ATOM     30  C   UNL     1       8.517  -3.760   6.230  0.00  0.00    +0.259 A 
ATOM     31  O   UNL     1       9.694  -3.903   5.956  0.00  0.00    -0.267 OA
ATOM     32  C   UNL     1       7.986  -4.148   7.545  0.00  0.00    +0.065 A 
ATOM     33  C   UNL     1       8.799  -4.695   8.536  0.00  0.00    +0.015 A 
ATOM     34  C   UNL     1       8.250  -5.041   9.751  0.00  0.00    +0.001 A 
ATOM     35  C   UNL     1       6.896  -4.849   9.994  0.00  0.00    +0.002 A 
ATOM     36  C   UNL     1       6.075  -4.311   9.028  0.00  0.00    +0.028 A 
ATOM     37  C   UNL     1       6.609  -3.952   7.789  0.00  0.00    +0.078 A 
ATOM     38  N   UNL     1       5.838  -3.413   6.811  0.00  0.00    -0.232 NA
ENDBRANCH  26  27
ENDBRANCH  24  26
ENDBRANCH   5  22
TORSDOF 4
