REMARK  Name = ZINC21810484
REMARK  5 active torsions:
REMARK  status: ('A' for Active; 'I' for Inactive)
REMARK    1  A    between atoms: C_1  and  C_2
REMARK    2  A    between atoms: C_2  and  C_23
REMARK    3  A    between atoms: N_14  and  C_15
REMARK    4  A    between atoms: C_15  and  C_16
REMARK    5  A    between atoms: N_25  and  C_26
REMARK                            x       y       z     vdW  Elec       q    Type
REMARK                         _______ _______ _______ _____ _____    ______ ____
ROOT
ATOM      1  C   UNL     1       1.846  -0.455   2.084  0.00  0.00    +0.043 C 
ATOM      2  C   UNL     1       2.298   0.095   0.729  0.00  0.00    +0.129 C 
ATOM      3  C   UNL     1       2.446   1.612   0.837  0.00  0.00    +0.157 C 
ATOM      4  N   UNL     1       1.115   2.225   0.875  0.00  0.00    -0.331 N 
ATOM      5  C   UNL     1       0.701   3.383   1.461  0.00  0.00    +0.088 A 
ATOM      6  C   UNL     1       1.076   4.504   2.240  0.00  0.00    +0.067 A 
ATOM      7  C   UNL     1      -0.020   5.266   2.397  0.00  0.00    +0.198 A 
ATOM      8  O   UNL     1      -1.058   4.692   1.767  0.00  0.00    -0.461 OA
ATOM      9  C   UNL     1      -0.658   3.540   1.187  0.00  0.00    +0.153 A 
ATOM     10  C   UNL     1      -1.068   2.436   0.426  0.00  0.00    +0.079 A 
ATOM     11  C   UNL     1       0.021   1.636   0.245  0.00  0.00    +0.109 A 
ATOM     12  C   UNL     1       0.160   0.355  -0.458  0.00  0.00    +0.264 C 
ATOM     13  O   UNL     1      -0.730  -0.092  -1.159  0.00  0.00    -0.268 OA
ATOM     14  N   UNL     1       1.331  -0.303  -0.287  0.00  0.00    -0.276 N 
ENDROOT
BRANCH   2  15
ATOM     15  C   UNL     1       3.638  -0.502   0.387  0.00  0.00    +0.238 C 
ATOM     16  O   UNL     1       3.921  -1.618   0.770  0.00  0.00    -0.273 OA
ATOM     17  N   UNL     1       4.523   0.203  -0.346  0.00  0.00    -0.311 N 
ATOM     18  H   UNL     1       4.237   1.180  -0.763  0.00  0.00    +0.149 HD
BRANCH  17  19
ATOM     19  C   UNL     1       5.866  -0.330  -0.585  0.00  0.00    +0.073 C 
ATOM     20  C   UNL     1       6.733  -0.105   0.655  0.00  0.00    +0.022 C 
ATOM     21  C   UNL     1       8.136  -0.662   0.406  0.00  0.00    +0.002 C 
ATOM     22  C   UNL     1       8.763   0.054  -0.792  0.00  0.00    +0.000 C 
ATOM     23  C   UNL     1       7.896  -0.171  -2.033  0.00  0.00    +0.002 C 
ATOM     24  C   UNL     1       6.494   0.386  -1.783  0.00  0.00    +0.022 C 
ENDBRANCH  17  19
ENDBRANCH   2  15
BRANCH  14  25
ATOM     25  C   UNL     1       1.635  -1.448  -1.149  0.00  0.00    +0.144 C 
BRANCH  25  26
ATOM     26  C   UNL     1       2.199  -0.956  -2.457  0.00  0.00    -0.030 A 
ATOM     27  C   UNL     1       1.348  -0.528  -3.458  0.00  0.00    +0.006 A 
ATOM     28  C   UNL     1       1.864  -0.071  -4.657  0.00  0.00    +0.020 A 
ATOM     29  C   UNL     1       3.233  -0.054  -4.858  0.00  0.00    +0.041 A 
ATOM     30  C   UNL     1       4.084  -0.488  -3.857  0.00  0.00    +0.020 A 
ATOM     31  C   UNL     1       3.567  -0.939  -2.657  0.00  0.00    +0.006 A 
ATOM     32 CL   UNL     1       3.882   0.512  -6.365  0.00  0.00    -0.084 Cl
ENDBRANCH  25  26
ENDBRANCH  14  25
TORSDOF 4
