REMARK  Name = ZINC33141385
REMARK  9 active torsions:
REMARK  status: ('A' for Active; 'I' for Inactive)
REMARK    1  A    between atoms: C_1  and  C_2
REMARK    2  A    between atoms: C_2  and  C_3
REMARK    3  A    between atoms: C_3  and  N_4
REMARK    4  A    between atoms: C_5  and  C_7
REMARK    5  A    between atoms: N_21  and  C_24
REMARK    6  A    between atoms: C_24  and  C_25
REMARK    7  A    between atoms: N_27  and  C_28
REMARK    8  A    between atoms: C_30  and  C_35
REMARK    9  A    between atoms: C_33  and  C_34
REMARK                            x       y       z     vdW  Elec       q    Type
REMARK                         _______ _______ _______ _____ _____    ______ ____
ROOT
ATOM      1  C   UNL     1      -8.582  -4.627   0.496  0.00  0.00    +0.092 C 
ATOM      2  C   UNL     1      -9.673  -4.060   1.408  0.00  0.00    +0.016 C 
ATOM      3  C   UNL     1      -9.027  -3.512   2.684  0.00  0.00    +0.020 C 
ATOM      4  C   UNL     1      -7.994  -2.446   2.310  0.00  0.00    +0.107 C 
ATOM      5  N   UNL     1      -6.972  -3.039   1.438  0.00  0.00    -0.309 N 
ATOM      6  C   UNL     1      -7.562  -3.530   0.185  0.00  0.00    +0.119 C 
ATOM      7  C   UNL     1      -5.956  -2.142   1.187  0.00  0.00    +0.164 A 
ATOM      8  N   UNL     1      -5.503  -1.720   0.024  0.00  0.00    -0.205 NA
ATOM      9  C   UNL     1      -4.505  -0.841  -0.078  0.00  0.00    +0.176 A 
ATOM     10  C   UNL     1      -3.975  -0.401   1.150  0.00  0.00    +0.124 A 
ATOM     11  S   UNL     1      -4.960  -1.290   2.327  0.00  0.00    -0.045 S 
ATOM     12  C   UNL     1      -2.933   0.513   1.206  0.00  0.00    +0.270 A 
ATOM     13  O   UNL     1      -2.482   0.887   2.276  0.00  0.00    -0.266 OA
ATOM     14  N   UNL     1      -2.430   0.978   0.035  0.00  0.00    -0.289 N 
ATOM     15  C   UNL     1      -2.962   0.542  -1.135  0.00  0.00    +0.204 A 
ATOM     16  N   UNL     1      -3.932  -0.315  -1.199  0.00  0.00    -0.217 NA
ENDROOT
BRANCH   1  18
ATOM     17  N   UNL     1      -8.427  -5.655  -1.748  0.00  0.00    -0.315 N 
ATOM     18  C   UNL     1      -9.203  -5.115  -0.787  0.00  0.00    +0.218 C 
ATOM     19  O   UNL     1     -10.400  -5.022  -0.956  0.00  0.00    -0.275 OA
ATOM     20  H   UNL     1      -7.341  -5.739  -1.596  0.00  0.00    +0.149 HD
BRANCH  17  21
ATOM     21  C   UNL     1      -9.030  -6.130  -2.996  0.00  0.00    +0.104 C 
BRANCH  21  23
ATOM     22  C   UNL     1      -8.569  -7.188  -5.212  0.00  0.00    +0.005 C 
ATOM     23  C   UNL     1      -7.939  -6.692  -3.909  0.00  0.00    +0.015 C 
ENDBRANCH  21  23
ENDBRANCH  17  21
ENDBRANCH   1  18
BRANCH  14  24
ATOM     24  C   UNL     1      -1.329   1.945   0.034  0.00  0.00    +0.222 C 
BRANCH  24  25
ATOM     25  C   UNL     1      -0.015   1.209   0.012  0.00  0.00    +0.237 C 
ATOM     26  O   UNL     1       0.002  -0.004  -0.001  0.00  0.00    -0.274 OA
ATOM     27  N   UNL     1       1.143   1.898   0.001  0.00  0.00    -0.284 N 
ATOM     28  H   UNL     1       1.130   2.995  -0.078  0.00  0.00    +0.155 HD
BRANCH  27  29
ATOM     29  C   UNL     1       2.363   1.219   0.092  0.00  0.00    +0.037 A 
ATOM     30  C   UNL     1       2.420  -0.033   0.691  0.00  0.00    +0.027 A 
ATOM     31  C   UNL     1       3.624  -0.703   0.774  0.00  0.00    -0.049 A 
ATOM     32  C   UNL     1       4.776  -0.125   0.272  0.00  0.00    +0.004 A 
ATOM     33  C   UNL     1       4.723   1.123  -0.321  0.00  0.00    +0.005 A 
ATOM     34  C   UNL     1       3.521   1.797  -0.412  0.00  0.00    -0.029 A 
ATOM     35  C   UNL     1       3.465   3.157  -1.058  0.00  0.00    +0.045 C 
ATOM     36  C   UNL     1       3.686  -2.064   1.419  0.00  0.00    +0.044 C 
ENDBRANCH  27  29
ENDBRANCH  24  25
ENDBRANCH  14  24
TORSDOF 6
