REMARK  Name = ZINC59293537
REMARK  8 active torsions:
REMARK  status: ('A' for Active; 'I' for Inactive)
REMARK    1  A    between atoms: C_1  and  C_2
REMARK    2  A    between atoms: C_2  and  C_3
REMARK    3  A    between atoms: C_3  and  N_4
REMARK    4  A    between atoms: C_5  and  C_7
REMARK    5  A    between atoms: C_13  and  C_14
REMARK    6  A    between atoms: C_22  and  N_35
REMARK    7  A    between atoms: C_23  and  C_33
REMARK    8  A    between atoms: C_24  and  C_26
REMARK                            x       y       z     vdW  Elec       q    Type
REMARK                         _______ _______ _______ _____ _____    ______ ____
ROOT
ATOM      1  C   UNL     1       0.486  -4.097  -2.800  0.00  0.00    +0.058 C 
ATOM      2  C   UNL     1       1.298  -4.762  -3.663  0.00  0.00    +0.099 A 
ATOM      3  N   UNL     1       1.279  -6.129  -3.853  0.00  0.00    -0.257 N 
ATOM      4  C   UNL     1       2.145  -6.648  -4.747  0.00  0.00    +0.271 A 
ATOM      5  O   UNL     1       2.177  -7.846  -4.959  0.00  0.00    -0.266 OA
ATOM      6  C   UNL     1       3.048  -5.734  -5.457  0.00  0.00    +0.080 A 
ATOM      7  C   UNL     1       3.994  -6.010  -6.390  0.00  0.00    +0.030 C 
ATOM      8  S   UNL     1       2.564  -4.162  -4.764  0.00  0.00    -0.065 S 
ATOM      9  C   UNL     1       0.375  -6.906  -3.120  0.00  0.00    +0.118 C 
ATOM     10  C   UNL     1      -0.496  -6.397  -2.223  0.00  0.00    +0.079 C 
ATOM     11  C   UNL     1      -0.505  -4.901  -1.982  0.00  0.00    +0.102 C 
ENDROOT
BRANCH   7  12
ATOM     12  C   UNL     1       4.336  -7.405  -6.700  0.00  0.00    -0.005 A 
ATOM     13  C   UNL     1       4.405  -8.357  -5.676  0.00  0.00    +0.009 A 
ATOM     14  C   UNL     1       4.726  -9.663  -5.974  0.00  0.00    +0.001 A 
ATOM     15  C   UNL     1       4.981 -10.036  -7.283  0.00  0.00    +0.001 A 
ATOM     16  C   UNL     1       4.915  -9.103  -8.303  0.00  0.00    +0.020 A 
ATOM     17  C   UNL     1       4.589  -7.791  -8.022  0.00  0.00    +0.048 A 
ATOM     18 CL   UNL     1       4.500  -6.623  -9.303  0.00  0.00    -0.083 Cl
ENDBRANCH   7  12
BRANCH  11  19
ATOM     19  C   UNL     1      -1.889  -4.386  -2.280  0.00  0.00    -0.016 A 
ATOM     20  C   UNL     1      -2.383  -4.436  -3.570  0.00  0.00    +0.006 A 
ATOM     21  C   UNL     1      -3.653  -3.964  -3.844  0.00  0.00    +0.000 A 
ATOM     22  C   UNL     1      -4.430  -3.441  -2.827  0.00  0.00    +0.001 A 
ATOM     23  C   UNL     1      -3.938  -3.391  -1.537  0.00  0.00    +0.020 A 
ATOM     24  C   UNL     1      -2.669  -3.869  -1.261  0.00  0.00    +0.045 A 
ATOM     25 CL   UNL     1      -2.053  -3.811   0.361  0.00  0.00    -0.083 Cl
ENDBRANCH  11  19
BRANCH   1  27
ATOM     26  N   UNL     1      -0.242  -2.060  -1.798  0.00  0.00    -0.312 N 
ATOM     27  C   UNL     1       0.568  -2.702  -2.664  0.00  0.00    +0.244 C 
ATOM     28  O   UNL     1       1.370  -2.071  -3.330  0.00  0.00    -0.270 OA
ATOM     29  H   UNL     1      -0.881  -2.563  -1.269  0.00  0.00    +0.149 HD
BRANCH  26  30
ATOM     30  C   UNL     1      -0.157  -0.605  -1.657  0.00  0.00    +0.104 C 
BRANCH  30  32
ATOM     31  C   UNL     1      -1.088   1.387  -0.471  0.00  0.00    +0.005 C 
ATOM     32  C   UNL     1      -1.176  -0.133  -0.618  0.00  0.00    +0.015 C 
ENDBRANCH  30  32
ENDBRANCH  26  30
ENDBRANCH   1  27
BRANCH   9  33
ATOM     33  N   UNL     1       0.374  -8.265  -3.325  0.00  0.00    -0.343 N 
ATOM     34  H   UNL     1       0.104  -8.863  -2.611  0.00  0.00    +0.144 HD
ATOM     35  H   UNL     1       0.643  -8.626  -4.185  0.00  0.00    +0.144 HD
ENDBRANCH   9  33
BRANCH  10  36
ATOM     36  C   UNL     1      -1.393  -7.255  -1.509  0.00  0.00    +0.099 C 
ATOM     37  N   UNL     1      -2.105  -7.936  -0.943  0.00  0.00    -0.191 NA
ENDBRANCH  10  36
TORSDOF 7
