REMARK  Name = ZINC14240896
REMARK  11 active torsions:
REMARK  status: ('A' for Active; 'I' for Inactive)
REMARK    1  A    between atoms: C_1  and  C_2
REMARK    2  A    between atoms: C_2  and  C_3
REMARK    3  A    between atoms: C_3  and  C_27
REMARK    4  A    between atoms: N_6  and  N_10
REMARK    5  A    between atoms: C_11  and  C_13
REMARK    6  A    between atoms: C_13  and  S_14
REMARK    7  A    between atoms: S_14  and  C_15
REMARK    8  A    between atoms: C_16  and  C_24
REMARK    9  A    between atoms: C_17  and  C_23
REMARK   10  A    between atoms: C_18  and  C_22
REMARK   11  A    between atoms: C_19  and  C_21
REMARK                            x       y       z     vdW  Elec       q    Type
REMARK                         _______ _______ _______ _____ _____    ______ ____
ROOT
ATOM      1  N   UNL     1      -1.156  -0.694   0.009  0.00  0.00    -0.223 N 
ATOM      2  C   UNL     1       0.002  -0.004   0.002  0.00  0.00    +0.240 C 
ATOM      3  O   UNL     1       1.060  -0.596  -0.011  0.00  0.00    -0.273 OA
ATOM      4  H   UNL     1      -2.002  -0.220   0.020  0.00  0.00    +0.174 HD
ENDROOT
BRANCH   1   8
ATOM      5  C   UNL     1      -1.278  -4.288  -0.621  0.00  0.00    +0.139 C 
ATOM      6  C   UNL     1      -1.431  -2.850  -1.075  0.00  0.00    +0.268 C 
ATOM      7  O   UNL     1      -1.749  -2.460  -2.178  0.00  0.00    -0.271 OA
ATOM      8  N   UNL     1      -1.137  -2.095   0.002  0.00  0.00    -0.137 N 
ATOM      9  C   UNL     1      -0.830  -2.848   1.064  0.00  0.00    +0.327 C 
ATOM     10  O   UNL     1      -0.535  -2.394   2.152  0.00  0.00    -0.251 OA
ATOM     11  N   UNL     1      -0.886  -4.165   0.794  0.00  0.00    -0.280 N 
ATOM     12  H   UNL     1      -0.704  -4.891   1.410  0.00  0.00    +0.152 HD
BRANCH   5  13
ATOM     13  C   UNL     1      -2.589  -5.021  -0.746  0.00  0.00    -0.015 A 
ATOM     14  C   UNL     1      -2.860  -5.764  -1.880  0.00  0.00    +0.006 A 
ATOM     15  C   UNL     1      -4.060  -6.440  -1.993  0.00  0.00    +0.000 A 
ATOM     16  C   UNL     1      -4.994  -6.365  -0.977  0.00  0.00    +0.000 A 
ATOM     17  C   UNL     1      -4.725  -5.618   0.155  0.00  0.00    +0.000 A 
ATOM     18  C   UNL     1      -3.523  -4.946   0.270  0.00  0.00    +0.006 A 
ENDBRANCH   5  13
BRANCH   5  20
ATOM     19  C   UNL     1       1.147  -4.278  -1.220  0.00  0.00    +0.007 C 
ATOM     20  C   UNL     1      -0.186  -5.000  -1.422  0.00  0.00    +0.037 C 
ENDBRANCH   5  20
ENDBRANCH   1   8
BRANCH   2  21
ATOM     21  C   UNL     1      -0.018   1.503   0.010  0.00  0.00    +0.173 C 
BRANCH  21  22
ATOM     22  S   UNL     1       1.680   2.129  -0.003  0.00  0.00    -0.096 S 
BRANCH  22  23
ATOM     23  C   UNL     1       1.366   3.863   0.010  0.00  0.00    +0.110 A 
ATOM     24  C   UNL     1       2.442   4.769   0.004  0.00  0.00    +0.071 A 
ATOM     25  C   UNL     1       2.168   6.141   0.014  0.00  0.00    -0.031 A 
ATOM     26  C   UNL     1       0.845   6.547   0.028  0.00  0.00    -0.026 A 
ATOM     27  C   UNL     1      -0.160   5.596   0.033  0.00  0.00    +0.043 A 
ATOM     28  N   UNL     1       0.118   4.307   0.018  0.00  0.00    -0.245 NA
ATOM     29  C   UNL     1      -1.600   6.042   0.048  0.00  0.00    +0.066 C 
ATOM     30  C   UNL     1       0.501   8.014   0.039  0.00  0.00    +0.046 C 
ATOM     31  C   UNL     1       3.285   7.152   0.009  0.00  0.00    +0.045 C 
BRANCH  24  32
ATOM     32  C   UNL     1       3.833   4.282  -0.011  0.00  0.00    +0.244 C 
ATOM     33  O   UNL     1       4.397   4.086  -1.070  0.00  0.00    -0.270 OA
ATOM     34  N   UNL     1       4.480   4.053   1.150  0.00  0.00    -0.325 N 
ATOM     35  H   UNL     1       4.030   4.210   1.995  0.00  0.00    +0.145 HD
ATOM     36  H   UNL     1       5.395   3.733   1.140  0.00  0.00    +0.145 HD
ENDBRANCH  24  32
ENDBRANCH  22  23
ENDBRANCH  21  22
ENDBRANCH   2  21
TORSDOF 7
