REMARK  Name = ZINC16880967
REMARK  7 active torsions:
REMARK  status: ('A' for Active; 'I' for Inactive)
REMARK    1  A    between atoms: C_1  and  C_2
REMARK    2  A    between atoms: C_3  and  C_17
REMARK    3  A    between atoms: N_6  and  C_10
REMARK    4  A    between atoms: C_10  and  C_11
REMARK    5  A    between atoms: C_17  and  C_18
REMARK    6  A    between atoms: C_21  and  O_24
REMARK    7  A    between atoms: O_24  and  C_25
REMARK                            x       y       z     vdW  Elec       q    Type
REMARK                         _______ _______ _______ _____ _____    ______ ____
ROOT
ATOM      1  C   UNL     1      -4.190   0.100   5.381  0.00  0.00    +0.066 C 
ATOM      2  C   UNL     1      -3.732   0.310   3.961  0.00  0.00    +0.050 A 
ATOM      3  C   UNL     1      -2.935  -0.619   3.358  0.00  0.00    +0.042 A 
ATOM      4  C   UNL     1      -2.525  -0.403   2.030  0.00  0.00    +0.259 A 
ATOM      5  O   UNL     1      -1.816  -1.215   1.458  0.00  0.00    -0.267 OA
ATOM      6  N   UNL     1      -2.927   0.722   1.401  0.00  0.00    -0.277 N 
ATOM      7  C   UNL     1      -3.721   1.613   2.053  0.00  0.00    +0.196 A 
ATOM      8  N   UNL     1      -4.106   1.402   3.296  0.00  0.00    -0.221 NA
ATOM      9  N   UNL     1      -4.129   2.749   1.407  0.00  0.00    -0.329 N 
ATOM     10  H   UNL     1      -3.852   2.913   0.492  0.00  0.00    +0.145 HD
ATOM     11  H   UNL     1      -4.696   3.390   1.864  0.00  0.00    +0.145 HD
ENDROOT
BRANCH   6  12
ATOM     12  C   UNL     1      -2.514   0.980   0.019  0.00  0.00    +0.163 C 
BRANCH  12  13
ATOM     13  C   UNL     1      -1.219   1.751   0.017  0.00  0.00    -0.028 A 
ATOM     14  C   UNL     1      -0.013   1.076   0.008  0.00  0.00    +0.005 A 
ATOM     15  C   UNL     1       1.175   1.783   0.000  0.00  0.00    +0.000 A 
ATOM     16  C   UNL     1       1.156   3.165   0.008  0.00  0.00    +0.000 A 
ATOM     17  C   UNL     1      -0.050   3.840   0.022  0.00  0.00    +0.000 A 
ATOM     18  C   UNL     1      -1.238   3.133   0.030  0.00  0.00    +0.005 A 
ENDBRANCH  12  13
ENDBRANCH   6  12
BRANCH   3  19
ATOM     19  C   UNL     1      -2.505  -1.857   4.100  0.00  0.00    +0.077 C 
BRANCH  19  20
ATOM     20  C   UNL     1      -3.448  -2.989   3.777  0.00  0.00    -0.043 A 
ATOM     21  C   UNL     1      -4.570  -3.196   4.558  0.00  0.00    +0.007 A 
ATOM     22  C   UNL     1      -5.438  -4.228   4.261  0.00  0.00    +0.046 A 
ATOM     23  C   UNL     1      -5.177  -5.064   3.184  0.00  0.00    +0.120 A 
ATOM     24  C   UNL     1      -4.048  -4.857   2.406  0.00  0.00    +0.046 A 
ATOM     25  C   UNL     1      -3.185  -3.820   2.705  0.00  0.00    +0.007 A 
BRANCH  23  26
ATOM     26  O   UNL     1      -6.027  -6.084   2.893  0.00  0.00    -0.495 OA
ATOM     27  C   UNL     1      -7.170  -6.237   3.737  0.00  0.00    +0.277 C 
ENDBRANCH  23  26
ENDBRANCH  19  20
ENDBRANCH   3  19
TORSDOF 5
