REMARK  Name = ZINC43149428
REMARK  7 active torsions:
REMARK  status: ('A' for Active; 'I' for Inactive)
REMARK    1  A    between atoms: C_1  and  C_2
REMARK    2  A    between atoms: C_5  and  N_24
REMARK    3  A    between atoms: C_7  and  N_8
REMARK    4  A    between atoms: N_11  and  C_12
REMARK    5  A    between atoms: C_12  and  C_13
REMARK    6  A    between atoms: C_13  and  N_14
REMARK    7  A    between atoms: C_15  and  C_17
REMARK                            x       y       z     vdW  Elec       q    Type
REMARK                         _______ _______ _______ _____ _____    ______ ____
ROOT
ATOM      1  N   UNL     1       0.025  -0.015   2.417  0.00  0.00    -0.269 N 
ATOM      2  C   UNL     1      -0.056  -0.694   3.578  0.00  0.00    +0.304 C 
ATOM      3  O   UNL     1      -0.040  -1.910   3.573  0.00  0.00    -0.253 OA
ATOM      4  N   UNL     1      -0.156  -0.026   4.745  0.00  0.00    -0.298 N 
ATOM      5  H   UNL     1       0.078   0.954   2.425  0.00  0.00    +0.156 HD
ATOM      6  H   UNL     1      -0.169   0.944   4.748  0.00  0.00    +0.150 HD
ENDROOT
BRANCH   1  13
ATOM      7  C   UNL     1      -1.265   1.183   0.181  0.00  0.00    +0.045 C 
ATOM      8  C   UNL     1      -0.584  -0.158   0.084  0.00  0.00    -0.029 A 
ATOM      9  C   UNL     1      -0.569  -0.840  -1.117  0.00  0.00    +0.007 A 
ATOM     10  C   UNL     1       0.056  -2.070  -1.206  0.00  0.00    +0.033 A 
ATOM     11  C   UNL     1       0.667  -2.622  -0.095  0.00  0.00    +0.128 A 
ATOM     12  C   UNL     1       0.655  -1.945   1.108  0.00  0.00    +0.056 A 
ATOM     13  C   UNL     1       0.034  -0.706   1.200  0.00  0.00    +0.040 A 
BRANCH  11  14
ATOM     14  N   UNL     1       1.335  -3.939  -0.196  0.00  0.00    +0.056 N 
ATOM     15  O   UNL     1       1.345  -4.532  -1.249  0.00  0.00    -0.126 OA
ATOM     16  O   UNL     1       1.870  -4.421   0.775  0.00  0.00    -0.126 OA
ENDBRANCH  11  14
ENDBRANCH   1  13
BRANCH   4  17
ATOM     17  C   UNL     1      -0.245  -0.765   6.006  0.00  0.00    +0.124 C 
BRANCH  17  18
ATOM     18  C   UNL     1      -0.348   0.223   7.170  0.00  0.00    +0.123 C 
BRANCH  18  19
ATOM     19  N   UNL     1      -0.437  -0.516   8.432  0.00  0.00    -0.310 N 
ATOM     20  C   UNL     1      -0.536   0.152   9.598  0.00  0.00    +0.246 C 
ATOM     21  O   UNL     1      -0.553   1.368   9.603  0.00  0.00    -0.270 OA
ATOM     22  H   UNL     1      -0.424  -1.486   8.428  0.00  0.00    +0.149 HD
BRANCH  20  23
ATOM     23  C   UNL     1      -0.626  -0.593  10.871  0.00  0.00    +0.055 A 
ATOM     24  C   UNL     1      -0.601  -1.989  10.870  0.00  0.00    +0.014 A 
ATOM     25  C   UNL     1      -0.685  -2.679  12.061  0.00  0.00    +0.001 A 
ATOM     26  C   UNL     1      -0.793  -1.990  13.257  0.00  0.00    +0.001 A 
ATOM     27  C   UNL     1      -0.818  -0.608  13.267  0.00  0.00    +0.021 A 
ATOM     28  C   UNL     1      -0.729   0.096  12.082  0.00  0.00    +0.053 A 
ATOM     29 CL   UNL     1      -0.753   1.832  12.096  0.00  0.00    -0.083 Cl
ENDBRANCH  20  23
ENDBRANCH  18  19
ENDBRANCH  17  18
ENDBRANCH   4  17
TORSDOF 6
