REMARK  Name = ZINC61886234
REMARK  5 active torsions:
REMARK  status: ('A' for Active; 'I' for Inactive)
REMARK    1  A    between atoms: C_1  and  C_2
REMARK    2  A    between atoms: C_5  and  C_7
REMARK    3  A    between atoms: N_9  and  C_10
REMARK    4  A    between atoms: C_15  and  C_17
REMARK    5  A    between atoms: N_18  and  O_19
REMARK                            x       y       z     vdW  Elec       q    Type
REMARK                         _______ _______ _______ _____ _____    ______ ____
ROOT
ATOM      1  C   UNL     1       2.957  -5.525   0.064  0.00  0.00    +0.083 C 
ATOM      2  C   UNL     1       2.895  -6.059  -1.378  0.00  0.00    +0.023 C 
ATOM      3  C   UNL     1       4.354  -6.255  -1.839  0.00  0.00    +0.003 C 
ATOM      4  C   UNL     1       5.169  -5.292  -0.939  0.00  0.00    +0.013 C 
ATOM      5  C   UNL     1       4.452  -5.414   0.430  0.00  0.00    +0.076 C 
ENDROOT
BRANCH   5   6
ATOM      6  C   UNL     1       4.700  -4.186   1.267  0.00  0.00    +0.136 C 
ATOM      7  N   UNL     1       5.086  -3.088   0.706  0.00  0.00    -0.076 NA
ATOM      8  N   UNL     1       4.515  -4.234   2.631  0.00  0.00    -0.344 N 
ATOM      9  H   UNL     1       4.226  -5.058   3.053  0.00  0.00    +0.144 HD
ATOM     10  H   UNL     1       4.675  -3.443   3.170  0.00  0.00    +0.144 HD
BRANCH   7  11
ATOM     11  O   UNL     1       5.319  -1.934   1.493  0.00  0.00    -0.408 OA
ATOM     12  H   UNL     1       5.604  -1.163   0.985  0.00  0.00    +0.328 HD
ENDBRANCH   7  11
ENDBRANCH   5   6
BRANCH   1  15
ATOM     13  C   UNL     1       1.010  -4.105   0.421  0.00  0.00    +0.251 C 
ATOM     14  O   UNL     1       0.350  -5.109   0.616  0.00  0.00    -0.270 OA
ATOM     15  N   UNL     1       2.323  -4.206   0.138  0.00  0.00    -0.307 N 
ATOM     16  H   UNL     1       2.849  -3.406  -0.018  0.00  0.00    +0.149 HD
BRANCH  13  21
ATOM     17  C   UNL     1      -0.370   1.275   0.457  0.00  0.00    +0.051 C 
ATOM     18  C   UNL     1      -0.263  -0.227   0.508  0.00  0.00    -0.013 A 
ATOM     19  C   UNL     1      -1.247  -1.124   0.769  0.00  0.00    +0.011 A 
ATOM     20  C   UNL     1      -0.946  -2.465   0.769  0.00  0.00    +0.021 A 
ATOM     21  C   UNL     1       0.375  -2.785   0.495  0.00  0.00    +0.074 A 
ATOM     22  S   UNL     1       1.099  -1.175   0.249  0.00  0.00    -0.089 S 
ENDBRANCH  13  21
ENDBRANCH   1  15
TORSDOF 4
