REMARK  Name = ZINC35259825
REMARK  3 active torsions:
REMARK  status: ('A' for Active; 'I' for Inactive)
REMARK    1  A    between atoms: C_10  and  N_14
REMARK    2  A    between atoms: C_15  and  C_17
REMARK    3  A    between atoms: C_17  and  C_18
REMARK                            x       y       z     vdW  Elec       q    Type
REMARK                         _______ _______ _______ _____ _____    ______ ____
ROOT
ATOM      1  C   UNL     1       0.157   1.186  -1.202  0.00  0.00    +0.015 A 
ATOM      2  C   UNL     1       1.334   1.857  -1.168  0.00  0.00    +0.071 A 
ATOM      3  C   UNL     1       2.463   1.282  -0.546  0.00  0.00    +0.249 A 
ATOM      4  O   UNL     1       3.512   1.903  -0.527  0.00  0.00    -0.268 OA
ATOM      5  N   UNL     1       2.410   0.067   0.027  0.00  0.00    -0.320 N 
ATOM      6  H   UNL     1       3.204  -0.298   0.447  0.00  0.00    +0.169 HD
ATOM      7  C   UNL     1       1.241  -0.668   0.027  0.00  0.00    +0.085 A 
ATOM      8  C   UNL     1       0.087  -0.138  -0.581  0.00  0.00    +0.003 A 
ATOM      9  C   UNL     1      -1.101  -0.876  -0.585  0.00  0.00    +0.033 A 
ATOM     10  C   UNL     1      -1.132  -2.123   0.009  0.00  0.00    +0.037 A 
ATOM     11  C   UNL     1       0.013  -2.645   0.610  0.00  0.00    +0.063 A 
ATOM     12  C   UNL     1       1.189  -1.927   0.622  0.00  0.00    +0.149 A 
ATOM     13  F   UNL     1       2.291  -2.443   1.208  0.00  0.00    -0.203 F 
ENDROOT
BRANCH  10  14
ATOM     14  N   UNL     1      -2.319  -2.867   0.008  0.00  0.00    -0.285 N 
ATOM     15  C   UNL     1      -2.273  -4.209  -0.102  0.00  0.00    +0.217 C 
ATOM     16  O   UNL     1      -1.204  -4.781  -0.116  0.00  0.00    -0.275 OA
ATOM     17  H   UNL     1      -3.174  -2.415   0.086  0.00  0.00    +0.155 HD
BRANCH  15  18
ATOM     18  C   UNL     1      -3.552  -5.000  -0.207  0.00  0.00    +0.099 C 
BRANCH  18  19
ATOM     19  C   UNL     1      -3.222  -6.490  -0.321  0.00  0.00    -0.002 C 
ATOM     20  C   UNL     1      -2.532  -6.777  -1.670  0.00  0.00    +0.004 C 
ATOM     21  C   UNL     1      -3.091  -8.158  -2.096  0.00  0.00    +0.000 C 
ATOM     22  C   UNL     1      -4.570  -8.082  -1.643  0.00  0.00    +0.000 C 
ATOM     23  C   UNL     1      -4.518  -7.320  -0.303  0.00  0.00    +0.004 C 
ENDBRANCH  18  19
ENDBRANCH  15  18
ENDBRANCH  10  14
TORSDOF 3
