REMARK  Name = ZINC41545546
REMARK  5 active torsions:
REMARK  status: ('A' for Active; 'I' for Inactive)
REMARK    1  A    between atoms: C_1  and  C_2
REMARK    2  A    between atoms: C_9  and  N_14
REMARK    3  A    between atoms: C_10  and  C_11
REMARK    4  A    between atoms: C_15  and  C_17
REMARK    5  A    between atoms: C_17  and  C_28
REMARK                            x       y       z     vdW  Elec       q    Type
REMARK                         _______ _______ _______ _____ _____    ______ ____
ROOT
ATOM      1  N   UNL     1       0.696  -5.847   2.434  0.00  0.00    -0.276 N 
ATOM      2  C   UNL     1       1.677  -6.096   3.324  0.00  0.00    +0.270 C 
ATOM      3  O   UNL     1       2.383  -5.191   3.716  0.00  0.00    -0.271 OA
ATOM      4  H   UNL     1       0.131  -6.571   2.120  0.00  0.00    +0.155 HD
ENDROOT
BRANCH   2   5
ATOM      5  C   UNL     1       1.898  -7.498   3.830  0.00  0.00    +0.258 C 
ATOM      6  C   UNL     1       2.568  -7.444   5.180  0.00  0.00    +0.270 C 
ATOM      7  O   UNL     1       3.777  -7.494   5.262  0.00  0.00    -0.271 OA
ATOM      8  N   UNL     1       1.817  -7.338   6.296  0.00  0.00    -0.279 N 
ATOM      9  C   UNL     1       0.421  -7.409   6.190  0.00  0.00    +0.076 A 
ATOM     10  C   UNL     1      -0.385  -7.080   7.269  0.00  0.00    +0.027 A 
ATOM     11  C   UNL     1      -1.760  -7.142   7.144  0.00  0.00    +0.002 A 
ATOM     12  C   UNL     1      -2.333  -7.530   5.946  0.00  0.00    +0.004 A 
ATOM     13  C   UNL     1      -1.534  -7.864   4.868  0.00  0.00    +0.047 A 
ATOM     14  C   UNL     1      -0.156  -7.810   4.987  0.00  0.00    +0.144 A 
ATOM     15  O   UNL     1       0.640  -8.166   3.944  0.00  0.00    -0.465 OA
ATOM     16  C   UNL     1       2.792  -8.258   2.849  0.00  0.00    +0.076 C 
ATOM     17  H   UNL     1       2.238  -7.216   7.161  0.00  0.00    +0.155 HD
ENDBRANCH   2   5
BRANCH   1  25
ATOM     18  C   UNL     1      -0.019   1.526   0.010  0.00  0.00    +0.008 C 
ATOM     19  C   UNL     1       0.002  -0.004   0.002  0.00  0.00    -0.009 C 
ATOM     20  C   UNL     1      -1.434  -0.537   0.019  0.00  0.00    +0.008 C 
ATOM     21  C   UNL     1      -1.433  -2.045  -0.237  0.00  0.00    +0.037 C 
ATOM     22  C   UNL     1      -0.464  -2.704   0.734  0.00  0.00    -0.023 A 
ATOM     23  C   UNL     1       0.485  -1.986   1.374  0.00  0.00    -0.004 A 
ATOM     24  S   UNL     1       1.343  -3.167   2.373  0.00  0.00    -0.077 S 
ATOM     25  C   UNL     1       0.492  -4.557   1.968  0.00  0.00    +0.085 A 
ATOM     26  C   UNL     1      -0.459  -4.119   1.061  0.00  0.00    +0.068 A 
ATOM     27  C   UNL     1       0.739  -0.515   1.248  0.00  0.00    +0.046 C 
BRANCH  26  28
ATOM     28  C   UNL     1      -1.421  -5.045   0.456  0.00  0.00    +0.244 C 
ATOM     29  O   UNL     1      -1.149  -5.611  -0.587  0.00  0.00    -0.270 OA
ATOM     30  N   UNL     1      -2.608  -5.271   1.055  0.00  0.00    -0.325 N 
ATOM     31  H   UNL     1      -2.825  -4.821   1.886  0.00  0.00    +0.145 HD
ATOM     32  H   UNL     1      -3.244  -5.884   0.655  0.00  0.00    +0.145 HD
ENDBRANCH  26  28
ENDBRANCH   1  25
TORSDOF 3
