REMARK  Name = ZINC01360538
REMARK  8 active torsions:
REMARK  status: ('A' for Active; 'I' for Inactive)
REMARK    1  A    between atoms: C_1  and  C_2
REMARK    2  A    between atoms: C_5  and  N_9
REMARK    3  A    between atoms: C_6  and  C_8
REMARK    4  A    between atoms: N_15  and  C_16
REMARK    5  A    between atoms: C_19  and  O_24
REMARK    6  A    between atoms: C_20  and  O_22
REMARK    7  A    between atoms: O_22  and  C_23
REMARK    8  A    between atoms: O_24  and  C_25
REMARK                            x       y       z     vdW  Elec       q    Type
REMARK                         _______ _______ _______ _____ _____    ______ ____
ROOT
ATOM      1  N   UNL     1      -0.272  -0.370   1.633  0.00  0.00    -0.287 N 
ATOM      2  C   UNL     1      -1.304  -0.881   0.879  0.00  0.00    +0.194 C 
ATOM      3  N   UNL     1      -2.442  -0.280   0.719  0.00  0.00    -0.246 NA
ATOM      4  C   UNL     1      -3.276  -1.131  -0.145  0.00  0.00    +0.241 C 
ATOM      5  C   UNL     1      -2.391  -2.326  -0.443  0.00  0.00    +0.248 C 
ATOM      6  O   UNL     1      -2.662  -3.292  -1.124  0.00  0.00    -0.273 OA
ATOM      7  N   UNL     1      -1.235  -2.079   0.208  0.00  0.00    -0.211 N 
ATOM      8  H   UNL     1       0.521  -0.904   1.795  0.00  0.00    +0.155 HD
ENDROOT
BRANCH   1  13
ATOM      9  C   UNL     1      -0.661   4.859   3.798  0.00  0.00    +0.044 C 
ATOM     10  C   UNL     1      -0.557   3.470   3.223  0.00  0.00    -0.050 A 
ATOM     11  C   UNL     1      -1.415   3.076   2.212  0.00  0.00    +0.005 A 
ATOM     12  C   UNL     1      -1.320   1.806   1.679  0.00  0.00    +0.024 A 
ATOM     13  C   UNL     1      -0.368   0.919   2.167  0.00  0.00    +0.036 A 
ATOM     14  C   UNL     1       0.492   1.318   3.182  0.00  0.00    -0.029 A 
ATOM     15  C   UNL     1       0.395   2.592   3.707  0.00  0.00    +0.008 A 
ATOM     16  C   UNL     1       1.530   0.361   3.710  0.00  0.00    +0.045 C 
ENDBRANCH   1  13
BRANCH   7  17
ATOM     17  C   UNL     1      -0.120  -2.930   0.205  0.00  0.00    +0.048 A 
ATOM     18  C   UNL     1       0.793  -2.874  -0.840  0.00  0.00    +0.028 A 
ATOM     19  C   UNL     1       1.895  -3.707  -0.842  0.00  0.00    +0.051 A 
ATOM     20  C   UNL     1       2.086  -4.608   0.193  0.00  0.00    +0.162 A 
ATOM     21  C   UNL     1       1.170  -4.670   1.239  0.00  0.00    +0.163 A 
ATOM     22  C   UNL     1       0.069  -3.831   1.244  0.00  0.00    +0.073 A 
BRANCH  21  23
ATOM     23  O   UNL     1       1.357  -5.554   2.256  0.00  0.00    -0.491 OA
ATOM     24  C   UNL     1       0.377  -5.563   3.296  0.00  0.00    +0.277 C 
ENDBRANCH  21  23
BRANCH  20  25
ATOM     25  O   UNL     1       3.168  -5.433   0.187  0.00  0.00    -0.491 OA
ATOM     26  C   UNL     1       4.067  -5.314  -0.918  0.00  0.00    +0.277 C 
ENDBRANCH  20  25
ENDBRANCH   7  17
TORSDOF 4
