REMARK  Name = ZINC47929341
REMARK  6 active torsions:
REMARK  status: ('A' for Active; 'I' for Inactive)
REMARK    1  A    between atoms: C_1  and  C_2
REMARK    2  A    between atoms: C_4  and  C_20
REMARK    3  A    between atoms: C_6  and  O_8
REMARK    4  A    between atoms: O_8  and  C_9
REMARK    5  A    between atoms: C_9  and  C_10
REMARK    6  A    between atoms: N_12  and  C_13
REMARK                            x       y       z     vdW  Elec       q    Type
REMARK                         _______ _______ _______ _____ _____    ______ ____
ROOT
ATOM      1  C   UNL     1       0.234  -2.933   4.764  0.00  0.00    +0.255 C 
ATOM      2  O   UNL     1       0.401  -4.125   4.615  0.00  0.00    -0.272 OA
ATOM      3  N   UNL     1       0.063  -2.425   6.000  0.00  0.00    -0.279 N 
ATOM      4  H   UNL     1       0.002  -1.465   6.126  0.00  0.00    +0.155 HD
ENDROOT
BRANCH   3   5
ATOM      5  C   UNL     1      -0.026  -3.285   7.106  0.00  0.00    +0.097 A 
ATOM      6  C   UNL     1       0.851  -3.174   8.135  0.00  0.00    +0.110 A 
ATOM      7  N   UNL     1       0.768  -4.004   9.206  0.00  0.00    -0.365 N 
ATOM      8  C   UNL     1      -0.185  -4.964   9.285  0.00  0.00    +0.086 A 
ATOM      9  C   UNL     1      -1.089  -5.126   8.293  0.00  0.00    +0.070 A 
ATOM     10  C   UNL     1      -1.038  -4.278   7.165  0.00  0.00    +0.203 A 
ATOM     11  O   UNL     1      -1.846  -4.400   6.255  0.00  0.00    -0.286 OA
ATOM     12  H   UNL     1       1.405  -3.908   9.931  0.00  0.00    +0.165 HD
ENDBRANCH   3   5
BRANCH   1  13
ATOM     13  C   UNL     1       0.217  -2.020   3.565  0.00  0.00    +0.324 C 
BRANCH  13  14
ATOM     14  O   UNL     1       0.417  -2.789   2.377  0.00  0.00    -0.483 OA
BRANCH  14  20
ATOM     15  C   UNL     1       0.071   1.443  -0.029  0.00  0.00    +0.044 C 
ATOM     16  C   UNL     1       0.264  -0.052  -0.014  0.00  0.00    -0.047 A 
ATOM     17  C   UNL     1       0.453  -0.736  -1.200  0.00  0.00    +0.007 A 
ATOM     18  C   UNL     1       0.630  -2.107  -1.190  0.00  0.00    -0.047 A 
ATOM     19  C   UNL     1       0.618  -2.797   0.007  0.00  0.00    +0.049 A 
ATOM     20  C   UNL     1       0.429  -2.113   1.199  0.00  0.00    +0.122 A 
ATOM     21  C   UNL     1       0.257  -0.736   1.186  0.00  0.00    +0.049 A 
ATOM     22  C   UNL     1       0.836  -2.849  -2.485  0.00  0.00    +0.044 C 
ENDBRANCH  14  20
ENDBRANCH  13  14
ENDBRANCH   1  13
TORSDOF 4
