REMARK  Name = ZINC04348862
REMARK  10 active torsions:
REMARK  status: ('A' for Active; 'I' for Inactive)
REMARK    1  A    between atoms: C_1  and  C_2
REMARK    2  A    between atoms: C_3  and  C_13
REMARK    3  A    between atoms: C_5  and  C_9
REMARK    4  A    between atoms: C_6  and  C_8
REMARK    5  A    between atoms: N_11  and  N_12
REMARK    6  A    between atoms: C_16  and  C_18
REMARK    7  A    between atoms: C_21  and  C_24
REMARK    8  A    between atoms: C_24  and  C_25
REMARK    9  A    between atoms: C_24  and  C_26
REMARK   10  A    between atoms: C_24  and  C_27
REMARK                            x       y       z     vdW  Elec       q    Type
REMARK                         _______ _______ _______ _____ _____    ______ ____
ROOT
ATOM      1  C   UNL     1      -0.495   1.455  -0.131  0.00  0.00    +0.066 C 
ATOM      2  C   UNL     1      -0.224  -0.026  -0.065  0.00  0.00    +0.051 A 
ATOM      3  C   UNL     1       0.042  -0.732  -1.241  0.00  0.00    +0.060 A 
ATOM      4  C   UNL     1       0.292  -2.105  -1.165  0.00  0.00    +0.030 A 
ATOM      5  C   UNL     1       0.264  -2.712   0.093  0.00  0.00    +0.060 A 
ATOM      6  C   UNL     1      -0.011  -1.930   1.217  0.00  0.00    +0.051 A 
ATOM      7  N   UNL     1      -0.235  -0.637   1.102  0.00  0.00    -0.256 NA
ATOM      8  C   UNL     1      -0.044  -2.573   2.579  0.00  0.00    +0.066 C 
ENDROOT
BRANCH   3   9
ATOM      9  C   UNL     1       0.058  -0.037  -2.545  0.00  0.00    +0.250 A 
ATOM     10  N   UNL     1      -0.155   1.244  -2.746  0.00  0.00    -0.107 NA
ATOM     11  N   UNL     1      -0.063   1.500  -4.003  0.00  0.00    -0.107 NA
ATOM     12  C   UNL     1       0.212   0.392  -4.655  0.00  0.00    +0.249 A 
ATOM     13  O   UNL     1       0.300  -0.600  -3.746  0.00  0.00    -0.416 OA
BRANCH  12  14
ATOM     14  C   UNL     1       0.397   0.260  -6.115  0.00  0.00    +0.039 A 
ATOM     15  C   UNL     1       0.681  -0.987  -6.675  0.00  0.00    +0.013 A 
ATOM     16  C   UNL     1       0.853  -1.104  -8.039  0.00  0.00    +0.005 A 
ATOM     17  C   UNL     1       0.745   0.011  -8.851  0.00  0.00    -0.042 A 
ATOM     18  C   UNL     1       0.464   1.250  -8.302  0.00  0.00    +0.005 A 
ATOM     19  C   UNL     1       0.283   1.380  -6.941  0.00  0.00    +0.013 A 
BRANCH  17  20
ATOM     20  C   UNL     1       0.933  -0.124 -10.340  0.00  0.00    -0.013 C 
ATOM     21  C   UNL     1      -0.108  -1.095 -10.900  0.00  0.00    +0.015 C 
ATOM     22  C   UNL     1       0.763   1.245 -11.002  0.00  0.00    +0.015 C 
ATOM     23  C   UNL     1       2.337  -0.659 -10.629  0.00  0.00    +0.015 C 
ENDBRANCH  17  20
ENDBRANCH  12  14
ENDBRANCH   3   9
BRANCH   5  24
ATOM     24  C   UNL     1       0.520  -4.162   0.232  0.00  0.00    +0.259 C 
ATOM     25  O   UNL     1       0.607  -4.660   1.337  0.00  0.00    -0.269 OA
ATOM     26  N   UNL     1       0.658  -4.930  -0.866  0.00  0.00    -0.250 N 
ATOM     27  H   UNL     1       0.589  -4.532  -1.748  0.00  0.00    +0.169 HD
BRANCH  26  28
ATOM     28  N   UNL     1       0.895  -6.269  -0.738  0.00  0.00    -0.254 NA
ATOM     29  H   UNL     1       0.975  -6.711  -1.641  0.00  0.00    +0.140 HD
ATOM     30  H   UNL     1       1.718  -6.439  -0.178  0.00  0.00    +0.140 HD
ENDBRANCH  26  28
ENDBRANCH   5  24
TORSDOF 5
