REMARK  Name = ZINC11966359
REMARK  10 active torsions:
REMARK  status: ('A' for Active; 'I' for Inactive)
REMARK    1  A    between atoms: C_1  and  C_2
REMARK    2  A    between atoms: C_2  and  C_3
REMARK    3  A    between atoms: C_4  and  C_19
REMARK    4  A    between atoms: C_8  and  C_18
REMARK    5  A    between atoms: N_9  and  C_10
REMARK    6  A    between atoms: C_10  and  C_11
REMARK    7  A    between atoms: C_16  and  C_17
REMARK    8  A    between atoms: C_16  and  N_70
REMARK    9  A    between atoms: C_26  and  C_27
REMARK   10  A    between atoms: C_26  and  N_72
REMARK                            x       y       z     vdW  Elec       q    Type
REMARK                         _______ _______ _______ _____ _____    ______ ____
ROOT
ATOM      1  C   UNL     1       4.049   3.099   0.031  0.00  0.00    +0.034 A 
ATOM      2  C   UNL     1       4.957   4.138   0.022  0.00  0.00    +0.103 A 
ATOM      3  C   UNL     1       5.602   4.487  -1.254  0.00  0.00    +0.194 A 
ATOM      4  O   UNL     1       6.414   5.397  -1.321  0.00  0.00    -0.287 OA
ATOM      5  C   UNL     1       5.250   3.734  -2.401  0.00  0.00    +0.072 A 
ATOM      6  C   UNL     1       4.354   2.733  -2.286  0.00  0.00    +0.019 A 
ATOM      7  N   UNL     1       3.768   2.432  -1.101  0.00  0.00    -0.349 N 
ATOM      8  C   UNL     1       3.988   1.932  -3.509  0.00  0.00    +0.063 C 
ENDROOT
BRANCH   2   9
ATOM      9  C   UNL     1       5.274   4.877   1.256  0.00  0.00    +0.252 C 
ATOM     10  O   UNL     1       6.130   4.458   2.012  0.00  0.00    -0.270 OA
ATOM     11  N   UNL     1       4.616   6.016   1.547  0.00  0.00    -0.301 N 
ATOM     12  C   UNL     1       3.509   6.486   0.700  0.00  0.00    +0.089 C 
ATOM     13  C   UNL     1       2.300   6.777   1.604  0.00  0.00    -0.059 C 
ATOM     14  C   UNL     1       3.727   7.107   3.538  0.00  0.00    -0.059 C 
ATOM     15  C   UNL     1       4.989   6.826   2.716  0.00  0.00    +0.089 C 
ATOM     16  N   UNL     1       2.716   7.730   2.656  0.00  0.00    +0.384 N 
ATOM     17  H   UNL     1       3.127   8.558   2.211  0.00  0.00    -0.081 HD
BRANCH  16  18
ATOM     18  C   UNL     1       1.542   8.147   3.451  0.00  0.00    -0.043 C 
BRANCH  18  19
ATOM     19  C   UNL     1       0.422   8.525   2.516  0.00  0.00    -0.064 A 
ATOM     20  C   UNL     1       0.311   9.825   2.060  0.00  0.00    +0.002 A 
ATOM     21  C   UNL     1      -0.713  10.170   1.199  0.00  0.00    +0.000 A 
ATOM     22  C   UNL     1      -1.633   9.218   0.802  0.00  0.00    +0.000 A 
ATOM     23  C   UNL     1      -1.526   7.919   1.263  0.00  0.00    +0.000 A 
ATOM     24  C   UNL     1      -0.498   7.572   2.120  0.00  0.00    +0.002 A 
ENDBRANCH  18  19
ENDBRANCH  16  18
ENDBRANCH   2   9
BRANCH   1  26
ATOM     25  C   UNL     1       4.282   1.783   2.119  0.00  0.00    +0.010 C 
ATOM     26  C   UNL     1       3.368   2.712   1.318  0.00  0.00    +0.051 C 
ENDBRANCH   1  26
BRANCH   7  27
ATOM     27  C   UNL     1       2.798   1.335  -1.051  0.00  0.00    +0.106 C 
BRANCH  27  28
ATOM     28  C   UNL     1       3.506   0.048  -0.626  0.00  0.00    -0.049 C 
ATOM     29  C   UNL     1       2.500  -1.122  -0.556  0.00  0.00    -0.015 C 
ATOM     30  C   UNL     1       3.278  -2.350  -1.071  0.00  0.00    -0.020 C 
ATOM     31  C   UNL     1       4.688  -1.820  -1.408  0.00  0.00    -0.078 C 
ATOM     32  N   UNL     1       4.473  -0.394  -1.637  0.00  0.00    +0.383 N 
ATOM     33  H   UNL     1       4.091  -0.243  -2.578  0.00  0.00    -0.081 HD
BRANCH  32  34
ATOM     34  C   UNL     1       5.756   0.366  -1.501  0.00  0.00    -0.082 C 
ATOM     35  C   UNL     1       6.636   0.131  -2.730  0.00  0.00    -0.017 C 
ENDBRANCH  32  34
ENDBRANCH  27  28
ENDBRANCH   7  27
TORSDOF 7
