REMARK  Name = ZINC07787382
REMARK  5 active torsions:
REMARK  status: ('A' for Active; 'I' for Inactive)
REMARK    1  A    between atoms: C_1  and  C_2
REMARK    2  A    between atoms: C_2  and  C_24
REMARK    3  A    between atoms: C_3  and  C_19
REMARK    4  A    between atoms: N_6  and  O_7
REMARK    5  A    between atoms: N_13  and  N_14
REMARK                            x       y       z     vdW  Elec       q    Type
REMARK                         _______ _______ _______ _____ _____    ______ ____
ROOT
ATOM      1  C   UNL     1       4.696  -3.251  -2.659  0.00  0.00    +0.037 C 
ATOM      2  C   UNL     1       3.639  -2.499  -1.849  0.00  0.00    +0.091 C 
ATOM      3  C   UNL     1       4.296  -1.637  -0.793  0.00  0.00    +0.124 C 
ATOM      4  N   UNL     1       3.665  -1.778   0.331  0.00  0.00    -0.135 N 
ATOM      5  C   UNL     1       2.551  -2.713   0.174  0.00  0.00    +0.197 C 
ATOM      6  N   UNL     1       2.799  -3.453  -1.081  0.00  0.00    -0.145 NA
ATOM      7  C   UNL     1       2.495  -3.686   1.351  0.00  0.00    +0.056 C 
ATOM      8  C   UNL     1       1.258  -4.577   1.216  0.00  0.00    +0.005 C 
ATOM      9  C   UNL     1      -0.007  -3.721   1.283  0.00  0.00    +0.006 C 
ATOM     10  C   UNL     1      -0.041  -2.763   0.093  0.00  0.00    +0.056 C 
ATOM     11  C   UNL     1       1.245  -1.965   0.076  0.00  0.00    +0.082 C 
ATOM     12  N   UNL     1       1.225  -0.688  -0.013  0.00  0.00    -0.184 NA
ATOM     13  O   UNL     1       4.005  -1.121   1.538  0.00  0.00    -0.166 OA
ATOM     14  C   UNL     1       2.768  -1.645  -2.772  0.00  0.00    +0.037 C 
ENDROOT
BRANCH  12  15
ATOM     15  N   UNL     1       0.002  -0.004   0.002  0.00  0.00    -0.191 N 
ATOM     16  C   UNL     1      -0.016   1.343   0.010  0.00  0.00    +0.317 C 
ATOM     17  O   UNL     1      -1.077   1.937   0.018  0.00  0.00    -0.251 OA
ATOM     18  N   UNL     1       1.142   2.033   0.003  0.00  0.00    -0.312 N 
ATOM     19  H   UNL     1      -0.831  -0.500   0.006  0.00  0.00    +0.179 HD
ATOM     20  H   UNL     1       1.988   1.560  -0.007  0.00  0.00    +0.147 HD
ATOM     21  H   UNL     1       1.129   3.003   0.009  0.00  0.00    +0.147 HD
ENDBRANCH  12  15
BRANCH   3  22
ATOM     22  C   UNL     1       5.466  -0.778  -1.008  0.00  0.00    +0.152 A 
ATOM     23  C   UNL     1       6.069   0.004  -0.066  0.00  0.00    +0.051 A 
ATOM     24  C   UNL     1       7.142   0.651  -0.705  0.00  0.00    +0.042 A 
ATOM     25  C   UNL     1       7.144   0.240  -1.990  0.00  0.00    +0.196 A 
ATOM     26  O   UNL     1       6.135  -0.626  -2.168  0.00  0.00    -0.462 OA
ENDBRANCH   3  22
BRANCH   6  27
ATOM     27  O   UNL     1       1.545  -3.730  -1.782  0.00  0.00    -0.309 OA
ATOM     28  H   UNL     1       1.657  -4.214  -2.612  0.00  0.00    +0.237 HD
ENDBRANCH   6  27
TORSDOF 3
