REMARK  Name = ZINC14387756
REMARK  5 active torsions:
REMARK  status: ('A' for Active; 'I' for Inactive)
REMARK    1  A    between atoms: C_1  and  C_2
REMARK    2  A    between atoms: C_7  and  N_8
REMARK    3  A    between atoms: C_9  and  C_11
REMARK    4  A    between atoms: C_11  and  N_12
REMARK    5  A    between atoms: C_13  and  C_15
REMARK                            x       y       z     vdW  Elec       q    Type
REMARK                         _______ _______ _______ _____ _____    ______ ____
ROOT
ATOM      1  N   UNL     1      -4.753   0.668  -0.060  0.00  0.00    -0.302 N 
ATOM      2  C   UNL     1      -3.780  -0.265  -0.053  0.00  0.00    +0.251 C 
ATOM      3  O   UNL     1      -4.070  -1.447  -0.076  0.00  0.00    -0.270 OA
ATOM      4  H   UNL     1      -4.522   1.610  -0.041  0.00  0.00    +0.150 HD
ENDROOT
BRANCH   2   5
ATOM      5  C   UNL     1      -2.373   0.144  -0.017  0.00  0.00    +0.074 A 
ATOM      6  C   UNL     1      -1.235  -0.642  -0.004  0.00  0.00    +0.024 A 
ATOM      7  C   UNL     1       0.001  -0.006   0.038  0.00  0.00    -0.036 A 
ATOM      8  C   UNL     1      -0.017   1.346   0.036  0.00  0.00    -0.006 A 
ATOM      9  S   UNL     1      -1.678   1.789   0.023  0.00  0.00    -0.088 S 
ATOM     10  C   UNL     1       1.189   2.260   0.026  0.00  0.00    +0.043 C 
ATOM     11  C   UNL     1       1.896   2.093   1.382  0.00  0.00    +0.005 C 
ATOM     12  C   UNL     1       2.729   0.833   1.389  0.00  0.00    +0.001 C 
ATOM     13  C   UNL     1       1.975  -0.470   1.446  0.00  0.00    +0.005 C 
ATOM     14  C   UNL     1       1.308  -0.804   0.110  0.00  0.00    +0.036 C 
ENDBRANCH   2   5
BRANCH   1  15
ATOM     15  C   UNL     1      -6.159   0.259  -0.096  0.00  0.00    +0.200 C 
BRANCH  15  17
ATOM     16  N   UNL     1      -8.379   1.349  -0.127  0.00  0.00    -0.284 N 
ATOM     17  C   UNL     1      -7.039   1.482  -0.096  0.00  0.00    +0.234 C 
ATOM     18  O   UNL     1      -6.540   2.588  -0.069  0.00  0.00    -0.274 OA
ATOM     19  H   UNL     1      -8.777   0.470  -0.229  0.00  0.00    +0.155 HD
BRANCH  16  26
ATOM     20  C   UNL     1     -10.995   1.233  -1.242  0.00  0.00    +0.046 C 
ATOM     21  C   UNL     1     -10.481   2.465  -0.541  0.00  0.00    -0.028 A 
ATOM     22  C   UNL     1     -11.289   3.579  -0.420  0.00  0.00    +0.020 A 
ATOM     23  C   UNL     1     -10.816   4.712   0.217  0.00  0.00    +0.018 A 
ATOM     24  C   UNL     1      -9.535   4.730   0.742  0.00  0.00    +0.017 A 
ATOM     25  C   UNL     1      -8.726   3.617   0.629  0.00  0.00    +0.024 A 
ATOM     26  C   UNL     1      -9.198   2.478  -0.011  0.00  0.00    +0.036 A 
ATOM     27 BR   UNL     1     -11.922   6.238   0.373  0.00  0.00    -0.050 Br
ENDBRANCH  16  26
ENDBRANCH  15  17
ENDBRANCH   1  15
TORSDOF 4
