REMARK  Name = ZINC04236620
REMARK  14 active torsions:
REMARK  status: ('A' for Active; 'I' for Inactive)
REMARK    1  A    between atoms: C_1  and  C_2
REMARK    2  A    between atoms: C_2  and  C_3
REMARK    3  A    between atoms: C_2  and  N_4
REMARK    4  A    between atoms: C_5  and  O_7
REMARK    5  A    between atoms: O_7  and  C_8
REMARK    6  A    between atoms: C_12  and  C_37
REMARK    7  A    between atoms: C_15  and  C_16
REMARK    8  A    between atoms: C_15  and  C_17
REMARK    9  A    between atoms: C_17  and  O_18
REMARK   10  A    between atoms: C_21  and  O_36
REMARK   11  A    between atoms: C_23  and  C_25
REMARK   12  A    between atoms: C_25  and  C_26
REMARK   13  A    between atoms: N_28  and  C_29
REMARK   14  A    between atoms: C_29  and  C_30
REMARK                            x       y       z     vdW  Elec       q    Type
REMARK                         _______ _______ _______ _____ _____    ______ ____
ROOT
ATOM      1  C   UNL     1       1.274  -3.328  -3.545  0.00  0.00    +0.186 C 
ATOM      2  C   UNL     1       1.930  -4.509  -2.827  0.00  0.00    +0.046 C 
ATOM      3  C   UNL     1       1.286  -5.814  -3.298  0.00  0.00    +0.011 C 
ATOM      4  C   UNL     1       1.480  -5.963  -4.808  0.00  0.00    -0.023 C 
ATOM      5  C   UNL     1       0.824  -4.782  -5.526  0.00  0.00    +0.007 C 
ATOM      6  C   UNL     1       1.468  -3.477  -5.055  0.00  0.00    +0.031 C 
ATOM      7  C   UNL     1       0.811  -2.296  -5.773  0.00  0.00    +0.017 C 
ATOM      8  C   UNL     1      -0.672  -4.758  -5.204  0.00  0.00    +0.007 C 
ATOM      9  C   UNL     1      -1.317  -6.063  -5.675  0.00  0.00    +0.032 C 
ATOM     10  C   UNL     1      -0.660  -7.244  -4.957  0.00  0.00    +0.119 C 
ATOM     11  C   UNL     1       0.836  -7.269  -5.279  0.00  0.00    +0.032 C 
ATOM     12  C   UNL     1       2.976  -5.988  -5.130  0.00  0.00    +0.012 C 
ENDROOT
BRANCH  10  13
ATOM     13  O   UNL     1      -1.262  -8.463  -5.397  0.00  0.00    -0.391 OA
ATOM     14  H   UNL     1      -2.212  -8.517  -5.225  0.00  0.00    +0.210 HD
ENDBRANCH  10  13
BRANCH   1  15
ATOM     15  O   UNL     1       1.885  -2.089  -3.098  0.00  0.00    -0.446 OA
BRANCH  15  17
ATOM     16  N   UNL     1       1.851  -0.331  -1.565  0.00  0.00    -0.279 N 
ATOM     17  C   UNL     1       1.331  -1.484  -2.031  0.00  0.00    +0.401 C 
ATOM     18  O   UNL     1       0.363  -1.978  -1.487  0.00  0.00    -0.226 OA
ATOM     19  H   UNL     1       2.623   0.063  -1.999  0.00  0.00    +0.152 HD
BRANCH  16  21
ATOM     20  C   UNL     1       1.562   1.824  -0.445  0.00  0.00    +0.027 C 
ATOM     21  C   UNL     1       1.248   0.327  -0.403  0.00  0.00    +0.070 C 
ATOM     22  C   UNL     1       1.820  -0.279   0.880  0.00  0.00    +0.027 C 
ENDBRANCH  16  21
ENDBRANCH  15  17
ENDBRANCH   1  15
BRANCH   6  23
ATOM     23  C   UNL     1       2.964  -3.502  -5.377  0.00  0.00    +0.166 C 
BRANCH  23  24
ATOM     24  O   UNL     1       3.526  -2.212  -5.128  0.00  0.00    -0.394 OA
ATOM     25  H   UNL     1       4.473  -2.154  -5.311  0.00  0.00    +0.209 HD
ENDBRANCH  23  24
ENDBRANCH   6  23
BRANCH  11  26
ATOM     26  C   UNL     1       1.030  -7.418  -6.790  0.00  0.00    +0.102 C 
BRANCH  26  27
ATOM     27  C   UNL     1       0.626  -8.806  -7.213  0.00  0.00    +0.214 C 
ATOM     28  O   UNL     1       0.390  -9.651  -6.376  0.00  0.00    -0.276 OA
ATOM     29  N   UNL     1       0.528  -9.110  -8.523  0.00  0.00    -0.311 N 
ATOM     30  H   UNL     1       0.718  -8.434  -9.193  0.00  0.00    +0.149 HD
BRANCH  29  31
ATOM     31  C   UNL     1       0.136 -10.460  -8.935  0.00  0.00    +0.139 C 
BRANCH  31  32
ATOM     32  C   UNL     1       0.102 -10.536 -10.440  0.00  0.00    -0.030 A 
ATOM     33  C   UNL     1      -1.065 -10.244 -11.120  0.00  0.00    +0.005 A 
ATOM     34  C   UNL     1      -1.095 -10.309 -12.501  0.00  0.00    +0.000 A 
ATOM     35  C   UNL     1       0.040 -10.676 -13.200  0.00  0.00    +0.000 A 
ATOM     36  C   UNL     1       1.206 -10.972 -12.519  0.00  0.00    +0.000 A 
ATOM     37  C   UNL     1       1.237 -10.902 -11.139  0.00  0.00    +0.005 A 
ENDBRANCH  31  32
ENDBRANCH  29  31
ENDBRANCH  26  27
ENDBRANCH  11  26
TORSDOF 10
