REMARK  Name = ZINC37053449
REMARK  7 active torsions:
REMARK  status: ('A' for Active; 'I' for Inactive)
REMARK    1  A    between atoms: C_1  and  C_2
REMARK    2  A    between atoms: C_2  and  C_3
REMARK    3  A    between atoms: C_6  and  N_22
REMARK    4  A    between atoms: C_8  and  S_9
REMARK    5  A    between atoms: S_9  and  N_12
REMARK    6  A    between atoms: C_14  and  C_21
REMARK    7  A    between atoms: C_17  and  C_20
REMARK                            x       y       z     vdW  Elec       q    Type
REMARK                         _______ _______ _______ _____ _____    ______ ____
ROOT
ATOM      1  C   UNL     1      -3.549  -0.558  -0.913  0.00  0.00    -0.021 A 
ATOM      2  C   UNL     1      -4.231  -0.965   0.219  0.00  0.00    +0.007 A 
ATOM      3  C   UNL     1      -3.537  -1.475   1.299  0.00  0.00    +0.023 A 
ATOM      4  C   UNL     1      -2.153  -1.579   1.247  0.00  0.00    +0.026 A 
ATOM      5  C   UNL     1      -1.471  -1.169   0.108  0.00  0.00    +0.051 A 
ATOM      6  C   UNL     1      -2.171  -0.665  -0.971  0.00  0.00    +0.110 A 
ENDROOT
BRANCH   6   7
ATOM      7  S   UNL     1      -1.308  -0.152  -2.418  0.00  0.00    +0.061 S 
ATOM      8  O   UNL     1      -0.068  -0.845  -2.419  0.00  0.00    -0.153 OA
ATOM      9  O   UNL     1      -2.231  -0.242  -3.495  0.00  0.00    -0.153 OA
BRANCH   7  10
ATOM     10  N   UNL     1      -0.953   1.454  -2.233  0.00  0.00    -0.176 NA
ATOM     11  C   UNL     1      -1.825   2.486  -2.812  0.00  0.00    +0.112 C 
ATOM     12  C   UNL     1      -2.226   3.469  -1.708  0.00  0.00    +0.002 C 
ATOM     13  C   UNL     1      -0.965   4.017  -1.036  0.00  0.00    +0.009 C 
ATOM     14  C   UNL     1      -0.184   2.866  -0.397  0.00  0.00    +0.002 C 
ATOM     15  C   UNL     1       0.237   1.876  -1.481  0.00  0.00    +0.112 C 
ATOM     16  C   UNL     1       1.058   3.419   0.304  0.00  0.00    +0.009 C 
ATOM     17  C   UNL     1      -3.087   2.747  -0.669  0.00  0.00    +0.009 C 
ENDBRANCH   7  10
ENDBRANCH   6   7
BRANCH   4  18
ATOM     18  N   UNL     1      -1.448  -2.093   2.337  0.00  0.00    -0.358 N 
ATOM     19  H   UNL     1      -1.925  -2.379   3.132  0.00  0.00    +0.142 HD
ATOM     20  H   UNL     1      -0.481  -2.165   2.300  0.00  0.00    +0.142 HD
ENDBRANCH   4  18
BRANCH   1  22
ATOM     21  C   UNL     1      -4.682  -1.142  -3.040  0.00  0.00    +0.009 C 
ATOM     22  C   UNL     1      -4.309  -0.003  -2.090  0.00  0.00    +0.034 C 
ENDBRANCH   1  22
TORSDOF 4
