REMARK  Name = ZINC63985935
REMARK  6 active torsions:
REMARK  status: ('A' for Active; 'I' for Inactive)
REMARK    1  A    between atoms: C_1  and  N_2
REMARK    2  A    between atoms: N_5  and  C_25
REMARK    3  A    between atoms: N_11  and  C_14
REMARK    4  A    between atoms: C_14  and  C_15
REMARK    5  A    between atoms: C_25  and  C_26
REMARK    6  A    between atoms: C_26  and  C_27
REMARK                            x       y       z     vdW  Elec       q    Type
REMARK                         _______ _______ _______ _____ _____    ______ ____
ROOT
ATOM      1  C   UNL     1      -0.018   1.461   0.010  0.00  0.00    +0.134 C 
ATOM      2  N   UNL     1       0.002  -0.004   0.002  0.00  0.00    -0.274 N 
ATOM      3  C   UNL     1      -0.085  -0.806  -1.076  0.00  0.00    +0.312 C 
ATOM      4  O   UNL     1      -0.195  -0.398  -2.216  0.00  0.00    -0.252 OA
ATOM      5  N   UNL     1      -0.037  -2.104  -0.752  0.00  0.00    -0.224 N 
ATOM      6  C   UNL     1       0.088  -2.280   0.580  0.00  0.00    +0.247 C 
ATOM      7  O   UNL     1       0.158  -3.332   1.178  0.00  0.00    -0.273 OA
ATOM      8  C   UNL     1       0.128  -0.888   1.167  0.00  0.00    +0.112 C 
ATOM      9  C   UNL     1       1.452  -0.646   1.884  0.00  0.00    +0.017 C 
ATOM     10  C   UNL     1       1.442   0.751   2.509  0.00  0.00    -0.076 C 
ATOM     11  N   UNL     1       0.324   0.857   3.455  0.00  0.00    +0.381 N 
ATOM     12  C   UNL     1      -0.951   0.717   2.741  0.00  0.00    -0.076 C 
ATOM     13  C   UNL     1      -1.042  -0.682   2.125  0.00  0.00    +0.017 C 
ATOM     14  H   UNL     1       0.402   0.128   4.149  0.00  0.00    -0.082 HD
ENDROOT
BRANCH  11  15
ATOM     15  C   UNL     1       0.369   2.167   4.120  0.00  0.00    -0.050 C 
BRANCH  15  16
ATOM     16  C   UNL     1      -0.718   2.231   5.194  0.00  0.00    +0.086 C 
ATOM     17  C   UNL     1      -0.571   3.497   6.009  0.00  0.00    +0.005 C 
ATOM     18  C   UNL     1      -0.352   3.098   7.283  0.00  0.00    -0.004 A 
ATOM     19  C   UNL     1      -0.132   3.837   8.532  0.00  0.00    +0.010 A 
ATOM     20  C   UNL     1       0.063   3.146   9.678  0.00  0.00    +0.001 A 
ATOM     21  C   UNL     1       0.060   1.744   9.703  0.00  0.00    +0.002 A 
ATOM     22  C   UNL     1      -0.136   0.996   8.596  0.00  0.00    +0.026 A 
ATOM     23  C   UNL     1      -0.351   1.619   7.336  0.00  0.00    +0.043 A 
ATOM     24  N   UNL     1      -0.561   1.121   6.140  0.00  0.00    -0.380 N 
ATOM     25  H   UNL     1      -0.605   0.177   5.918  0.00  0.00    +0.160 HD
ENDBRANCH  15  16
ENDBRANCH  11  15
BRANCH   5  26
ATOM     26  C   UNL     1      -0.110  -3.199  -1.724  0.00  0.00    +0.122 C 
BRANCH  26  27
ATOM     27  C   UNL     1       1.301  -3.559  -2.193  0.00  0.00    +0.054 C 
BRANCH  27  28
ATOM     28  C   UNL     1       1.225  -4.685  -3.192  0.00  0.00    -0.046 A 
ATOM     29  C   UNL     1       1.278  -5.997  -2.760  0.00  0.00    +0.004 A 
ATOM     30  C   UNL     1       1.208  -7.030  -3.676  0.00  0.00    +0.000 A 
ATOM     31  C   UNL     1       1.086  -6.750  -5.025  0.00  0.00    +0.000 A 
ATOM     32  C   UNL     1       1.033  -5.438  -5.457  0.00  0.00    +0.000 A 
ATOM     33  C   UNL     1       1.098  -4.406  -4.540  0.00  0.00    +0.004 A 
ENDBRANCH  27  28
ENDBRANCH  26  27
ENDBRANCH   5  26
TORSDOF 5
