REMARK  Name = ZINC45434110
REMARK  5 active torsions:
REMARK  status: ('A' for Active; 'I' for Inactive)
REMARK    1  A    between atoms: C_4  and  C_7
REMARK    2  A    between atoms: C_7  and  C_8
REMARK    3  A    between atoms: C_7  and  C_18
REMARK    4  A    between atoms: C_7  and  N_21
REMARK    5  A    between atoms: C_8  and  N_9
REMARK                            x       y       z     vdW  Elec       q    Type
REMARK                         _______ _______ _______ _____ _____    ______ ____
ROOT
ATOM      1  C   UNL     1       3.711  -0.707  -0.038  0.00  0.00    +0.137 C 
ENDROOT
BRANCH   1   5
ATOM      2  C   UNL     1      -0.017   1.378   0.010  0.00  0.00    +0.000 A 
ATOM      3  C   UNL     1       1.171   2.086   0.002  0.00  0.00    +0.000 A 
ATOM      4  C   UNL     1       2.377   1.411  -0.013  0.00  0.00    +0.006 A 
ATOM      5  C   UNL     1       2.396   0.029  -0.020  0.00  0.00    -0.017 A 
ATOM      6  C   UNL     1       1.208  -0.679  -0.012  0.00  0.00    +0.006 A 
ATOM      7  C   UNL     1       0.002  -0.004   0.002  0.00  0.00    +0.000 A 
ENDBRANCH   1   5
BRANCH   1   8
ATOM      8  C   UNL     1       4.135  -0.945  -1.464  0.00  0.00    +0.237 C 
ATOM      9  O   UNL     1       3.870  -1.996  -2.008  0.00  0.00    -0.274 OA
ATOM     10  N   UNL     1       4.808   0.010  -2.136  0.00  0.00    -0.327 N 
ATOM     11  H   UNL     1       5.019   0.851  -1.701  0.00  0.00    +0.145 HD
ATOM     12  H   UNL     1       5.080  -0.143  -3.054  0.00  0.00    +0.145 HD
ENDBRANCH   1   8
BRANCH   1  13
ATOM     13  N   UNL     1       4.731   0.097   0.648  0.00  0.00    -0.312 NA
ATOM     14  H   UNL     1       4.470   0.271   1.607  0.00  0.00    +0.120 HD
ATOM     15  H   UNL     1       5.637  -0.345   0.594  0.00  0.00    +0.120 HD
ENDBRANCH   1  13
BRANCH   1  16
ATOM     16  C   UNL     1       3.554  -2.050   0.679  0.00  0.00    +0.159 C 
BRANCH  16  17
ATOM     17  N   UNL     1       4.858  -2.712   0.767  0.00  0.00    -0.327 N 
ATOM     18  C   UNL     1       5.354  -3.635  -0.101  0.00  0.00    +0.200 A 
ATOM     19  N   UNL     1       6.539  -4.013   0.278  0.00  0.00    -0.236 NA
ATOM     20  C   UNL     1       6.886  -3.358   1.416  0.00  0.00    +0.089 A 
ATOM     21  C   UNL     1       5.814  -2.510   1.742  0.00  0.00    +0.069 A 
ATOM     22  C   UNL     1       5.889  -1.704   2.870  0.00  0.00    +0.028 A 
ATOM     23  C   UNL     1       7.019  -1.739   3.660  0.00  0.00    +0.002 A 
ATOM     24  C   UNL     1       8.078  -2.574   3.336  0.00  0.00    +0.002 A 
ATOM     25  C   UNL     1       8.018  -3.380   2.234  0.00  0.00    +0.030 A 
ENDBRANCH  16  17
ENDBRANCH   1  16
TORSDOF 5
