REMARK  Name = ZINC27266801
REMARK  10 active torsions:
REMARK  status: ('A' for Active; 'I' for Inactive)
REMARK    1  A    between atoms: C_1  and  C_2
REMARK    2  A    between atoms: C_4  and  C_13
REMARK    3  A    between atoms: C_6  and  C_12
REMARK    4  A    between atoms: N_8  and  C_11
REMARK    5  A    between atoms: N_15  and  N_16
REMARK    6  A    between atoms: N_16  and  C_17
REMARK    7  A    between atoms: C_17  and  N_19
REMARK    8  A    between atoms: N_19  and  C_20
REMARK    9  A    between atoms: C_25  and  C_30
REMARK   10  A    between atoms: C_27  and  C_29
REMARK                            x       y       z     vdW  Elec       q    Type
REMARK                         _______ _______ _______ _____ _____    ______ ____
ROOT
ATOM      1  C   UNL     1      -1.243   2.190  -0.589  0.00  0.00    +0.261 C 
ATOM      2  O   UNL     1      -1.260   3.380  -0.343  0.00  0.00    -0.269 OA
ATOM      3  N   UNL     1      -2.379   1.560  -0.946  0.00  0.00    -0.231 N 
ATOM      4  H   UNL     1      -2.364   0.482  -1.169  0.00  0.00    +0.173 HD
ENDROOT
BRANCH   1   8
ATOM      5  C   UNL     1       1.396  -1.995  -1.284  0.00  0.00    +0.065 C 
ATOM      6  C   UNL     1       1.314  -0.564  -0.822  0.00  0.00    +0.041 A 
ATOM      7  C   UNL     1       0.105   0.110  -0.921  0.00  0.00    +0.037 A 
ATOM      8  C   UNL     1       0.025   1.434  -0.495  0.00  0.00    +0.052 A 
ATOM      9  C   UNL     1       1.194   2.032   0.024  0.00  0.00    +0.054 A 
ATOM     10  C   UNL     1       1.493   3.311   0.539  0.00  0.00    +0.070 A 
ATOM     11  N   UNL     1       2.748   3.336   0.888  0.00  0.00    -0.174 NA
ATOM     12  N   UNL     1       3.336   2.092   0.626  0.00  0.00    -0.249 N 
ATOM     13  C   UNL     1       2.379   1.272   0.088  0.00  0.00    +0.159 A 
ATOM     14  N   UNL     1       2.389   0.015  -0.335  0.00  0.00    -0.233 NA
ATOM     15  C   UNL     1       4.732   1.731   0.883  0.00  0.00    +0.174 C 
ATOM     16  C   UNL     1       0.524   4.458   0.664  0.00  0.00    +0.068 C 
ENDBRANCH   1   8
BRANCH   3  17
ATOM     17  N   UNL     1      -3.579   2.276  -1.035  0.00  0.00    -0.246 N 
ATOM     18  H   UNL     1      -3.595   3.353  -0.813  0.00  0.00    +0.172 HD
BRANCH  17  19
ATOM     19  C   UNL     1      -4.716   1.645  -1.393  0.00  0.00    +0.147 C 
ATOM     20  S   UNL     1      -6.183   2.521  -1.501  0.00  0.00    -0.017 S 
BRANCH  19  21
ATOM     21  N   UNL     1      -4.697   0.326  -1.665  0.00  0.00    -0.322 N 
ATOM     22  H   UNL     1      -3.754  -0.237  -1.595  0.00  0.00    +0.148 HD
BRANCH  21  23
ATOM     23  C   UNL     1      -5.932  -0.360  -2.054  0.00  0.00    +0.075 C 
ATOM     24  C   UNL     1      -6.151  -0.202  -3.560  0.00  0.00    +0.022 C 
ATOM     25  C   UNL     1      -7.440  -0.917  -3.966  0.00  0.00    +0.002 C 
ATOM     26  C   UNL     1      -7.329  -2.404  -3.620  0.00  0.00    +0.003 C 
ATOM     27  C   UNL     1      -7.111  -2.562  -2.114  0.00  0.00    -0.009 C 
ATOM     28  C   UNL     1      -5.821  -1.846  -1.708  0.00  0.00    +0.009 C 
ATOM     29  C   UNL     1      -4.639  -2.458  -2.462  0.00  0.00    +0.009 C 
ATOM     30  C   UNL     1      -7.000  -4.048  -1.768  0.00  0.00    +0.008 C 
ENDBRANCH  21  23
ENDBRANCH  19  21
ENDBRANCH  17  19
ENDBRANCH   3  17
TORSDOF 5
