REMARK  Name = ZINC51710402
REMARK  7 active torsions:
REMARK  status: ('A' for Active; 'I' for Inactive)
REMARK    1  A    between atoms: C_1  and  C_2
REMARK    2  A    between atoms: C_2  and  C_4
REMARK    3  A    between atoms: C_2  and  N_18
REMARK    4  A    between atoms: C_8  and  O_10
REMARK    5  A    between atoms: O_10  and  C_11
REMARK    6  A    between atoms: C_11  and  C_12
REMARK    7  A    between atoms: C_25  and  C_28
REMARK                            x       y       z     vdW  Elec       q    Type
REMARK                         _______ _______ _______ _____ _____    ______ ____
ROOT
ATOM      1  C   UNL     1      -0.023   1.522   0.009  0.00  0.00    +0.033 C 
ATOM      2  C   UNL     1       0.002  -0.007   0.004  0.00  0.00    +0.102 C 
ENDROOT
BRANCH   2   3
ATOM      3  N   UNL     1       0.688  -0.481  -1.202  0.00  0.00    -0.293 N 
ATOM      4  C   UNL     1       2.031  -0.587  -1.215  0.00  0.00    +0.303 C 
ATOM      5  O   UNL     1       2.681  -0.206  -0.261  0.00  0.00    -0.253 OA
ATOM      6  N   UNL     1       2.654  -1.116  -2.286  0.00  0.00    -0.280 N 
ATOM      7  C   UNL     1       4.107  -1.353  -2.277  0.00  0.00    +0.137 C 
ATOM      8  C   UNL     1       4.706  -0.734  -3.545  0.00  0.00    +0.180 C 
ATOM      9  O   UNL     1       3.991  -1.214  -4.686  0.00  0.00    -0.364 OA
ATOM     10  C   UNL     1       2.609  -0.849  -4.708  0.00  0.00    +0.221 C 
ATOM     11  C   UNL     1       1.902  -1.479  -3.498  0.00  0.00    +0.150 C 
ATOM     12  H   UNL     1       0.174  -0.717  -1.990  0.00  0.00    +0.151 HD
BRANCH  10  13
ATOM     13  C   UNL     1       1.975  -1.352  -5.979  0.00  0.00    +0.241 C 
ATOM     14  O   UNL     1       2.616  -2.041  -6.745  0.00  0.00    -0.273 OA
ATOM     15  N   UNL     1       0.697  -1.037  -6.265  0.00  0.00    -0.327 N 
ATOM     16  H   UNL     1       0.184  -0.486  -5.653  0.00  0.00    +0.145 HD
ATOM     17  H   UNL     1       0.289  -1.361  -7.083  0.00  0.00    +0.145 HD
ENDBRANCH  10  13
ENDBRANCH   2   3
BRANCH   2  18
ATOM     18  C   UNL     1      -1.410  -0.533   0.018  0.00  0.00    -0.024 A 
ATOM     19  C   UNL     1      -2.141  -0.581  -1.155  0.00  0.00    +0.006 A 
ATOM     20  C   UNL     1      -3.437  -1.063  -1.145  0.00  0.00    +0.004 A 
ATOM     21  C   UNL     1      -4.005  -1.498   0.037  0.00  0.00    +0.045 A 
ATOM     22  C   UNL     1      -3.273  -1.451   1.214  0.00  0.00    +0.121 A 
ATOM     23  C   UNL     1      -1.971  -0.972   1.201  0.00  0.00    +0.051 A 
BRANCH  22  24
ATOM     24  O   UNL     1      -3.830  -1.878   2.378  0.00  0.00    -0.486 OA
BRANCH  24  25
ATOM     25  C   UNL     1      -5.173  -2.363   2.316  0.00  0.00    +0.284 C 
BRANCH  25  26
ATOM     26  C   UNL     1      -5.617  -2.789   3.692  0.00  0.00    +0.078 A 
ATOM     27  C   UNL     1      -4.748  -2.664   4.760  0.00  0.00    +0.027 A 
ATOM     28  C   UNL     1      -5.167  -3.059   6.021  0.00  0.00    +0.003 A 
ATOM     29  C   UNL     1      -6.450  -3.567   6.161  0.00  0.00    +0.020 A 
ATOM     30  C   UNL     1      -7.262  -3.662   5.048  0.00  0.00    +0.111 A 
ATOM     31  N   UNL     1      -6.832  -3.271   3.864  0.00  0.00    -0.256 NA
ENDBRANCH  25  26
ENDBRANCH  24  25
ENDBRANCH  22  24
ENDBRANCH   2  18
TORSDOF 6
