REMARK  Name = ZINC08746000
REMARK  5 active torsions:
REMARK  status: ('A' for Active; 'I' for Inactive)
REMARK    1  A    between atoms: C_4  and  C_7
REMARK    2  A    between atoms: C_8  and  C_9
REMARK    3  A    between atoms: C_9  and  N_62
REMARK    4  A    between atoms: C_15  and  C_17
REMARK    5  A    between atoms: C_22  and  N_64
REMARK                            x       y       z     vdW  Elec       q    Type
REMARK                         _______ _______ _______ _____ _____    ______ ____
ROOT
ATOM      1  C   UNL     1      -1.769   3.379   8.049  0.00  0.00    -0.059 C 
ATOM      2  C   UNL     1      -2.818   2.532   7.321  0.00  0.00    +0.089 C 
ATOM      3  N   UNL     1      -2.179   1.894   6.160  0.00  0.00    -0.305 N 
ATOM      4  C   UNL     1      -0.930   1.148   6.375  0.00  0.00    +0.089 C 
ATOM      5  C   UNL     1       0.048   2.055   7.139  0.00  0.00    -0.059 C 
ATOM      6  C   UNL     1      -2.727   1.986   4.932  0.00  0.00    +0.218 C 
ATOM      7  O   UNL     1      -2.236   1.381   4.002  0.00  0.00    -0.275 OA
ATOM      8  N   UNL     1      -0.611   2.521   8.379  0.00  0.00    +0.384 N 
ATOM      9  H   UNL     1      -0.941   1.705   8.908  0.00  0.00    -0.081 HD
ENDROOT
BRANCH   6  10
ATOM     10  C   UNL     1      -3.948   2.841   4.714  0.00  0.00    +0.072 C 
ATOM     11  C   UNL     1      -4.008   3.284   3.249  0.00  0.00    -0.006 C 
ATOM     12  C   UNL     1      -5.281   4.101   3.020  0.00  0.00    -0.078 C 
ATOM     13  C   UNL     1      -6.444   2.886   4.765  0.00  0.00    -0.078 C 
ATOM     14  C   UNL     1      -5.205   2.033   5.046  0.00  0.00    -0.006 C 
ATOM     15  N   UNL     1      -6.455   3.259   3.334  0.00  0.00    +0.383 N 
ATOM     16  H   UNL     1      -6.413   2.404   2.767  0.00  0.00    -0.081 HD
BRANCH  15  17
ATOM     17  C   UNL     1      -7.699   3.987   3.012  0.00  0.00    -0.046 C 
ATOM     18  C   UNL     1      -7.723   4.282   1.503  0.00  0.00    +0.009 C 
ATOM     19  C   UNL     1      -9.162   4.733   1.120  0.00  0.00    +0.164 C 
ATOM     20  S   UNL     1     -10.163   3.561   2.129  0.00  0.00    -0.033 S 
ATOM     21  O   UNL     1     -10.465   2.416   1.344  0.00  0.00    -0.174 OA
ATOM     22  O   UNL     1     -11.217   4.276   2.759  0.00  0.00    -0.174 OA
ATOM     23  C   UNL     1      -8.911   3.103   3.396  0.00  0.00    +0.151 C 
ENDBRANCH  15  17
ENDBRANCH   6  10
BRANCH   8  24
ATOM     24  C   UNL     1       0.353   3.272   9.210  0.00  0.00    -0.051 C 
BRANCH  24  26
ATOM     25  C   UNL     1       2.690   2.579   9.502  0.00  0.00    +0.002 C 
ATOM     26  C   UNL     1       1.407   2.319   9.712  0.00  0.00    -0.045 C 
BRANCH  25  30
ATOM     27  C   UNL     1       5.660  -0.107  10.916  0.00  0.00    +0.000 A 
ATOM     28  C   UNL     1       6.035   1.039  10.238  0.00  0.00    +0.001 A 
ATOM     29  C   UNL     1       5.075   1.915   9.776  0.00  0.00    +0.008 A 
ATOM     30  C   UNL     1       3.724   1.644   9.995  0.00  0.00    -0.025 A 
ATOM     31  C   UNL     1       3.353   0.489  10.684  0.00  0.00    +0.008 A 
ATOM     32  C   UNL     1       4.322  -0.382  11.136  0.00  0.00    +0.001 A 
ENDBRANCH  25  30
ENDBRANCH  24  26
ENDBRANCH   8  24
TORSDOF 5
