REMARK  Name = ZINC65336575
REMARK  2 active torsions:
REMARK  status: ('A' for Active; 'I' for Inactive)
REMARK    1  A    between atoms: C_1  and  C_2
REMARK    2  A    between atoms: C_4  and  N_8
REMARK                            x       y       z     vdW  Elec       q    Type
REMARK                         _______ _______ _______ _____ _____    ______ ____
ROOT
ATOM      1  N   UNL     1      -1.583  -3.025  -0.898  0.00  0.00    -0.277 N 
ATOM      2  C   UNL     1      -1.003  -4.210  -1.284  0.00  0.00    +0.183 C 
ATOM      3  N   UNL     1       0.033  -4.669  -0.638  0.00  0.00    -0.272 NA
ATOM      4  N   UNL     1      -1.515  -4.912  -2.352  0.00  0.00    -0.273 N 
ATOM      5  C   UNL     1      -1.582  -6.373  -2.442  0.00  0.00    +0.118 C 
ATOM      6  C   UNL     1      -2.227  -6.664  -3.807  0.00  0.00    +0.056 C 
ATOM      7  C   UNL     1      -2.484  -5.298  -4.404  0.00  0.00    -0.024 A 
ATOM      8  C   UNL     1      -2.052  -4.335  -3.506  0.00  0.00    +0.039 A 
ATOM      9  C   UNL     1      -2.191  -2.987  -3.839  0.00  0.00    +0.024 A 
ATOM     10  C   UNL     1      -2.754  -2.623  -5.044  0.00  0.00    +0.002 A 
ATOM     11  C   UNL     1      -3.185  -3.591  -5.932  0.00  0.00    +0.000 A 
ATOM     12  C   UNL     1      -3.044  -4.929  -5.612  0.00  0.00    +0.005 A 
ATOM     13  H   UNL     1      -2.399  -2.722  -1.328  0.00  0.00    +0.152 HD
ATOM     14  H   UNL     1       0.442  -5.505  -0.910  0.00  0.00    +0.189 HD
ENDROOT
BRANCH   1  18
ATOM     15  C   UNL     1      -2.041   1.266   0.769  0.00  0.00    +0.067 C 
ATOM     16  C   UNL     1      -1.400  -0.054   0.425  0.00  0.00    +0.055 C 
ATOM     17  N   UNL     1      -1.923  -1.213   0.646  0.00  0.00    -0.243 NA
ATOM     18  C   UNL     1      -0.971  -2.220   0.161  0.00  0.00    +0.313 C 
ATOM     19  N   UNL     1       0.175  -1.470  -0.370  0.00  0.00    -0.246 NA
ATOM     20  C   UNL     1      -0.086  -0.215  -0.218  0.00  0.00    +0.131 C 
ENDBRANCH   1  18
TORSDOF 1
