REMARK  Name = ZINC04941357
REMARK  4 active torsions:
REMARK  status: ('A' for Active; 'I' for Inactive)
REMARK    1  A    between atoms: C_6  and  N_7
REMARK    2  A    between atoms: C_8  and  C_10
REMARK    3  A    between atoms: N_12  and  C_13
REMARK    4  A    between atoms: C_13  and  C_14
REMARK                            x       y       z     vdW  Elec       q    Type
REMARK                         _______ _______ _______ _____ _____    ______ ____
ROOT
ATOM      1  C   UNL     1      -6.052  -0.855   0.247  0.00  0.00    +0.299 C 
ATOM      2  O   UNL     1      -6.034  -2.068   0.239  0.00  0.00    -0.265 OA
ATOM      3  N   UNL     1      -7.224  -0.199   0.360  0.00  0.00    -0.305 N 
ATOM      4  H   UNL     1      -7.238   0.771   0.367  0.00  0.00    +0.149 HD
ENDROOT
BRANCH   1   6
ATOM      5  N   UNL     1      -3.604  -0.744   0.019  0.00  0.00    -0.278 N 
ATOM      6  C   UNL     1      -4.776  -0.088   0.132  0.00  0.00    +0.303 C 
ATOM      7  O   UNL     1      -4.794   1.125   0.140  0.00  0.00    -0.265 OA
ATOM      8  H   UNL     1      -3.595  -1.711  -0.065  0.00  0.00    +0.155 HD
BRANCH   5  14
ATOM      9  C   UNL     1      -1.325  -0.480  -0.734  0.00  0.00    +0.027 A 
ATOM     10  C   UNL     1      -0.135   0.221  -0.727  0.00  0.00    +0.051 A 
ATOM     11  C   UNL     1      -0.012   1.379   0.028  0.00  0.00    +0.162 A 
ATOM     12  C   UNL     1      -1.088   1.832   0.783  0.00  0.00    +0.164 A 
ATOM     13  C   UNL     1      -2.280   1.125   0.781  0.00  0.00    +0.072 A 
ATOM     14  C   UNL     1      -2.400  -0.032   0.022  0.00  0.00    +0.038 A 
ATOM     15  O   UNL     1      -0.986   2.965   1.530  0.00  0.00    -0.485 OA
ATOM     16  C   UNL     1       0.337   3.439   1.804  0.00  0.00    +0.270 C 
ATOM     17  C   UNL     1       1.139   3.407   0.496  0.00  0.00    +0.270 C 
ATOM     18  O   UNL     1       1.169   2.056   0.022  0.00  0.00    -0.485 OA
ENDBRANCH   5  14
ENDBRANCH   1   6
BRANCH   3  19
ATOM     19  C   UNL     1      -8.476  -0.951   0.473  0.00  0.00    +0.138 C 
BRANCH  19  20
ATOM     20  C   UNL     1      -9.649   0.025   0.588  0.00  0.00    +0.164 C 
ATOM     21  C   UNL     1     -10.993  -0.735   0.710  0.00  0.00    +0.196 C 
ATOM     22  O   UNL     1     -11.833   0.198   1.420  0.00  0.00    -0.346 OA
ATOM     23  C   UNL     1     -10.967   1.111   2.107  0.00  0.00    +0.171 C 
ATOM     24  O   UNL     1      -9.603   0.745   1.844  0.00  0.00    -0.342 OA
ATOM     25  C   UNL     1     -11.233   1.038   3.611  0.00  0.00    +0.065 C 
ATOM     26  C   UNL     1     -12.684   1.434   3.892  0.00  0.00    +0.005 C 
ATOM     27  C   UNL     1     -12.930   2.860   3.395  0.00  0.00    +0.000 C 
ATOM     28  C   UNL     1     -12.669   2.927   1.889  0.00  0.00    +0.005 C 
ATOM     29  C   UNL     1     -11.218   2.534   1.604  0.00  0.00    +0.065 C 
ENDBRANCH  19  20
ENDBRANCH   3  19
TORSDOF 4
