REMARK  Name = ZINC12395361
REMARK  3 active torsions:
REMARK  status: ('A' for Active; 'I' for Inactive)
REMARK    1  A    between atoms: C_4  and  N_8
REMARK    2  A    between atoms: C_5  and  N_7
REMARK    3  A    between atoms: C_11  and  C_13
REMARK                            x       y       z     vdW  Elec       q    Type
REMARK                         _______ _______ _______ _____ _____    ______ ____
ROOT
ATOM      1  C   UNL     1      -3.716   0.736   6.645  0.00  0.00    +0.002 A 
ATOM      2  C   UNL     1      -3.384   2.069   6.484  0.00  0.00    +0.002 A 
ATOM      3  C   UNL     1      -2.598   2.466   5.419  0.00  0.00    +0.029 A 
ATOM      4  C   UNL     1      -2.137   1.526   4.509  0.00  0.00    +0.086 A 
ATOM      5  C   UNL     1      -2.475   0.183   4.669  0.00  0.00    +0.050 A 
ATOM      6  C   UNL     1      -3.262  -0.207   5.743  0.00  0.00    +0.025 A 
ENDROOT
BRANCH   4   7
ATOM      7  N   UNL     1      -1.339   1.927   3.427  0.00  0.00    -0.238 N 
ATOM      8  C   UNL     1      -1.585   2.966   2.598  0.00  0.00    +0.115 A 
ATOM      9  C   UNL     1      -0.578   3.021   1.696  0.00  0.00    +0.054 A 
ATOM     10  C   UNL     1       0.309   1.976   1.976  0.00  0.00    +0.166 A 
ATOM     11  N   UNL     1      -0.144   1.321   3.015  0.00  0.00    -0.162 NA
BRANCH  10  12
ATOM     12  C   UNL     1       1.571   1.661   1.216  0.00  0.00    +0.436 C 
ATOM     13  F   UNL     1       2.138   0.485   1.719  0.00  0.00    -0.164 F 
ATOM     14  F   UNL     1       2.479   2.715   1.362  0.00  0.00    -0.164 F 
ATOM     15  F   UNL     1       1.270   1.490  -0.140  0.00  0.00    -0.164 F 
ENDBRANCH  10  12
ENDBRANCH   4   7
BRANCH   5  16
ATOM     16  N   UNL     1      -2.019  -0.769   3.752  0.00  0.00    -0.356 N 
ATOM     17  H   UNL     1      -1.546  -0.485   2.954  0.00  0.00    +0.142 HD
ATOM     18  H   UNL     1      -2.177  -1.712   3.913  0.00  0.00    +0.142 HD
ENDBRANCH   5  16
TORSDOF 3
