REMARK  Name = ZINC12602888
REMARK  9 active torsions:
REMARK  status: ('A' for Active; 'I' for Inactive)
REMARK    1  A    between atoms: C_1  and  O_2
REMARK    2  A    between atoms: O_2  and  C_3
REMARK    3  A    between atoms: C_3  and  C_4
REMARK    4  A    between atoms: C_4  and  N_5
REMARK    5  A    between atoms: N_5  and  C_6
REMARK    6  A    between atoms: C_9  and  C_32
REMARK    7  A    between atoms: C_12  and  C_28
REMARK    8  A    between atoms: C_28  and  O_30
REMARK    9  A    between atoms: O_30  and  C_31
REMARK                            x       y       z     vdW  Elec       q    Type
REMARK                         _______ _______ _______ _____ _____    ______ ____
ROOT
ATOM      1  C   UNL     1       5.312   1.975   1.209  0.00  0.00    -0.068 C 
ATOM      2  C   UNL     1       5.978   0.620   1.456  0.00  0.00    +0.008 C 
ATOM      3  C   UNL     1       5.517  -0.378   0.391  0.00  0.00    +0.090 C 
ATOM      4  N   UNL     1       4.057  -0.507   0.447  0.00  0.00    -0.274 NA
ATOM      5  C   UNL     1       3.571  -1.583  -0.424  0.00  0.00    +0.172 C 
ATOM      6  C   UNL     1       2.127  -1.938  -0.041  0.00  0.00    +0.068 C 
ATOM      7  C   UNL     1       1.339  -0.657   0.065  0.00  0.00    -0.016 A 
ATOM      8  C   UNL     1      -0.093  -0.463   0.096  0.00  0.00    +0.003 A 
ATOM      9  C   UNL     1      -1.174  -1.349   0.043  0.00  0.00    +0.010 A 
ATOM     10  C   UNL     1      -2.431  -0.800   0.098  0.00  0.00    +0.001 A 
ATOM     11  C   UNL     1      -2.633   0.567   0.201  0.00  0.00    +0.002 A 
ATOM     12  C   UNL     1      -1.583   1.467   0.252  0.00  0.00    +0.026 A 
ATOM     13  C   UNL     1      -0.295   0.938   0.203  0.00  0.00    +0.047 A 
ATOM     14  N   UNL     1       0.937   1.526   0.232  0.00  0.00    -0.356 N 
ATOM     15  H   UNL     1       1.023   2.620   0.312  0.00  0.00    +0.166 HD
ATOM     16  C   UNL     1       1.910   0.567   0.148  0.00  0.00    +0.038 A 
ATOM     17  C   UNL     1       3.404   0.775   0.144  0.00  0.00    +0.103 C 
ATOM     18  C   UNL     1       3.790   1.801   1.211  0.00  0.00    +0.009 C 
ENDROOT
BRANCH   3  19
ATOM     19  C   UNL     1       6.152  -1.720   0.650  0.00  0.00    +0.005 A 
ATOM     20  C   UNL     1       7.181  -2.166  -0.157  0.00  0.00    +0.008 A 
ATOM     21  C   UNL     1       7.764  -3.397   0.081  0.00  0.00    +0.000 A 
ATOM     22  C   UNL     1       7.318  -4.183   1.127  0.00  0.00    +0.003 A 
ATOM     23  C   UNL     1       6.288  -3.740   1.935  0.00  0.00    +0.038 A 
ATOM     24  C   UNL     1       5.708  -2.505   1.701  0.00  0.00    +0.128 A 
ATOM     25  F   UNL     1       4.705  -2.067   2.494  0.00  0.00    -0.205 F 
ENDBRANCH   3  19
BRANCH   1  26
ATOM     26  N   UNL     1       5.743   2.503  -0.093  0.00  0.00    +0.382 N 
ATOM     27  H   UNL     1       4.968   3.187  -0.470  0.00  0.00    -0.085 HD
ATOM     28  H   UNL     1       5.862   1.662  -0.792  0.00  0.00    -0.085 HD
BRANCH  26  29
ATOM     29  C   UNL     1       7.016   3.225   0.027  0.00  0.00    -0.054 C 
BRANCH  29  30
ATOM     30  C   UNL     1       7.431   3.759  -1.345  0.00  0.00    +0.140 C 
BRANCH  30  32
ATOM     31  C   UNL     1       6.780   5.299  -3.062  0.00  0.00    +0.193 C 
ATOM     32  O   UNL     1       6.484   4.734  -1.784  0.00  0.00    -0.385 OA
ENDBRANCH  30  32
ENDBRANCH  29  30
ENDBRANCH  26  29
ENDBRANCH   1  26
BRANCH   5  33
ATOM     33  C   UNL     1       3.611  -1.124  -1.859  0.00  0.00    +0.325 C 
ATOM     34  O   UNL     1       4.179  -0.098  -2.150  0.00  0.00    -0.249 OA
BRANCH  33  35
ATOM     35  O   UNL     1       3.015  -1.856  -2.814  0.00  0.00    -0.467 OA
ATOM     36  C   UNL     1       3.094  -1.353  -4.174  0.00  0.00    +0.280 C 
ENDBRANCH  33  35
ENDBRANCH   5  33
TORSDOF 7
