REMARK  Name = ZINC12715149
REMARK  14 active torsions:
REMARK  status: ('A' for Active; 'I' for Inactive)
REMARK    1  A    between atoms: C_1  and  C_2
REMARK    2  A    between atoms: C_2  and  C_4
REMARK    3  A    between atoms: C_2  and  N_13
REMARK    4  A    between atoms: N_6  and  C_7
REMARK    5  A    between atoms: N_13  and  C_14
REMARK    6  A    between atoms: C_14  and  C_15
REMARK    7  A    between atoms: C_15  and  C_16
REMARK    8  A    between atoms: C_19  and  O_24
REMARK    9  A    between atoms: C_20  and  O_22
REMARK   10  A    between atoms: O_22  and  C_23
REMARK   11  A    between atoms: O_24  and  C_25
REMARK   12  A    between atoms: C_26  and  C_28
REMARK   13  A    between atoms: C_29  and  N_36
REMARK   14  A    between atoms: C_30  and  C_33
REMARK                            x       y       z     vdW  Elec       q    Type
REMARK                         _______ _______ _______ _____ _____    ______ ____
ROOT
ATOM      1  N   UNL     1      -1.251  -0.443   0.192  0.00  0.00    -0.285 N 
ATOM      2  C   UNL     1      -1.731   0.060   1.347  0.00  0.00    +0.257 C 
ATOM      3  O   UNL     1      -0.995   0.680   2.093  0.00  0.00    -0.269 OA
ENDROOT
BRANCH   2   4
ATOM      4  C   UNL     1      -3.136  -0.141   1.705  0.00  0.00    +0.115 A 
ATOM      5  C   UNL     1      -3.862   0.392   2.772  0.00  0.00    +0.076 A 
ATOM      6  C   UNL     1      -5.192  -0.022   2.800  0.00  0.00    +0.155 A 
ATOM      7  N   UNL     1      -5.636  -0.840   1.869  0.00  0.00    -0.203 NA
ATOM      8  S   UNL     1      -4.379  -1.124   0.891  0.00  0.00    +0.019 S 
BRANCH   6   9
ATOM      9  C   UNL     1      -6.095   0.451   3.865  0.00  0.00    +0.262 C 
ATOM     10  O   UNL     1      -5.709   1.282   4.665  0.00  0.00    -0.269 OA
ATOM     11  N   UNL     1      -7.348  -0.037   3.953  0.00  0.00    -0.324 N 
ATOM     12  H   UNL     1      -7.656  -0.700   3.315  0.00  0.00    +0.145 HD
ATOM     13  H   UNL     1      -7.942   0.274   4.654  0.00  0.00    +0.145 HD
ENDBRANCH   6   9
BRANCH   5  14
ATOM     14  N   UNL     1      -3.311   1.251   3.714  0.00  0.00    -0.355 N 
ATOM     15  H   UNL     1      -2.402   1.571   3.605  0.00  0.00    +0.142 HD
ATOM     16  H   UNL     1      -3.836   1.531   4.480  0.00  0.00    +0.142 HD
ENDBRANCH   5  14
ENDBRANCH   2   4
BRANCH   1  18
ATOM     17  C   UNL     1       0.340   1.359  -0.259  0.00  0.00    +0.038 C 
ATOM     18  C   UNL     1       0.126  -0.155  -0.216  0.00  0.00    +0.159 C 
BRANCH  18  19
ATOM     19  C   UNL     1       1.082  -0.769   0.775  0.00  0.00    +0.234 C 
ATOM     20  O   UNL     1       0.654  -1.386   1.727  0.00  0.00    -0.274 OA
ATOM     21  N   UNL     1       2.411  -0.633   0.602  0.00  0.00    -0.311 N 
ATOM     22  H   UNL     1       2.753  -0.140  -0.160  0.00  0.00    +0.149 HD
BRANCH  21  23
ATOM     23  C   UNL     1       3.340  -1.230   1.564  0.00  0.00    +0.073 C 
ATOM     24  C   UNL     1       3.543  -0.271   2.739  0.00  0.00    +0.022 C 
ATOM     25  C   UNL     1       4.513  -0.895   3.745  0.00  0.00    +0.002 C 
ATOM     26  C   UNL     1       5.857  -1.156   3.062  0.00  0.00    +0.000 C 
ATOM     27  C   UNL     1       5.654  -2.115   1.887  0.00  0.00    +0.002 C 
ATOM     28  C   UNL     1       4.684  -1.492   0.882  0.00  0.00    +0.022 C 
ENDBRANCH  21  23
ENDBRANCH  18  19
ENDBRANCH   1  18
BRANCH   1  29
ATOM     29  C   UNL     1      -2.108  -1.276  -0.656  0.00  0.00    +0.113 C 
BRANCH  29  30
ATOM     30  C   UNL     1      -2.079  -2.719  -0.148  0.00  0.00    +0.054 C 
BRANCH  30  31
ATOM     31  C   UNL     1      -2.960  -3.576  -1.020  0.00  0.00    -0.042 A 
ATOM     32  C   UNL     1      -4.298  -3.731  -0.709  0.00  0.00    +0.007 A 
ATOM     33  C   UNL     1      -5.110  -4.516  -1.505  0.00  0.00    +0.049 A 
ATOM     34  C   UNL     1      -4.583  -5.149  -2.620  0.00  0.00    +0.161 A 
ATOM     35  C   UNL     1      -3.237  -4.993  -2.934  0.00  0.00    +0.162 A 
ATOM     36  C   UNL     1      -2.429  -4.200  -2.134  0.00  0.00    +0.053 A 
BRANCH  35  37
ATOM     37  O   UNL     1      -2.716  -5.612  -4.027  0.00  0.00    -0.491 OA
ATOM     38  C   UNL     1      -1.326  -5.406  -4.288  0.00  0.00    +0.277 C 
ENDBRANCH  35  37
BRANCH  34  39
ATOM     39  O   UNL     1      -5.381  -5.922  -3.405  0.00  0.00    -0.491 OA
ATOM     40  C   UNL     1      -6.753  -6.038  -3.021  0.00  0.00    +0.277 C 
ENDBRANCH  34  39
ENDBRANCH  30  31
ENDBRANCH  29  30
ENDBRANCH   1  29
TORSDOF 11
