REMARK  Name = ZINC29568415
REMARK  12 active torsions:
REMARK  status: ('A' for Active; 'I' for Inactive)
REMARK    1  A    between atoms: C_1  and  C_2
REMARK    2  A    between atoms: C_4  and  O_9
REMARK    3  A    between atoms: O_9  and  C_10
REMARK    4  A    between atoms: C_10  and  C_11
REMARK    5  A    between atoms: C_14  and  C_17
REMARK    6  A    between atoms: N_19  and  N_20
REMARK    7  A    between atoms: C_21  and  C_23
REMARK    8  A    between atoms: C_23  and  N_24
REMARK    9  A    between atoms: C_25  and  C_27
REMARK   10  A    between atoms: C_27  and  C_28
REMARK   11  A    between atoms: C_27  and  C_29
REMARK   12  A    between atoms: C_27  and  C_30
REMARK                            x       y       z     vdW  Elec       q    Type
REMARK                         _______ _______ _______ _____ _____    ______ ____
ROOT
ATOM      1  C   UNL     1       3.696  -0.685  -0.036  0.00  0.00    +0.260 C 
ATOM      2  O   UNL     1       3.715  -1.900  -0.042  0.00  0.00    -0.269 OA
ATOM      3  N   UNL     1       4.852   0.008  -0.043  0.00  0.00    -0.230 N 
ATOM      4  H   UNL     1       4.834   1.108  -0.038  0.00  0.00    +0.173 HD
ENDROOT
BRANCH   1   8
ATOM      5  C   UNL     1      -0.017   1.379   0.010  0.00  0.00    -0.010 A 
ATOM      6  C   UNL     1       1.168   2.094   0.002  0.00  0.00    +0.008 A 
ATOM      7  C   UNL     1       2.377   1.429  -0.013  0.00  0.00    +0.013 A 
ATOM      8  C   UNL     1       2.403   0.034  -0.020  0.00  0.00    +0.038 A 
ATOM      9  C   UNL     1       1.204  -0.681  -0.013  0.00  0.00    +0.013 A 
ATOM     10  C   UNL     1       0.002  -0.004   0.002  0.00  0.00    +0.008 A 
BRANCH   5  11
ATOM     11  C   UNL     1      -1.334   2.112   0.020  0.00  0.00    +0.264 C 
BRANCH  11  12
ATOM     12  O   UNL     1      -1.744   2.336   1.370  0.00  0.00    -0.487 OA
BRANCH  12  16
ATOM     13  C   UNL     1      -5.073   4.179   4.426  0.00  0.00    +0.045 C 
ATOM     14  C   UNL     1      -4.575   3.906   3.031  0.00  0.00    -0.029 A 
ATOM     15  C   UNL     1      -3.379   3.241   2.842  0.00  0.00    +0.050 A 
ATOM     16  C   UNL     1      -2.921   2.990   1.558  0.00  0.00    +0.121 A 
ATOM     17  C   UNL     1      -3.662   3.412   0.464  0.00  0.00    +0.047 A 
ATOM     18  C   UNL     1      -4.860   4.072   0.656  0.00  0.00    +0.024 A 
ATOM     19  C   UNL     1      -5.316   4.322   1.939  0.00  0.00    +0.044 A 
ATOM     20 CL   UNL     1      -6.819   5.157   2.178  0.00  0.00    -0.083 Cl
ENDBRANCH  12  16
ENDBRANCH  11  12
ENDBRANCH   5  11
ENDBRANCH   1   8
BRANCH   3  21
ATOM     21  N   UNL     1       6.076  -0.673  -0.057  0.00  0.00    -0.233 N 
ATOM     22  C   UNL     1       7.232   0.020  -0.065  0.00  0.00    +0.246 C 
ATOM     23  O   UNL     1       7.213   1.232  -0.059  0.00  0.00    -0.273 OA
ATOM     24  H   UNL     1       6.094  -1.773  -0.063  0.00  0.00    +0.173 HD
BRANCH  22  25
ATOM     25  C   UNL     1       8.549  -0.713  -0.080  0.00  0.00    +0.201 C 
BRANCH  25  26
ATOM     26  N   UNL     1       9.647   0.257  -0.086  0.00  0.00    -0.306 N 
ATOM     27  C   UNL     1      10.925  -0.171  -0.100  0.00  0.00    +0.219 C 
ATOM     28  O   UNL     1      11.166  -1.360  -0.107  0.00  0.00    -0.275 OA
ATOM     29  H   UNL     1       9.429   1.335  -0.079  0.00  0.00    +0.149 HD
BRANCH  27  30
ATOM     30  C   UNL     1      12.054   0.826  -0.105  0.00  0.00    +0.039 C 
ATOM     31  C   UNL     1      13.391   0.083  -0.121  0.00  0.00    +0.020 C 
ATOM     32  C   UNL     1      11.948   1.710  -1.349  0.00  0.00    +0.020 C 
ATOM     33  C   UNL     1      11.971   1.699   1.149  0.00  0.00    +0.020 C 
ENDBRANCH  27  30
ENDBRANCH  25  26
ENDBRANCH  22  25
ENDBRANCH   3  21
TORSDOF 8
