REMARK  Name = ZINC12585623
REMARK  5 active torsions:
REMARK  status: ('A' for Active; 'I' for Inactive)
REMARK    1  A    between atoms: C_1  and  N_2
REMARK    2  A    between atoms: C_3  and  N_13
REMARK    3  A    between atoms: C_4  and  C_11
REMARK    4  A    between atoms: N_7  and  C_10
REMARK    5  A    between atoms: N_13  and  C_14
REMARK                            x       y       z     vdW  Elec       q    Type
REMARK                         _______ _______ _______ _____ _____    ______ ____
ROOT
ATOM      1  N   UNL     1       2.382   1.137  -0.017  0.00  0.00    -0.299 N 
ATOM      2  H   UNL     1       2.380   0.167  -0.007  0.00  0.00    +0.154 HD
ENDROOT
BRANCH   1   3
ATOM      3  C   UNL     1       1.176   1.840   0.082  0.00  0.00    +0.036 A 
ATOM      4  C   UNL     1       1.166   3.223  -0.051  0.00  0.00    +0.027 A 
ATOM      5  C   UNL     1      -0.024   3.918   0.045  0.00  0.00    +0.051 A 
ATOM      6  C   UNL     1      -1.210   3.239   0.273  0.00  0.00    +0.167 A 
ATOM      7  C   UNL     1      -1.204   1.852   0.403  0.00  0.00    +0.169 A 
ATOM      8  C   UNL     1      -0.010   1.156   0.311  0.00  0.00    +0.072 A 
ATOM      9  O   UNL     1      -2.483   1.427   0.623  0.00  0.00    -0.447 OA
ATOM     10  C   UNL     1      -3.214   2.600   1.010  0.00  0.00    +0.254 C 
ATOM     11  O   UNL     1      -2.496   3.684   0.404  0.00  0.00    -0.448 OA
ATOM     12  C   UNL     1      -4.639   2.539   0.470  0.00  0.00    +0.093 C 
ATOM     13  C   UNL     1      -5.392   3.812   0.866  0.00  0.00    +0.008 C 
ATOM     14  C   UNL     1      -5.411   3.938   2.391  0.00  0.00    +0.000 C 
ATOM     15  C   UNL     1      -3.976   4.021   2.915  0.00  0.00    +0.008 C 
ATOM     16  C   UNL     1      -3.219   2.748   2.527  0.00  0.00    +0.093 C 
ENDBRANCH   1   3
BRANCH   1  19
ATOM     17  C   UNL     1       3.408   1.619  -2.565  0.00  0.00    +0.155 C 
ATOM     18  N   UNL     1       4.102   2.075  -1.358  0.00  0.00    -0.283 N 
ATOM     19  C   UNL     1       3.561   1.815  -0.127  0.00  0.00    +0.130 A 
ATOM     20  C   UNL     1       4.232   2.262   1.017  0.00  0.00    +0.154 A 
ATOM     21  C   UNL     1       5.460   2.959   0.854  0.00  0.00    +0.276 A 
ATOM     22  O   UNL     1       6.075   3.359   1.826  0.00  0.00    -0.266 OA
ATOM     23  N   UNL     1       5.933   3.179  -0.389  0.00  0.00    -0.263 N 
ATOM     24  C   UNL     1       5.263   2.743  -1.470  0.00  0.00    +0.333 A 
ATOM     25  O   UNL     1       5.718   2.959  -2.576  0.00  0.00    -0.246 OA
ATOM     26  C   UNL     1       7.194   3.902  -0.565  0.00  0.00    +0.157 C 
BRANCH  20  27
ATOM     27  C   UNL     1       3.698   2.016   2.322  0.00  0.00    +0.108 C 
ATOM     28  N   UNL     1       3.274   1.821   3.358  0.00  0.00    -0.191 NA
ENDBRANCH  20  27
ENDBRANCH   1  19
TORSDOF 3
