REMARK  Name = ZINC16267915
REMARK  6 active torsions:
REMARK  status: ('A' for Active; 'I' for Inactive)
REMARK    1  A    between atoms: C_1  and  C_2
REMARK    2  A    between atoms: C_4  and  N_10
REMARK    3  A    between atoms: C_7  and  C_8
REMARK    4  A    between atoms: C_14  and  N_15
REMARK    5  A    between atoms: N_15  and  C_16
REMARK    6  A    between atoms: C_17  and  C_24
REMARK                            x       y       z     vdW  Elec       q    Type
REMARK                         _______ _______ _______ _____ _____    ______ ____
ROOT
ATOM      1  N   UNL     1      -0.051  -2.160  -2.812  0.00  0.00    -0.189 N 
ATOM      2  C   UNL     1      -1.207  -2.674  -3.281  0.00  0.00    +0.265 C 
ATOM      3  O   UNL     1      -2.277  -2.338  -2.808  0.00  0.00    -0.269 OA
ATOM      4  C   UNL     1      -1.139  -3.652  -4.380  0.00  0.00    +0.113 C 
ATOM      5  C   UNL     1      -2.282  -4.220  -4.912  0.00  0.00    +0.091 C 
ATOM      6  C   UNL     1       0.200  -3.998  -4.889  0.00  0.00    +0.258 C 
ATOM      7  O   UNL     1       0.337  -4.798  -5.796  0.00  0.00    -0.270 OA
ATOM      8  N   UNL     1       1.270  -3.405  -4.322  0.00  0.00    -0.235 N 
ATOM      9  C   UNL     1       1.134  -2.518  -3.327  0.00  0.00    +0.320 C 
ATOM     10  O   UNL     1       2.138  -2.014  -2.863  0.00  0.00    -0.251 OA
ATOM     11  H   UNL     1       2.159  -3.621  -4.645  0.00  0.00    +0.159 HD
ENDROOT
BRANCH   1  15
ATOM     12  C   UNL     1      -0.333   2.517  -1.318  0.00  0.00    +0.044 C 
ATOM     13  C   UNL     1      -0.227   1.045  -1.014  0.00  0.00    -0.046 A 
ATOM     14  C   UNL     1      -0.188   0.128  -2.046  0.00  0.00    +0.028 A 
ATOM     15  C   UNL     1      -0.090  -1.228  -1.766  0.00  0.00    +0.060 A 
ATOM     16  C   UNL     1      -0.032  -1.659  -0.446  0.00  0.00    +0.040 A 
ATOM     17  C   UNL     1      -0.071  -0.737   0.582  0.00  0.00    +0.020 A 
ATOM     18  C   UNL     1      -0.163   0.614   0.298  0.00  0.00    -0.046 A 
ATOM     19  C   UNL     1      -0.199   1.617   1.422  0.00  0.00    +0.044 C 
ATOM     20 BR   UNL     1       0.101  -3.505  -0.058  0.00  0.00    -0.048 Br
ENDBRANCH   1  15
BRANCH   5  21
ATOM     21  N   UNL     1      -3.478  -4.012  -4.321  0.00  0.00    -0.313 N 
ATOM     22  H   UNL     1      -3.525  -3.532  -3.479  0.00  0.00    +0.152 HD
BRANCH  21  23
ATOM     23  C   UNL     1      -4.637  -4.485  -4.915  0.00  0.00    +0.087 A 
ATOM     24  C   UNL     1      -5.936  -4.361  -4.461  0.00  0.00    +0.084 A 
ATOM     25  C   UNL     1      -6.992  -4.953  -5.279  0.00  0.00    -0.018 A 
ATOM     26  C   UNL     1      -6.546  -5.558  -6.396  0.00  0.00    -0.004 A 
ATOM     27  S   UNL     1      -4.786  -5.332  -6.355  0.00  0.00    -0.077 S 
ATOM     28  C   UNL     1      -7.671  -6.154  -7.199  0.00  0.00    +0.043 C 
ATOM     29  C   UNL     1      -8.861  -6.215  -6.216  0.00  0.00    +0.010 C 
ATOM     30  C   UNL     1      -8.512  -5.084  -5.228  0.00  0.00    +0.037 C 
BRANCH  24  31
ATOM     31  C   UNL     1      -6.236  -3.680  -3.237  0.00  0.00    +0.102 C 
ATOM     32  N   UNL     1      -6.474  -3.140  -2.267  0.00  0.00    -0.191 NA
ENDBRANCH  24  31
ENDBRANCH  21  23
ENDBRANCH   5  21
TORSDOF 4
