REMARK  Name = ZINC05172582
REMARK  4 active torsions:
REMARK  status: ('A' for Active; 'I' for Inactive)
REMARK    1  A    between atoms: C_1  and  C_2
REMARK    2  A    between atoms: C_13  and  C_18
REMARK    3  A    between atoms: N_19  and  N_20
REMARK    4  A    between atoms: C_21  and  C_23
REMARK                            x       y       z     vdW  Elec       q    Type
REMARK                         _______ _______ _______ _____ _____    ______ ____
ROOT
ATOM      1  C   UNL     1      -0.619  -3.831  -1.684  0.00  0.00    +0.095 C 
ATOM      2  N   UNL     1      -1.569  -4.685  -1.889  0.00  0.00    -0.294 N 
ATOM      3  N   UNL     1       0.687  -4.266  -1.560  0.00  0.00    -0.346 N 
ATOM      4  H   UNL     1       1.386  -3.639  -1.316  0.00  0.00    +0.143 HD
ATOM      5  H   UNL     1       0.905  -5.198  -1.718  0.00  0.00    +0.143 HD
ATOM      6  H   UNL     1      -1.365  -5.631  -1.956  0.00  0.00    +0.185 HD
ENDROOT
BRANCH   1  18
ATOM      7  C   UNL     1       0.014   1.563  -0.125  0.00  0.00    +0.078 C 
ATOM      8  C   UNL     1       0.032   0.033  -0.098  0.00  0.00    +0.176 C 
ATOM      9  C   UNL     1      -1.404  -0.498  -0.010  0.00  0.00    +0.078 C 
ATOM     10  C   UNL     1      -1.336  -2.026  -0.139  0.00  0.00    +0.047 C 
ATOM     11  C   UNL     1      -0.299  -2.567   0.812  0.00  0.00    -0.001 A 
ATOM     12  C   UNL     1      -0.327  -3.914   1.133  0.00  0.00    +0.007 A 
ATOM     13  C   UNL     1       0.608  -4.444   2.001  0.00  0.00    +0.001 A 
ATOM     14  C   UNL     1       1.579  -3.629   2.553  0.00  0.00    +0.004 A 
ATOM     15  C   UNL     1       1.612  -2.286   2.237  0.00  0.00    +0.046 A 
ATOM     16  C   UNL     1       0.670  -1.749   1.365  0.00  0.00    +0.127 A 
ATOM     17  O   UNL     1       0.741  -0.419   1.061  0.00  0.00    -0.468 OA
ATOM     18  C   UNL     1      -0.936  -2.361  -1.580  0.00  0.00    +0.145 C 
ATOM     19  C   UNL     1       0.274  -1.559  -1.966  0.00  0.00    +0.227 C 
ATOM     20  O   UNL     1       0.911  -1.910  -2.936  0.00  0.00    -0.275 OA
ATOM     21  N   UNL     1       0.693  -0.470  -1.296  0.00  0.00    -0.278 N 
ATOM     22  H   UNL     1       1.471   0.009  -1.622  0.00  0.00    +0.152 HD
ENDBRANCH   1  18
BRANCH   2  23
ATOM     23  N   UNL     1      -2.893  -4.244  -2.015  0.00  0.00    -0.225 N 
ATOM     24  C   UNL     1      -3.882  -5.134  -2.229  0.00  0.00    +0.262 C 
ATOM     25  O   UNL     1      -3.626  -6.320  -2.312  0.00  0.00    -0.269 OA
ATOM     26  H   UNL     1      -3.097  -3.299  -1.948  0.00  0.00    +0.175 HD
BRANCH  24  27
ATOM     27  C   UNL     1      -5.278  -4.669  -2.361  0.00  0.00    +0.038 A 
ATOM     28  C   UNL     1      -5.574  -3.307  -2.271  0.00  0.00    +0.016 A 
ATOM     29  C   UNL     1      -6.878  -2.879  -2.396  0.00  0.00    +0.039 A 
ATOM     30  C   UNL     1      -7.895  -3.797  -2.610  0.00  0.00    +0.123 A 
ATOM     31  C   UNL     1      -7.606  -5.150  -2.700  0.00  0.00    +0.039 A 
ATOM     32  C   UNL     1      -6.305  -5.589  -2.583  0.00  0.00    +0.016 A 
ATOM     33  F   UNL     1      -9.172  -3.372  -2.731  0.00  0.00    -0.205 F 
ENDBRANCH  24  27
ENDBRANCH   2  23
TORSDOF 3
