REMARK  Name = ZINC61053147
REMARK  2 active torsions:
REMARK  status: ('A' for Active; 'I' for Inactive)
REMARK    1  A    between atoms: C_3  and  C_16
REMARK    2  A    between atoms: C_16  and  O_17
REMARK                            x       y       z     vdW  Elec       q    Type
REMARK                         _______ _______ _______ _____ _____    ______ ____
ROOT
ATOM      1  C   UNL     1      -0.019   1.528   0.010  0.00  0.00    +0.019 C 
ATOM      2  C   UNL     1       1.419   2.053  -0.001  0.00  0.00    +0.009 C 
ATOM      3  C   UNL     1       2.124   1.587  -1.276  0.00  0.00    +0.032 C 
ATOM      4  C   UNL     1       2.170   0.056  -1.299  0.00  0.00    +0.113 C 
ATOM      5  N   UNL     1       0.803  -0.460  -1.143  0.00  0.00    -0.299 N 
ATOM      6  C   UNL     1       0.002  -0.004   0.002  0.00  0.00    +0.108 C 
ATOM      7  C   UNL     1       0.281  -1.355  -2.054  0.00  0.00    +0.223 A 
ATOM      8  N   UNL     1       1.017  -1.764  -3.083  0.00  0.00    -0.184 NA
ATOM      9  C   UNL     1       0.514  -2.622  -3.955  0.00  0.00    +0.228 A 
ATOM     10  N   UNL     1      -0.722  -3.074  -3.804  0.00  0.00    -0.187 NA
ATOM     11  C   UNL     1      -1.458  -2.668  -2.780  0.00  0.00    +0.228 A 
ATOM     12  N   UNL     1      -0.958  -1.815  -1.902  0.00  0.00    -0.184 NA
ATOM     13 CL   UNL     1      -3.077  -3.263  -2.586  0.00  0.00    -0.041 Cl
ATOM     14 CL   UNL     1       1.474  -3.156  -5.299  0.00  0.00    -0.041 Cl
ENDROOT
BRANCH   3  15
ATOM     15  C   UNL     1       3.550   2.141  -1.302  0.00  0.00    +0.160 C 
BRANCH  15  16
ATOM     16  O   UNL     1       4.170   1.803  -2.544  0.00  0.00    -0.395 OA
ATOM     17  H   UNL     1       5.078   2.123  -2.631  0.00  0.00    +0.209 HD
ENDBRANCH  15  16
ENDBRANCH   3  15
TORSDOF 2
