REMARK  Name = ZINC12538233
REMARK  7 active torsions:
REMARK  status: ('A' for Active; 'I' for Inactive)
REMARK    1  A    between atoms: C_1  and  C_2
REMARK    2  A    between atoms: C_2  and  C_4
REMARK    3  A    between atoms: C_2  and  S_18
REMARK    4  A    between atoms: C_7  and  C_9
REMARK    5  A    between atoms: C_12  and  N_15
REMARK    6  A    between atoms: S_18  and  C_19
REMARK    7  A    between atoms: C_23  and  N_25
REMARK                            x       y       z     vdW  Elec       q    Type
REMARK                         _______ _______ _______ _____ _____    ______ ____
ROOT
ATOM      1  C   UNL     1       2.387   4.252   1.310  0.00  0.00    +0.029 C 
ATOM      2  C   UNL     1       3.129   4.008  -0.006  0.00  0.00    +0.139 C 
ENDROOT
BRANCH   2   3
ATOM      3  C   UNL     1       4.259   4.997  -0.136  0.00  0.00    +0.231 A 
ATOM      4  N   UNL     1       5.392   4.959   0.509  0.00  0.00    -0.111 NA
ATOM      5  N   UNL     1       6.122   5.957   0.154  0.00  0.00    -0.107 NA
ATOM      6  C   UNL     1       5.475   6.671  -0.737  0.00  0.00    +0.248 A 
ATOM      7  O   UNL     1       4.285   6.072  -0.941  0.00  0.00    -0.419 OA
BRANCH   6   8
ATOM      8  C   UNL     1       5.963   7.900  -1.398  0.00  0.00    +0.039 A 
ATOM      9  C   UNL     1       5.165   8.556  -2.336  0.00  0.00    +0.015 A 
ATOM     10  C   UNL     1       5.624   9.705  -2.945  0.00  0.00    +0.033 A 
ATOM     11  C   UNL     1       6.878  10.202  -2.637  0.00  0.00    +0.126 A 
ATOM     12  C   UNL     1       7.677   9.554  -1.712  0.00  0.00    +0.033 A 
ATOM     13  C   UNL     1       7.227   8.406  -1.091  0.00  0.00    +0.015 A 
BRANCH  11  14
ATOM     14  N   UNL     1       7.367  11.432  -3.299  0.00  0.00    +0.056 N 
ATOM     15  O   UNL     1       8.470  11.871  -3.030  0.00  0.00    -0.126 OA
ATOM     16  O   UNL     1       6.665  12.005  -4.114  0.00  0.00    -0.126 OA
ENDBRANCH  11  14
ENDBRANCH   6   8
ENDBRANCH   2   3
BRANCH   2  17
ATOM     17  S   UNL     1       3.794   2.325  -0.022  0.00  0.00    -0.073 S 
BRANCH  17  18
ATOM     18  C   UNL     1       2.292   1.403  -0.012  0.00  0.00    +0.192 A 
ATOM     19  N   UNL     1       1.137   2.051   0.002  0.00  0.00    -0.207 NA
ATOM     20  C   UNL     1      -0.017   1.388   0.010  0.00  0.00    +0.122 A 
ATOM     21  C   UNL     1       0.002  -0.004   0.002  0.00  0.00    +0.086 A 
ATOM     22  C   UNL     1       1.235  -0.650  -0.013  0.00  0.00    +0.122 A 
ATOM     23  N   UNL     1       2.348   0.079  -0.020  0.00  0.00    -0.207 NA
ATOM     24  N   UNL     1      -1.221   2.074   0.019  0.00  0.00    -0.343 N 
ATOM     25  H   UNL     1      -2.058   1.584   0.020  0.00  0.00    +0.144 HD
ATOM     26  H   UNL     1      -1.227   3.043   0.024  0.00  0.00    +0.144 HD
BRANCH  22  27
ATOM     27  N   UNL     1       1.302  -2.035  -0.022  0.00  0.00    -0.343 N 
ATOM     28  H   UNL     1       0.487  -2.560  -0.017  0.00  0.00    +0.144 HD
ATOM     29  H   UNL     1       2.165  -2.478  -0.032  0.00  0.00    +0.144 HD
ENDBRANCH  22  27
ENDBRANCH  17  18
ENDBRANCH   2  17
TORSDOF 6
