REMARK  Name = ZINC16044971
REMARK  5 active torsions:
REMARK  status: ('A' for Active; 'I' for Inactive)
REMARK    1  A    between atoms: C_1  and  C_2
REMARK    2  A    between atoms: C_5  and  C_8
REMARK    3  A    between atoms: C_11  and  C_14
REMARK    4  A    between atoms: C_19  and  C_21
REMARK    5  A    between atoms: C_21  and  N_22
REMARK                            x       y       z     vdW  Elec       q    Type
REMARK                         _______ _______ _______ _____ _____    ______ ____
ROOT
ATOM      1  C   UNL     1       4.850   2.500   1.138  0.00  0.00    +0.069 C 
ATOM      2  N   UNL     1       4.761   2.828  -0.105  0.00  0.00    -0.181 NA
ATOM      3  N   UNL     1       4.051   1.917  -0.884  0.00  0.00    -0.181 N 
ATOM      4  C   UNL     1       3.596   0.810  -0.028  0.00  0.00    +0.173 C 
ATOM      5  C   UNL     1       4.133   1.189   1.367  0.00  0.00    +0.090 C 
ATOM      6  C   UNL     1       3.820   2.030  -2.207  0.00  0.00    +0.253 C 
ATOM      7  O   UNL     1       3.187   1.174  -2.788  0.00  0.00    -0.272 OA
ENDROOT
BRANCH   1  12
ATOM      8  C   UNL     1       7.556   5.556   5.190  0.00  0.00    +0.044 C 
ATOM      9  C   UNL     1       6.847   4.755   4.128  0.00  0.00    -0.050 A 
ATOM     10  C   UNL     1       6.821   5.213   2.823  0.00  0.00    +0.004 A 
ATOM     11  C   UNL     1       6.174   4.486   1.846  0.00  0.00    +0.010 A 
ATOM     12  C   UNL     1       5.544   3.284   2.177  0.00  0.00    -0.002 A 
ATOM     13  C   UNL     1       5.570   2.830   3.498  0.00  0.00    +0.010 A 
ATOM     14  C   UNL     1       6.226   3.565   4.463  0.00  0.00    +0.004 A 
ENDBRANCH   1  12
BRANCH   4  15
ATOM     15  C   UNL     1       2.091   0.734  -0.014  0.00  0.00    +0.128 A 
ATOM     16  C   UNL     1       1.361  -0.395  -0.013  0.00  0.00    +0.046 A 
ATOM     17  C   UNL     1       0.002  -0.004   0.002  0.00  0.00    +0.041 A 
ATOM     18  C   UNL     1      -0.016   1.341   0.009  0.00  0.00    +0.195 A 
ATOM     19  O   UNL     1       1.252   1.783  -0.000  0.00  0.00    -0.466 OA
ENDBRANCH   4  15
BRANCH   6  20
ATOM     20  C   UNL     1       4.347   3.221  -2.965  0.00  0.00    +0.215 C 
BRANCH  20  21
ATOM     21  N   UNL     1       3.964   3.112  -4.375  0.00  0.00    -0.215 N 
ATOM     22  C   UNL     1       4.713   2.506  -5.318  0.00  0.00    +0.251 C 
ATOM     23  O   UNL     1       5.791   1.971  -5.168  0.00  0.00    -0.272 OA
ATOM     24  C   UNL     1       3.925   2.632  -6.603  0.00  0.00    +0.138 C 
ATOM     25  C   UNL     1       3.552   1.254  -7.137  0.00  0.00    +0.040 C 
ATOM     26  C   UNL     1       4.814   0.598  -7.710  0.00  0.00    +0.008 C 
ATOM     27  C   UNL     1       5.221   1.353  -8.973  0.00  0.00    +0.035 C 
ATOM     28  C   UNL     1       5.311   2.832  -8.703  0.00  0.00    -0.042 A 
ATOM     29  C   UNL     1       4.710   3.421  -7.612  0.00  0.00    -0.012 A 
ATOM     30  C   UNL     1       4.825   4.792  -7.421  0.00  0.00    +0.006 A 
ATOM     31  C   UNL     1       5.538   5.567  -8.313  0.00  0.00    +0.000 A 
ATOM     32  C   UNL     1       6.145   4.975  -9.404  0.00  0.00    +0.000 A 
ATOM     33  C   UNL     1       6.031   3.613  -9.597  0.00  0.00    +0.004 A 
ATOM     34  N   UNL     1       2.717   3.369  -6.208  0.00  0.00    -0.281 N 
ATOM     35  C   UNL     1       2.830   3.605  -4.887  0.00  0.00    +0.310 C 
ATOM     36  O   UNL     1       1.996   4.200  -4.233  0.00  0.00    -0.252 OA
ATOM     37  H   UNL     1       1.984   3.634  -6.785  0.00  0.00    +0.152 HD
ENDBRANCH  20  21
ENDBRANCH   6  20
TORSDOF 4
