REMARK  Name = ZINC34812178
REMARK  3 active torsions:
REMARK  status: ('A' for Active; 'I' for Inactive)
REMARK    1  A    between atoms: C_4  and  N_25
REMARK    2  A    between atoms: C_5  and  C_7
REMARK    3  A    between atoms: C_7  and  N_8
REMARK                            x       y       z     vdW  Elec       q    Type
REMARK                         _______ _______ _______ _____ _____    ______ ____
ROOT
ATOM      1  N   UNL     1       1.490  -2.680   1.338  0.00  0.00    +0.383 N 
ATOM      2  C   UNL     1       0.377  -2.303   2.217  0.00  0.00    -0.075 C 
ATOM      3  C   UNL     1       0.681  -2.745   3.650  0.00  0.00    +0.027 C 
ATOM      4  C   UNL     1       0.867  -4.264   3.682  0.00  0.00    +0.095 C 
ATOM      5  C   UNL     1       1.982  -4.652   2.706  0.00  0.00    +0.027 C 
ATOM      6  C   UNL     1       1.629  -4.141   1.308  0.00  0.00    -0.075 C 
ATOM      7  N   UNL     1       1.246  -4.679   5.037  0.00  0.00    -0.323 N 
ATOM      8  C   UNL     1       1.143  -6.024   5.377  0.00  0.00    +0.042 A 
ATOM      9  C   UNL     1       1.972  -6.603   6.321  0.00  0.00    +0.043 A 
ATOM     10  C   UNL     1       1.821  -7.941   6.635  0.00  0.00    +0.043 A 
ATOM     11  C   UNL     1       0.845  -8.706   6.012  0.00  0.00    +0.021 A 
ATOM     12  C   UNL     1       0.015  -8.144   5.066  0.00  0.00    +0.016 A 
ATOM     13  C   UNL     1       0.161  -6.798   4.735  0.00  0.00    +0.058 A 
ATOM     14  C   UNL     1      -0.684  -6.160   3.710  0.00  0.00    +0.247 C 
ATOM     15  O   UNL     1      -1.646  -6.747   3.254  0.00  0.00    -0.270 OA
ATOM     16  N   UNL     1      -0.380  -4.918   3.282  0.00  0.00    -0.291 N 
ATOM     17 CL   UNL     1       2.862  -8.671   7.817  0.00  0.00    -0.083 Cl
ATOM     18  H   UNL     1       1.563  -4.028   5.683  0.00  0.00    +0.148 HD
ATOM     19  H   UNL     1      -0.999  -4.450   2.700  0.00  0.00    +0.151 HD
ATOM     20  H   UNL     1       2.344  -2.269   1.686  0.00  0.00    -0.081 HD
ENDROOT
BRANCH   1  21
ATOM     21  C   UNL     1       1.229  -2.186  -0.020  0.00  0.00    -0.041 C 
BRANCH  21  26
ATOM     22  C   UNL     1      -0.017   1.378   0.010  0.00  0.00    +0.000 A 
ATOM     23  C   UNL     1       1.171   2.085   0.002  0.00  0.00    +0.002 A 
ATOM     24  C   UNL     1       2.377   1.411  -0.013  0.00  0.00    +0.033 A 
ATOM     25  C   UNL     1       2.396   0.028  -0.020  0.00  0.00    +0.128 A 
ATOM     26  C   UNL     1       1.209  -0.679  -0.012  0.00  0.00    -0.034 A 
ATOM     27  C   UNL     1       0.002  -0.004   0.002  0.00  0.00    +0.004 A 
BRANCH  25  28
ATOM     28  N   UNL     1       3.688  -0.694  -0.037  0.00  0.00    +0.057 N 
ATOM     29  O   UNL     1       4.726  -0.076  -0.045  0.00  0.00    -0.126 OA
ATOM     30  O   UNL     1       3.704  -1.903  -0.043  0.00  0.00    -0.126 OA
ENDBRANCH  25  28
ENDBRANCH  21  26
ENDBRANCH   1  21
TORSDOF 3
