REMARK  Name = ZINC01896090
REMARK  15 active torsions:
REMARK  status: ('A' for Active; 'I' for Inactive)
REMARK    1  A    between atoms: C_1  and  C_2
REMARK    2  A    between atoms: C_3  and  C_36
REMARK    3  A    between atoms: C_4  and  C_26
REMARK    4  A    between atoms: C_10  and  C_11
REMARK    5  A    between atoms: C_14  and  O_19
REMARK    6  A    between atoms: C_15  and  O_17
REMARK    7  A    between atoms: O_17  and  C_18
REMARK    8  A    between atoms: O_19  and  C_20
REMARK    9  A    between atoms: C_20  and  C_22
REMARK   10  A    between atoms: C_29  and  O_32
REMARK   11  A    between atoms: O_32  and  C_33
REMARK   12  A    between atoms: C_33  and  C_35
REMARK   13  A    between atoms: C_36  and  O_38
REMARK   14  A    between atoms: O_38  and  C_39
REMARK   15  A    between atoms: C_39  and  C_40
REMARK                            x       y       z     vdW  Elec       q    Type
REMARK                         _______ _______ _______ _____ _____    ______ ____
ROOT
ATOM      1  C   UNL     1      -0.373   0.564   3.395  0.00  0.00    +0.066 C 
ATOM      2  C   UNL     1      -0.342  -0.803   2.760  0.00  0.00    +0.053 C 
ATOM      3  C   UNL     1      -1.474  -1.568   2.744  0.00  0.00    +0.085 C 
ATOM      4  C   UNL     1      -1.400  -2.933   2.099  0.00  0.00    +0.162 C 
ATOM      5  N   UNL     1      -0.088  -3.343   1.524  0.00  0.00    -0.275 N 
ATOM      6  C   UNL     1       0.174  -4.507   0.914  0.00  0.00    +0.268 A 
ATOM      7  O   UNL     1      -0.690  -5.354   0.781  0.00  0.00    -0.266 OA
ATOM      8  C   UNL     1       1.536  -4.729   0.409  0.00  0.00    +0.081 A 
ATOM      9  C   UNL     1       2.052  -5.807  -0.237  0.00  0.00    +0.028 C 
ATOM     10  S   UNL     1       2.329  -3.199   0.875  0.00  0.00    -0.046 S 
ATOM     11  C   UNL     1       0.924  -2.420   1.647  0.00  0.00    +0.178 A 
ATOM     12  N   UNL     1       0.784  -1.250   2.217  0.00  0.00    -0.228 NA
ENDROOT
BRANCH   9  13
ATOM     13  C   UNL     1       3.504  -5.931  -0.415  0.00  0.00    -0.020 A 
ATOM     14  C   UNL     1       4.370  -5.052   0.248  0.00  0.00    +0.012 A 
ATOM     15  C   UNL     1       5.732  -5.171   0.080  0.00  0.00    +0.051 A 
ATOM     16  C   UNL     1       6.250  -6.159  -0.747  0.00  0.00    +0.173 A 
ATOM     17  C   UNL     1       5.394  -7.038  -1.411  0.00  0.00    +0.163 A 
ATOM     18  C   UNL     1       4.028  -6.931  -1.243  0.00  0.00    +0.057 A 
BRANCH  17  19
ATOM     19  O   UNL     1       5.906  -8.003  -2.220  0.00  0.00    -0.491 OA
ATOM     20  C   UNL     1       4.972  -8.868  -2.869  0.00  0.00    +0.277 C 
ENDBRANCH  17  19
BRANCH  16  21
ATOM     21  O   UNL     1       7.594  -6.271  -0.909  0.00  0.00    -0.422 OA
BRANCH  21  22
ATOM     22  C   UNL     1       8.153  -5.667  -1.970  0.00  0.00    +0.309 C 
ATOM     23  O   UNL     1       7.456  -5.109  -2.784  0.00  0.00    -0.251 OA
ATOM     24  C   UNL     1       9.650  -5.685  -2.145  0.00  0.00    +0.136 C 
ENDBRANCH  21  22
ENDBRANCH  16  21
ENDBRANCH   9  13
BRANCH   4  25
ATOM     25  C   UNL     1      -1.793  -3.957   3.133  0.00  0.00    -0.020 A 
ATOM     26  C   UNL     1      -0.875  -4.366   4.082  0.00  0.00    +0.009 A 
ATOM     27  C   UNL     1      -1.232  -5.305   5.030  0.00  0.00    +0.047 A 
ATOM     28  C   UNL     1      -2.513  -5.836   5.030  0.00  0.00    +0.132 A 
ATOM     29  C   UNL     1      -3.433  -5.423   4.077  0.00  0.00    +0.047 A 
ATOM     30  C   UNL     1      -3.072  -4.481   3.134  0.00  0.00    +0.009 A 
BRANCH  28  31
ATOM     31  O   UNL     1      -2.867  -6.760   5.962  0.00  0.00    -0.426 OA
BRANCH  31  32
ATOM     32  C   UNL     1      -3.144  -6.330   7.203  0.00  0.00    +0.309 C 
ATOM     33  O   UNL     1      -3.114  -5.148   7.453  0.00  0.00    -0.251 OA
ATOM     34  C   UNL     1      -3.492  -7.320   8.284  0.00  0.00    +0.136 C 
ENDBRANCH  31  32
ENDBRANCH  28  31
ENDBRANCH   4  25
BRANCH   3  35
ATOM     35  C   UNL     1      -2.670  -1.101   3.312  0.00  0.00    +0.340 C 
ATOM     36  O   UNL     1      -2.709   0.002   3.828  0.00  0.00    -0.245 OA
BRANCH  35  37
ATOM     37  O   UNL     1      -3.777  -1.874   3.285  0.00  0.00    -0.457 OA
BRANCH  37  38
ATOM     38  C   UNL     1      -4.959  -1.336   3.881  0.00  0.00    +0.259 C 
BRANCH  38  39
ATOM     39  C   UNL     1      -6.083  -2.332   3.757  0.00  0.00    +0.006 C 
ATOM     40  C   UNL     1      -6.856  -2.579   4.786  0.00  0.00    +0.007 C 
ENDBRANCH  38  39
ENDBRANCH  37  38
ENDBRANCH  35  37
ENDBRANCH   3  35
TORSDOF 11
