REMARK  Name = ZINC08020391
REMARK  5 active torsions:
REMARK  status: ('A' for Active; 'I' for Inactive)
REMARK    1  A    between atoms: C_1  and  C_2
REMARK    2  A    between atoms: C_2  and  O_3
REMARK    3  A    between atoms: O_3  and  C_4
REMARK    4  A    between atoms: C_4  and  C_6
REMARK    5  A    between atoms: C_8  and  C_22
REMARK                            x       y       z     vdW  Elec       q    Type
REMARK                         _______ _______ _______ _____ _____    ______ ____
ROOT
ATOM      1  C   UNL     1      -0.887   1.682  -3.629  0.00  0.00    +0.195 C 
ATOM      2  C   UNL     1      -0.116   1.151  -4.839  0.00  0.00    +0.080 C 
ATOM      3  C   UNL     1      -0.601   1.844  -6.084  0.00  0.00    +0.066 A 
ATOM      4  C   UNL     1      -0.639   1.168  -7.306  0.00  0.00    +0.258 A 
ATOM      5  O   UNL     1      -0.281   0.003  -7.386  0.00  0.00    -0.267 OA
ATOM      6  N   UNL     1      -1.082   1.829  -8.398  0.00  0.00    -0.295 N 
ATOM      7  H   UNL     1      -1.118   1.365  -9.283  0.00  0.00    +0.172 HD
ATOM      8  C   UNL     1      -1.479   3.127  -8.294  0.00  0.00    +0.195 A 
ATOM      9  N   UNL     1      -1.444   3.767  -7.144  0.00  0.00    -0.201 NA
ATOM     10  C   UNL     1      -1.015   3.164  -6.030  0.00  0.00    +0.137 A 
ATOM     11  N   UNL     1      -0.984   3.850  -4.829  0.00  0.00    -0.269 N 
ATOM     12  C   UNL     1      -0.913   3.186  -3.661  0.00  0.00    +0.233 C 
ATOM     13  O   UNL     1      -0.871   3.808  -2.620  0.00  0.00    -0.275 OA
ATOM     14  N   UNL     1      -1.925   3.781  -9.411  0.00  0.00    -0.329 N 
ATOM     15  H   UNL     1      -1.014   4.820  -4.829  0.00  0.00    +0.156 HD
ATOM     16  H   UNL     1      -2.210   4.706  -9.350  0.00  0.00    +0.145 HD
ATOM     17  H   UNL     1      -1.955   3.320 -10.264  0.00  0.00    +0.145 HD
ENDROOT
BRANCH   2  18
ATOM     18  C   UNL     1       1.355   1.419  -4.655  0.00  0.00    -0.038 A 
ATOM     19  C   UNL     1       1.809   2.718  -4.519  0.00  0.00    +0.007 A 
ATOM     20  C   UNL     1       3.158   2.964  -4.345  0.00  0.00    +0.038 A 
ATOM     21  C   UNL     1       4.056   1.911  -4.317  0.00  0.00    +0.123 A 
ATOM     22  C   UNL     1       3.600   0.611  -4.459  0.00  0.00    +0.038 A 
ATOM     23  C   UNL     1       2.251   0.366  -4.628  0.00  0.00    +0.007 A 
ATOM     24  F   UNL     1       5.375   2.151  -4.152  0.00  0.00    -0.205 F 
ENDBRANCH   2  18
BRANCH   1  25
ATOM     25  C   UNL     1      -0.211   1.220  -2.363  0.00  0.00    +0.320 C 
ATOM     26  O   UNL     1       0.783   0.536  -2.424  0.00  0.00    -0.250 OA
BRANCH  25  27
ATOM     27  O   UNL     1      -0.715   1.567  -1.168  0.00  0.00    -0.464 OA
BRANCH  27  29
ATOM     28  C   UNL     1      -0.729   1.579   1.267  0.00  0.00    +0.048 C 
ATOM     29  C   UNL     1      -0.013   1.086   0.008  0.00  0.00    +0.229 C 
ENDBRANCH  27  29
ENDBRANCH  25  27
ENDBRANCH   1  25
TORSDOF 4
