REMARK  Name = ZINC58282093
REMARK  9 active torsions:
REMARK  status: ('A' for Active; 'I' for Inactive)
REMARK    1  A    between atoms: C_1  and  C_2
REMARK    2  A    between atoms: C_2  and  C_4
REMARK    3  A    between atoms: C_2  and  O_15
REMARK    4  A    between atoms: N_6  and  C_7
REMARK    5  A    between atoms: N_12  and  C_14
REMARK    6  A    between atoms: O_15  and  C_16
REMARK    7  A    between atoms: C_20  and  C_22
REMARK    8  A    between atoms: C_22  and  C_23
REMARK    9  A    between atoms: C_22  and  C_24
REMARK                            x       y       z     vdW  Elec       q    Type
REMARK                         _______ _______ _______ _____ _____    ______ ____
ROOT
ATOM      1  C   UNL     1       0.109   1.528  -0.021  0.00  0.00    +0.062 C 
ATOM      2  C   UNL     1       0.139  -0.001  -0.074  0.00  0.00    +0.256 C 
ENDROOT
BRANCH   2   3
ATOM      3  C   UNL     1       0.857  -0.532   1.139  0.00  0.00    +0.258 C 
ATOM      4  O   UNL     1       0.255  -1.194   1.958  0.00  0.00    -0.271 OA
ATOM      5  N   UNL     1       2.168  -0.272   1.315  0.00  0.00    -0.281 N 
ATOM      6  H   UNL     1       2.631   0.319   0.701  0.00  0.00    +0.155 HD
BRANCH   5   7
ATOM      7  C   UNL     1       2.862  -0.857   2.385  0.00  0.00    +0.050 A 
ATOM      8  C   UNL     1       2.916  -2.257   2.510  0.00  0.00    +0.030 A 
ATOM      9  C   UNL     1       3.595  -2.807   3.557  0.00  0.00    +0.072 A 
ATOM     10  C   UNL     1       4.228  -1.964   4.487  0.00  0.00    +0.251 A 
ATOM     11  O   UNL     1       4.839  -2.446   5.428  0.00  0.00    -0.268 OA
ATOM     12  N   UNL     1       4.161  -0.627   4.344  0.00  0.00    -0.316 N 
ATOM     13  C   UNL     1       3.489  -0.072   3.300  0.00  0.00    +0.112 A 
ATOM     14  C   UNL     1       4.825   0.239   5.321  0.00  0.00    +0.152 C 
ENDBRANCH   5   7
ENDBRANCH   2   3
BRANCH   2  15
ATOM     15  O   UNL     1      -1.199  -0.503  -0.095  0.00  0.00    -0.480 OA
BRANCH  15  16
ATOM     16  C   UNL     1      -1.812  -0.576  -1.305  0.00  0.00    +0.122 A 
ATOM     17  C   UNL     1      -1.184  -0.069  -2.434  0.00  0.00    +0.046 A 
ATOM     18  C   UNL     1      -1.810  -0.145  -3.663  0.00  0.00    +0.004 A 
ATOM     19  C   UNL     1      -3.060  -0.726  -3.770  0.00  0.00    +0.004 A 
ATOM     20  C   UNL     1      -3.688  -1.232  -2.646  0.00  0.00    -0.041 A 
ATOM     21  C   UNL     1      -3.064  -1.163  -1.415  0.00  0.00    +0.049 A 
BRANCH  20  22
ATOM     22  C   UNL     1      -5.050  -1.864  -2.766  0.00  0.00    +0.013 C 
ATOM     23  C   UNL     1      -6.043  -0.836  -3.313  0.00  0.00    +0.012 C 
ATOM     24  C   UNL     1      -4.977  -3.059  -3.718  0.00  0.00    +0.012 C 
ENDBRANCH  20  22
ENDBRANCH  15  16
ENDBRANCH   2  15
TORSDOF 5
