REMARK  Name = ZINC39715960
REMARK  4 active torsions:
REMARK  status: ('A' for Active; 'I' for Inactive)
REMARK    1  A    between atoms: C_1  and  C_2
REMARK    2  A    between atoms: C_8  and  C_18
REMARK    3  A    between atoms: C_10  and  C_16
REMARK    4  A    between atoms: C_11  and  N_15
REMARK                            x       y       z     vdW  Elec       q    Type
REMARK                         _______ _______ _______ _____ _____    ______ ____
ROOT
ATOM      1  C   UNL     1      -0.018   1.503   0.010  0.00  0.00    +0.085 C 
ATOM      2  C   UNL     1       0.002  -0.004   0.002  0.00  0.00    +0.123 C 
ATOM      3  N   UNL     1       0.004  -0.599  -1.163  0.00  0.00    -0.165 NA
ATOM      4  C   UNL     1       0.005  -1.933  -1.289  0.00  0.00    +0.251 C 
ATOM      5  O   UNL     1       0.024  -2.470  -2.378  0.00  0.00    -0.273 OA
ATOM      6  C   UNL     1      -0.018  -2.743  -0.004  0.00  0.00    +0.175 C 
ATOM      7  C   UNL     1       1.259  -3.588   0.018  0.00  0.00    +0.085 C 
ATOM      8  C   UNL     1       1.457  -4.176   1.388  0.00  0.00    +0.095 C 
ATOM      9  C   UNL     1       0.885  -3.659   2.497  0.00  0.00    +0.200 C 
ATOM     10  O   UNL     1       0.075  -2.575   2.446  0.00  0.00    -0.426 OA
ATOM     11  C   UNL     1       0.005  -1.922   1.277  0.00  0.00    +0.212 C 
ATOM     12  N   UNL     1       0.022  -0.621   1.179  0.00  0.00    -0.204 NA
ENDROOT
BRANCH   7  13
ATOM     13  C   UNL     1       2.441  -2.719  -0.329  0.00  0.00    -0.035 A 
ATOM     14  C   UNL     1       2.752  -1.629   0.463  0.00  0.00    +0.004 A 
ATOM     15  C   UNL     1       3.836  -0.831   0.147  0.00  0.00    +0.003 A 
ATOM     16  C   UNL     1       4.608  -1.121  -0.962  0.00  0.00    +0.038 A 
ATOM     17  C   UNL     1       4.297  -2.212  -1.755  0.00  0.00    +0.124 A 
ATOM     18  C   UNL     1       3.215  -3.014  -1.434  0.00  0.00    +0.042 A 
ATOM     19  F   UNL     1       5.051  -2.497  -2.840  0.00  0.00    -0.205 F 
ENDBRANCH   7  13
BRANCH   9  20
ATOM     20  N   UNL     1       1.133  -4.249   3.711  0.00  0.00    -0.328 N 
ATOM     21  H   UNL     1       1.711  -5.026   3.764  0.00  0.00    +0.145 HD
ATOM     22  H   UNL     1       0.729  -3.889   4.517  0.00  0.00    +0.145 HD
ENDBRANCH   9  20
BRANCH   8  23
ATOM     23  C   UNL     1       2.287  -5.335   1.522  0.00  0.00    +0.100 C 
ATOM     24  N   UNL     1       2.945  -6.254   1.629  0.00  0.00    -0.191 NA
ENDBRANCH   8  23
TORSDOF 3
