REMARK  Name = ZINC66619879
REMARK  9 active torsions:
REMARK  status: ('A' for Active; 'I' for Inactive)
REMARK    1  A    between atoms: C_1  and  C_2
REMARK    2  A    between atoms: C_2  and  C_4
REMARK    3  A    between atoms: C_2  and  C_24
REMARK    4  A    between atoms: C_4  and  C_5
REMARK    5  A    between atoms: N_7  and  C_8
REMARK    6  A    between atoms: C_16  and  C_21
REMARK    7  A    between atoms: C_24  and  C_25
REMARK    8  A    between atoms: C_24  and  C_26
REMARK    9  A    between atoms: C_24  and  C_27
REMARK                            x       y       z     vdW  Elec       q    Type
REMARK                         _______ _______ _______ _____ _____    ______ ____
ROOT
ATOM      1  C   UNL     1       4.459   0.006   2.070  0.00  0.00    +0.105 C 
ATOM      2  C   UNL     1       5.024   0.094   3.486  0.00  0.00    +0.027 C 
ATOM      3  C   UNL     1       6.543   0.279   3.384  0.00  0.00    +0.008 C 
ATOM      4  C   UNL     1       7.149  -1.019   2.858  0.00  0.00    +0.054 C 
ATOM      5  C   UNL     1       6.439  -1.471   1.606  0.00  0.00    +0.024 A 
ATOM      6  C   UNL     1       5.217  -1.009   1.255  0.00  0.00    -0.007 A 
ATOM      7  C   UNL     1       4.604  -1.478   0.085  0.00  0.00    +0.025 A 
ATOM      8  C   UNL     1       5.260  -2.413  -0.709  0.00  0.00    +0.101 A 
ATOM      9  C   UNL     1       6.543  -2.863  -0.303  0.00  0.00    +0.261 A 
ATOM     10  O   UNL     1       7.148  -3.679  -0.976  0.00  0.00    -0.267 OA
ATOM     11  N   UNL     1       7.085  -2.382   0.825  0.00  0.00    -0.325 N 
ATOM     12  H   UNL     1       7.964  -2.693   1.093  0.00  0.00    +0.169 HD
ENDROOT
BRANCH   8  13
ATOM     13  C   UNL     1       4.638  -2.923  -1.940  0.00  0.00    +0.247 C 
ATOM     14  O   UNL     1       3.496  -2.610  -2.219  0.00  0.00    -0.270 OA
ATOM     15  N   UNL     1       5.332  -3.737  -2.758  0.00  0.00    -0.325 N 
ATOM     16  H   UNL     1       6.215  -4.046  -2.500  0.00  0.00    +0.145 HD
ATOM     17  H   UNL     1       4.950  -4.015  -3.606  0.00  0.00    +0.145 HD
ENDBRANCH   8  13
BRANCH   1  20
ATOM     18  C   UNL     1       2.207  -0.044   1.140  0.00  0.00    +0.214 C 
ATOM     19  O   UNL     1       2.617   0.586   0.189  0.00  0.00    -0.276 OA
ATOM     20  N   UNL     1       3.048  -0.385   2.137  0.00  0.00    -0.308 N 
ATOM     21  H   UNL     1       2.720  -0.888   2.898  0.00  0.00    +0.149 HD
BRANCH  18  22
ATOM     22  C   UNL     1       0.756  -0.447   1.209  0.00  0.00    +0.099 C 
BRANCH  22  24
ATOM     23  C   UNL     1       0.023   1.590  -0.039  0.00  0.00    +0.008 C 
ATOM     24  C   UNL     1       0.027   0.060  -0.037  0.00  0.00    +0.000 C 
BRANCH  24  25
ATOM     25  C   UNL     1      -1.414  -0.453  -0.028  0.00  0.00    -0.035 C 
ATOM     26  C   UNL     1      -2.144   0.053  -1.274  0.00  0.00    +0.011 C 
ATOM     27  C   UNL     1      -1.411  -1.983  -0.026  0.00  0.00    +0.011 C 
ATOM     28  C   UNL     1      -2.130   0.056   1.224  0.00  0.00    +0.011 C 
ENDBRANCH  24  25
ENDBRANCH  22  24
ENDBRANCH  18  22
ENDBRANCH   1  20
TORSDOF 5
