REMARK  Name = ZINC35456435
REMARK  8 active torsions:
REMARK  status: ('A' for Active; 'I' for Inactive)
REMARK    1  A    between atoms: C_1  and  C_2
REMARK    2  A    between atoms: C_7  and  C_8
REMARK    3  A    between atoms: C_8  and  C_9
REMARK    4  A    between atoms: C_10  and  C_22
REMARK    5  A    between atoms: N_12  and  C_14
REMARK    6  A    between atoms: C_19  and  C_20
REMARK    7  A    between atoms: N_26  and  C_30
REMARK    8  A    between atoms: C_30  and  C_31
REMARK                            x       y       z     vdW  Elec       q    Type
REMARK                         _______ _______ _______ _____ _____    ______ ____
ROOT
ATOM      1  C   UNL     1      -1.474   0.155   2.990  0.00  0.00    +0.079 A 
ATOM      2  C   UNL     1      -2.369   1.069   2.383  0.00  0.00    +0.066 A 
ATOM      3  C   UNL     1      -3.626   0.833   2.934  0.00  0.00    +0.281 A 
ATOM      4  N   UNL     1      -3.487  -0.173   3.825  0.00  0.00    -0.196 N 
ATOM      5  N   UNL     1      -2.147  -0.575   3.835  0.00  0.00    -0.167 NA
ATOM      6  O   UNL     1      -4.772   1.488   2.633  0.00  0.00    -0.265 OA
ENDROOT
BRANCH   2   7
ATOM      7  C   UNL     1      -2.036   2.072   1.369  0.00  0.00    +0.043 C 
ATOM      8  C   UNL     1      -2.688   2.074   0.175  0.00  0.00    +0.099 C 
ATOM      9  C   UNL     1      -2.482   2.967  -0.910  0.00  0.00    +0.269 C 
ATOM     10  O   UNL     1      -1.683   3.886  -0.950  0.00  0.00    -0.268 OA
ATOM     11  N   UNL     1      -3.338   2.608  -1.886  0.00  0.00    -0.216 N 
ATOM     12  C   UNL     1      -4.063   1.551  -1.484  0.00  0.00    +0.313 C 
ATOM     13  O   UNL     1      -4.920   0.998  -2.147  0.00  0.00    -0.252 OA
ATOM     14  N   UNL     1      -3.696   1.190  -0.240  0.00  0.00    -0.265 N 
ATOM     15  H   UNL     1      -4.063   0.455   0.276  0.00  0.00    +0.157 HD
BRANCH  11  16
ATOM     16  C   UNL     1      -3.460   3.269  -3.188  0.00  0.00    +0.156 C 
BRANCH  16  17
ATOM     17  C   UNL     1      -2.521   2.619  -4.171  0.00  0.00    +0.008 A 
ATOM     18  C   UNL     1      -1.305   3.210  -4.458  0.00  0.00    +0.046 A 
ATOM     19  C   UNL     1      -0.442   2.613  -5.361  0.00  0.00    +0.124 A 
ATOM     20  C   UNL     1      -0.797   1.424  -5.976  0.00  0.00    +0.041 A 
ATOM     21  C   UNL     1      -2.012   0.834  -5.689  0.00  0.00    +0.041 A 
ATOM     22  C   UNL     1      -2.873   1.428  -4.782  0.00  0.00    +0.128 A 
ATOM     23  F   UNL     1      -4.060   0.848  -4.497  0.00  0.00    -0.205 F 
ATOM     24  F   UNL     1       0.747   3.191  -5.643  0.00  0.00    -0.205 F 
ENDBRANCH  16  17
ENDBRANCH  11  16
ENDBRANCH   2   7
BRANCH   4  25
ATOM     25  C   UNL     1      -4.513  -0.723   4.605  0.00  0.00    +0.072 A 
ATOM     26  C   UNL     1      -5.378   0.108   5.304  0.00  0.00    +0.028 A 
ATOM     27  C   UNL     1      -6.388  -0.437   6.072  0.00  0.00    +0.002 A 
ATOM     28  C   UNL     1      -6.537  -1.810   6.146  0.00  0.00    +0.000 A 
ATOM     29  C   UNL     1      -5.678  -2.641   5.452  0.00  0.00    +0.005 A 
ATOM     30  C   UNL     1      -4.670  -2.101   4.676  0.00  0.00    -0.025 A 
ATOM     31  C   UNL     1      -3.737  -3.006   3.914  0.00  0.00    +0.046 C 
ENDBRANCH   4  25
BRANCH   1  32
ATOM     32  C   UNL     1       0.002   0.041   2.704  0.00  0.00    +0.093 C 
BRANCH  32  39
ATOM     33  C   UNL     1       0.143  -2.825   3.043  0.00  0.00    +0.044 C 
ATOM     34  C   UNL     1       0.281  -2.221   1.669  0.00  0.00    -0.047 A 
ATOM     35  C   UNL     1       0.470  -3.039   0.570  0.00  0.00    +0.003 A 
ATOM     36  C   UNL     1       0.597  -2.485  -0.690  0.00  0.00    +0.000 A 
ATOM     37  C   UNL     1       0.534  -1.113  -0.851  0.00  0.00    +0.000 A 
ATOM     38  C   UNL     1       0.344  -0.296   0.247  0.00  0.00    +0.004 A 
ATOM     39  C   UNL     1       0.214  -0.850   1.507  0.00  0.00    -0.039 A 
ENDBRANCH  32  39
ENDBRANCH   1  32
TORSDOF 6
