REMARK  Name = ZINC05390811
REMARK  4 active torsions:
REMARK  status: ('A' for Active; 'I' for Inactive)
REMARK    1  A    between atoms: C_3  and  N_19
REMARK    2  A    between atoms: C_6  and  C_7
REMARK    3  A    between atoms: C_8  and  C_9
REMARK    4  A    between atoms: C_13  and  N_18
REMARK                            x       y       z     vdW  Elec       q    Type
REMARK                         _______ _______ _______ _____ _____    ______ ____
ROOT
ATOM      1  C   UNL     1      -3.293   2.454   0.030  0.00  0.00    +0.221 A 
ATOM      2  N   UNL     1      -2.543   3.532   0.044  0.00  0.00    -0.209 NA
ATOM      3  C   UNL     1      -1.240   3.157   0.030  0.00  0.00    +0.112 A 
ATOM      4  C   UNL     1      -0.034   3.865   0.022  0.00  0.00    +0.054 A 
ATOM      5  C   UNL     1       1.164   3.175   0.007  0.00  0.00    +0.027 A 
ATOM      6  C   UNL     1       1.172   1.782   0.000  0.00  0.00    +0.026 A 
ATOM      7  C   UNL     1      -0.013   1.076   0.008  0.00  0.00    +0.050 A 
ATOM      8  C   UNL     1      -1.222   1.752   0.017  0.00  0.00    +0.156 A 
ATOM      9  O   UNL     1      -2.515   1.353   0.021  0.00  0.00    -0.436 OA
ENDROOT
BRANCH   5  10
ATOM     10  N   UNL     1       2.373   3.879   0.000  0.00  0.00    -0.358 N 
ATOM     11  H   UNL     1       3.215   3.397  -0.010  0.00  0.00    +0.142 HD
ATOM     12  H   UNL     1       2.369   4.849   0.005  0.00  0.00    +0.142 HD
ENDBRANCH   5  10
BRANCH   1  14
ATOM     13  C   UNL     1      -5.427   1.277   0.032  0.00  0.00    +0.013 C 
ATOM     14  C   UNL     1      -4.757   2.448   0.035  0.00  0.00    +0.068 C 
BRANCH  13  20
ATOM     15  C   UNL     1      -7.604   2.479   0.052  0.00  0.00    +0.010 A 
ATOM     16  C   UNL     1      -8.980   2.470   0.052  0.00  0.00    +0.023 A 
ATOM     17  C   UNL     1      -9.669   1.260   0.048  0.00  0.00    +0.025 A 
ATOM     18  C   UNL     1      -8.971   0.057   0.040  0.00  0.00    +0.023 A 
ATOM     19  C   UNL     1      -7.594   0.058   0.034  0.00  0.00    +0.010 A 
ATOM     20  C   UNL     1      -6.897   1.272   0.038  0.00  0.00    -0.025 A 
BRANCH  17  21
ATOM     21  N   UNL     1     -11.063   1.255   0.053  0.00  0.00    -0.358 N 
ATOM     22  H   UNL     1     -11.544   0.413   0.050  0.00  0.00    +0.142 HD
ATOM     23  H   UNL     1     -11.551   2.093   0.058  0.00  0.00    +0.142 HD
ENDBRANCH  17  21
ENDBRANCH  13  20
ENDBRANCH   1  14
TORSDOF 4
