REMARK  Name = ZINC59054943
REMARK  4 active torsions:
REMARK  status: ('A' for Active; 'I' for Inactive)
REMARK    1  A    between atoms: C_1  and  C_2
REMARK    2  A    between atoms: C_7  and  N_8
REMARK    3  A    between atoms: C_9  and  C_11
REMARK    4  A    between atoms: C_12  and  C_20
REMARK                            x       y       z     vdW  Elec       q    Type
REMARK                         _______ _______ _______ _____ _____    ______ ____
ROOT
ATOM      1  N   UNL     1       0.024   0.029   2.389  0.00  0.00    -0.277 N 
ATOM      2  C   UNL     1      -0.356  -0.581   3.529  0.00  0.00    +0.284 C 
ATOM      3  O   UNL     1      -0.613  -1.770   3.525  0.00  0.00    -0.266 OA
ATOM      4  H   UNL     1       0.299   0.960   2.405  0.00  0.00    +0.155 HD
ENDROOT
BRANCH   1  11
ATOM      5  C   UNL     1      -2.223   0.267   0.739  0.00  0.00    +0.046 C 
ATOM      6  C   UNL     1      -1.048  -0.593   0.349  0.00  0.00    -0.027 A 
ATOM      7  C   UNL     1      -1.079  -1.280  -0.862  0.00  0.00    +0.007 A 
ATOM      8  C   UNL     1      -0.049  -2.065  -1.258  0.00  0.00    +0.031 A 
ATOM      9  C   UNL     1       1.102  -2.207  -0.436  0.00  0.00    +0.102 A 
ATOM     10  C   UNL     1       1.140  -1.490   0.833  0.00  0.00    +0.121 A 
ATOM     11  C   UNL     1       0.022  -0.676   1.185  0.00  0.00    +0.065 A 
ATOM     12  N   UNL     1       2.264  -1.697   1.519  0.00  0.00    -0.189 NA
ATOM     13  S   UNL     1       3.146  -2.696   0.618  0.00  0.00    +0.117 S 
ATOM     14  N   UNL     1       2.200  -2.930  -0.662  0.00  0.00    -0.191 NA
ENDBRANCH   1  11
BRANCH   2  15
ATOM     15  C   UNL     1      -0.460   0.189   4.775  0.00  0.00    +0.194 A 
ATOM     16  C   UNL     1      -0.826  -0.320   5.980  0.00  0.00    +0.008 A 
ATOM     17  C   UNL     1      -0.789   0.800   6.921  0.00  0.00    +0.024 A 
ATOM     18  C   UNL     1      -1.054   0.934   8.286  0.00  0.00    +0.012 A 
ATOM     19  C   UNL     1      -0.922   2.155   8.884  0.00  0.00    +0.001 A 
ATOM     20  C   UNL     1      -0.528   3.262   8.145  0.00  0.00    +0.004 A 
ATOM     21  C   UNL     1      -0.262   3.151   6.798  0.00  0.00    +0.047 A 
ATOM     22  C   UNL     1      -0.389   1.919   6.166  0.00  0.00    +0.136 A 
ATOM     23  O   UNL     1      -0.200   1.508   4.897  0.00  0.00    -0.450 OA
ATOM     24  C   UNL     1      -1.197  -1.748   6.286  0.00  0.00    +0.048 C 
ENDBRANCH   2  15
TORSDOF 2
