REMARK  Name = ZINC37083741
REMARK  5 active torsions:
REMARK  status: ('A' for Active; 'I' for Inactive)
REMARK    1  A    between atoms: C_1  and  C_2
REMARK    2  A    between atoms: C_2  and  C_3
REMARK    3  A    between atoms: C_10  and  C_12
REMARK    4  A    between atoms: C_12  and  C_13
REMARK    5  A    between atoms: N_14  and  O_15
REMARK                            x       y       z     vdW  Elec       q    Type
REMARK                         _______ _______ _______ _____ _____    ______ ____
ROOT
ATOM      1  C   UNL     1      -1.467  -0.426  -0.023  0.00  0.00    +0.076 C 
ATOM      2  C   UNL     1      -1.574  -1.954  -0.076  0.00  0.00    +0.022 C 
ATOM      3  C   UNL     1      -3.045  -2.362   0.032  0.00  0.00    +0.003 C 
ATOM      4  C   UNL     1      -3.613  -1.884   1.370  0.00  0.00    +0.019 C 
ATOM      5  C   UNL     1      -3.529  -0.356   1.440  0.00  0.00    +0.108 C 
ATOM      6  N   UNL     1      -2.140   0.056   1.191  0.00  0.00    -0.298 N 
ATOM      7  C   UNL     1      -1.495   0.857   2.061  0.00  0.00    +0.223 C 
ATOM      8  O   UNL     1      -0.384   1.266   1.800  0.00  0.00    -0.275 OA
ENDROOT
BRANCH   1  10
ATOM      9  C   UNL     1       0.714  -0.556  -1.234  0.00  0.00    +0.006 C 
ATOM     10  C   UNL     1       0.006  -0.016   0.010  0.00  0.00    +0.019 C 
ENDBRANCH   1  10
BRANCH   7  11
ATOM     11  C   UNL     1      -2.155   1.246   3.360  0.00  0.00    +0.170 C 
BRANCH  11  12
ATOM     12  C   UNL     1      -1.230   2.140   4.145  0.00  0.00    +0.140 C 
ATOM     13  N   UNL     1      -0.072   2.452   3.666  0.00  0.00    -0.076 NA
ATOM     14  N   UNL     1      -1.620   2.624   5.374  0.00  0.00    -0.344 N 
ATOM     15  H   UNL     1      -2.490   2.389   5.734  0.00  0.00    +0.144 HD
ATOM     16  H   UNL     1      -1.025   3.199   5.880  0.00  0.00    +0.144 HD
BRANCH  13  17
ATOM     17  O   UNL     1       0.797   3.292   4.404  0.00  0.00    -0.408 OA
ATOM     18  H   UNL     1       1.640   3.469   3.965  0.00  0.00    +0.328 HD
ENDBRANCH  13  17
ENDBRANCH  11  12
ENDBRANCH   7  11
TORSDOF 4
