REMARK  Name = ZINC02867316
REMARK  6 active torsions:
REMARK  status: ('A' for Active; 'I' for Inactive)
REMARK    1  A    between atoms: C_1  and  C_2
REMARK    2  A    between atoms: C_2  and  C_3
REMARK    3  A    between atoms: C_3  and  S_4
REMARK    4  A    between atoms: S_4  and  C_5
REMARK    5  A    between atoms: C_8  and  O_9
REMARK    6  A    between atoms: C_19  and  C_21
REMARK                            x       y       z     vdW  Elec       q    Type
REMARK                         _______ _______ _______ _____ _____    ______ ____
ROOT
ATOM      1  C   UNL     1      -0.872   2.177   3.837  0.00  0.00    +0.193 A 
ATOM      2  N   UNL     1      -0.544   1.829   5.116  0.00  0.00    -0.187 NA
ATOM      3  C   UNL     1      -1.293   2.224   6.162  0.00  0.00    +0.225 A 
ATOM      4  C   UNL     1      -2.448   3.034   5.923  0.00  0.00    +0.073 A 
ATOM      5  C   UNL     1      -3.393   3.578   6.901  0.00  0.00    -0.020 A 
ATOM      6  C   UNL     1      -4.418   4.310   6.420  0.00  0.00    -0.004 A 
ATOM      7  S   UNL     1      -4.195   4.314   4.661  0.00  0.00    -0.073 S 
ATOM      8  C   UNL     1      -2.715   3.337   4.577  0.00  0.00    +0.117 A 
ATOM      9  N   UNL     1      -1.937   2.912   3.589  0.00  0.00    -0.214 NA
ATOM     10  C   UNL     1      -5.510   4.969   7.205  0.00  0.00    +0.043 C 
ATOM     11  C   UNL     1      -5.509   4.381   8.623  0.00  0.00    +0.006 C 
ATOM     12  C   UNL     1      -4.072   4.379   9.153  0.00  0.00    +0.008 C 
ATOM     13  C   UNL     1      -3.243   3.337   8.400  0.00  0.00    +0.018 C 
ATOM     14  C   UNL     1      -1.771   3.471   8.796  0.00  0.00    +0.012 C 
ENDROOT
BRANCH   3  16
ATOM     15  H   UNL     1      -1.647   2.289   7.942  0.00  0.00    +0.294 HD
ATOM     16  O   UNL     1      -0.981   1.911   7.298  0.00  0.00    -0.492 OA
ENDBRANCH   3  16
BRANCH   1  17
ATOM     17  S   UNL     1       0.141   1.636   2.502  0.00  0.00    -0.086 S 
BRANCH  17  18
ATOM     18  C   UNL     1      -0.766   2.353   1.109  0.00  0.00    +0.077 C 
BRANCH  18  20
ATOM     19  C   UNL     1      -0.818   2.610  -1.376  0.00  0.00    +0.004 C 
ATOM     20  C   UNL     1      -0.051   2.004  -0.199  0.00  0.00    +0.008 C 
ENDBRANCH  18  20
ENDBRANCH  17  18
ENDBRANCH   1  17
TORSDOF 4
