REMARK  Name = ZINC36156040
REMARK  12 active torsions:
REMARK  status: ('A' for Active; 'I' for Inactive)
REMARK    1  A    between atoms: C_3  and  C_6
REMARK    2  A    between atoms: C_6  and  O_7
REMARK    3  A    between atoms: O_7  and  C_8
REMARK    4  A    between atoms: C_8  and  C_9
REMARK    5  A    between atoms: C_9  and  C_11
REMARK    6  A    between atoms: C_9  and  O_37
REMARK    7  A    between atoms: C_11  and  N_12
REMARK    8  A    between atoms: N_12  and  C_13
REMARK    9  A    between atoms: N_12  and  C_21
REMARK   10  A    between atoms: C_13  and  C_14
REMARK   11  A    between atoms: C_14  and  N_15
REMARK   12  A    between atoms: C_21  and  C_22
REMARK                            x       y       z     vdW  Elec       q    Type
REMARK                         _______ _______ _______ _____ _____    ______ ____
ROOT
ATOM      1  N   UNL     1       7.919   0.577   4.573  0.00  0.00    +0.387 N 
ATOM      2  H   UNL     1       7.179   1.256   4.681  0.00  0.00    -0.081 HD
ENDROOT
BRANCH   1   3
ATOM      3  C   UNL     1       7.868   0.011   3.218  0.00  0.00    -0.044 C 
BRANCH   3   4
ATOM      4  C   UNL     1       6.469  -0.547   2.950  0.00  0.00    +0.124 C 
BRANCH   4   5
ATOM      5  O   UNL     1       6.242  -1.684   3.784  0.00  0.00    -0.391 OA
ATOM      6  H   UNL     1       6.869  -2.407   3.644  0.00  0.00    +0.210 HD
ENDBRANCH   4   5
BRANCH   4   7
ATOM      7  C   UNL     1       6.358  -0.961   1.481  0.00  0.00    +0.189 C 
BRANCH   7   8
ATOM      8  O   UNL     1       5.019  -1.373   1.203  0.00  0.00    -0.370 OA
BRANCH   8   9
ATOM      9  C   UNL     1       4.806  -1.783  -0.150  0.00  0.00    +0.234 C 
BRANCH   9  12
ATOM     10  C   UNL     1       1.190  -2.179  -0.740  0.00  0.00    +0.041 A 
ATOM     11  C   UNL     1       2.357  -1.383  -0.694  0.00  0.00    +0.047 A 
ATOM     12  C   UNL     1       3.367  -2.194  -0.330  0.00  0.00    +0.130 A 
ATOM     13  O   UNL     1       2.876  -3.432  -0.155  0.00  0.00    -0.465 OA
ATOM     14  C   UNL     1       1.556  -3.429  -0.402  0.00  0.00    +0.195 A 
ENDBRANCH   9  12
ENDBRANCH   8   9
ENDBRANCH   7   8
ENDBRANCH   4   7
ENDBRANCH   3   4
ENDBRANCH   1   3
BRANCH   1  15
ATOM     15  C   UNL     1       7.746  -0.498   5.559  0.00  0.00    -0.063 C 
BRANCH  15  16
ATOM     16  C   UNL     1       8.771  -1.602   5.295  0.00  0.00    +0.066 C 
BRANCH  16  17
ATOM     17  N   UNL     1       8.529  -2.725   6.211  0.00  0.00    -0.300 NA
ATOM     18  C   UNL     1       8.795  -2.336   7.603  0.00  0.00    +0.112 C 
ATOM     19  C   UNL     1       8.473  -3.513   8.527  0.00  0.00    +0.175 C 
ATOM     20  O   UNL     1       9.242  -4.651   8.126  0.00  0.00    -0.377 OA
ATOM     21  C   UNL     1       9.007  -5.058   6.775  0.00  0.00    +0.175 C 
ATOM     22  C   UNL     1       9.334  -3.895   5.834  0.00  0.00    +0.112 C 
ENDBRANCH  16  17
ENDBRANCH  15  16
ENDBRANCH   1  15
BRANCH   1  23
ATOM     23  C   UNL     1       9.217   1.230   4.783  0.00  0.00    -0.003 C 
BRANCH  23  24
ATOM     24  C   UNL     1       9.210   1.950   6.107  0.00  0.00    +0.094 A 
ATOM     25  N   UNL     1      10.335   2.582   6.529  0.00  0.00    -0.312 N 
ATOM     26  H   UNL     1      11.129   2.562   5.972  0.00  0.00    +0.170 HD
ATOM     27  C   UNL     1      10.371   3.237   7.704  0.00  0.00    +0.260 A 
ATOM     28  O   UNL     1      11.389   3.800   8.069  0.00  0.00    -0.267 OA
ATOM     29  C   UNL     1       9.193   3.261   8.521  0.00  0.00    +0.075 A 
ATOM     30  C   UNL     1       9.002   3.901   9.821  0.00  0.00    -0.023 A 
ATOM     31  C   UNL     1       7.785   3.778  10.391  0.00  0.00    -0.004 A 
ATOM     32  S   UNL     1       6.836   2.815   9.244  0.00  0.00    -0.073 S 
ATOM     33  C   UNL     1       8.081   2.580   8.001  0.00  0.00    +0.116 A 
ATOM     34  N   UNL     1       8.119   1.959   6.826  0.00  0.00    -0.229 NA
ATOM     35  C   UNL     1       7.339   4.335  11.709  0.00  0.00    +0.043 C 
ATOM     36  C   UNL     1       8.583   4.760  12.501  0.00  0.00    +0.005 C 
ATOM     37  C   UNL     1       9.492   5.583  11.583  0.00  0.00    +0.005 C 
ATOM     38  C   UNL     1      10.115   4.678  10.520  0.00  0.00    +0.037 C 
ENDBRANCH  23  24
ENDBRANCH   1  23
TORSDOF 12
