REMARK  Name = ZINC43553758
REMARK  13 active torsions:
REMARK  status: ('A' for Active; 'I' for Inactive)
REMARK    1  A    between atoms: C_1  and  C_2
REMARK    2  A    between atoms: C_2  and  N_3
REMARK    3  A    between atoms: C_4  and  O_6
REMARK    4  A    between atoms: O_6  and  C_7
REMARK    5  A    between atoms: C_11  and  C_36
REMARK    6  A    between atoms: C_14  and  C_15
REMARK    7  A    between atoms: C_14  and  C_16
REMARK    8  A    between atoms: C_16  and  O_17
REMARK    9  A    between atoms: C_20  and  O_35
REMARK   10  A    between atoms: C_22  and  C_24
REMARK   11  A    between atoms: C_24  and  C_25
REMARK   12  A    between atoms: C_31  and  C_33
REMARK   13  A    between atoms: C_33  and  O_34
REMARK                            x       y       z     vdW  Elec       q    Type
REMARK                         _______ _______ _______ _____ _____    ______ ____
ROOT
ATOM      1  C   UNL     1      -3.212  -3.796   0.002  0.00  0.00    +0.186 C 
ATOM      2  C   UNL     1      -3.275  -4.297  -1.433  0.00  0.00    +0.046 C 
ATOM      3  C   UNL     1      -4.541  -3.780  -2.120  0.00  0.00    +0.011 C 
ATOM      4  C   UNL     1      -5.774  -4.292  -1.383  0.00  0.00    -0.023 C 
ATOM      5  C   UNL     1      -5.753  -3.812   0.066  0.00  0.00    +0.007 C 
ATOM      6  C   UNL     1      -4.462  -4.144   0.801  0.00  0.00    +0.031 C 
ATOM      7  C   UNL     1      -4.409  -5.618   1.227  0.00  0.00    +0.017 C 
ATOM      8  C   UNL     1      -6.000  -2.300   0.116  0.00  0.00    +0.007 C 
ATOM      9  C   UNL     1      -7.337  -1.943  -0.538  0.00  0.00    +0.032 C 
ATOM     10  C   UNL     1      -7.308  -2.359  -2.007  0.00  0.00    +0.119 C 
ATOM     11  C   UNL     1      -7.061  -3.856  -2.087  0.00  0.00    +0.032 C 
ATOM     12  C   UNL     1      -5.789  -5.832  -1.455  0.00  0.00    +0.012 C 
ENDROOT
BRANCH  10  13
ATOM     13  O   UNL     1      -6.314  -1.627  -2.716  0.00  0.00    -0.391 OA
ATOM     14  H   UNL     1      -6.448  -0.669  -2.704  0.00  0.00    +0.210 HD
ENDBRANCH  10  13
BRANCH   1  15
ATOM     15  O   UNL     1      -3.004  -2.380   0.014  0.00  0.00    -0.446 OA
BRANCH  15  17
ATOM     16  N   UNL     1      -1.463  -0.628  -0.010  0.00  0.00    -0.281 N 
ATOM     17  C   UNL     1      -1.728  -1.950  -0.019  0.00  0.00    +0.401 C 
ATOM     18  O   UNL     1      -0.817  -2.752  -0.056  0.00  0.00    -0.226 OA
ATOM     19  H   UNL     1      -2.190   0.012   0.020  0.00  0.00    +0.152 HD
BRANCH  16  21
ATOM     20  C   UNL     1      -0.052   1.370  -0.026  0.00  0.00    +0.024 C 
ATOM     21  C   UNL     1      -0.075  -0.160  -0.045  0.00  0.00    +0.104 C 
ENDBRANCH  16  21
ENDBRANCH  15  17
ENDBRANCH   1  15
BRANCH   6  22
ATOM     22  C   UNL     1      -4.393  -3.339   2.120  0.00  0.00    +0.166 C 
BRANCH  22  23
ATOM     23  O   UNL     1      -3.214  -3.705   2.840  0.00  0.00    -0.394 OA
ATOM     24  H   UNL     1      -3.105  -3.238   3.680  0.00  0.00    +0.209 HD
ENDBRANCH  22  23
ENDBRANCH   6  22
BRANCH  11  25
ATOM     25  C   UNL     1      -7.056  -4.314  -3.547  0.00  0.00    +0.102 C 
BRANCH  25  26
ATOM     26  C   UNL     1      -8.382  -3.981  -4.182  0.00  0.00    +0.216 C 
ATOM     27  O   UNL     1      -9.245  -3.432  -3.531  0.00  0.00    -0.276 OA
ATOM     28  N   UNL     1      -8.607  -4.293  -5.473  0.00  0.00    -0.296 N 
ATOM     29  C   UNL     1      -7.652  -4.964  -6.375  0.00  0.00    +0.108 C 
ATOM     30  C   UNL     1      -8.091  -4.545  -7.800  0.00  0.00    +0.021 C 
ATOM     31  C   UNL     1      -9.636  -4.530  -7.659  0.00  0.00    +0.026 C 
ATOM     32  C   UNL     1      -9.849  -4.028  -6.215  0.00  0.00    +0.101 C 
BRANCH  32  33
ATOM     33  C   UNL     1     -11.013  -4.779  -5.566  0.00  0.00    +0.178 C 
BRANCH  33  34
ATOM     34  O   UNL     1     -10.799  -6.186  -5.688  0.00  0.00    -0.393 OA
ATOM     35  H   UNL     1     -11.500  -6.726  -5.298  0.00  0.00    +0.209 HD
ENDBRANCH  33  34
ENDBRANCH  32  33
ENDBRANCH  25  26
ENDBRANCH  11  25
TORSDOF 10
