REMARK  Name = ZINC67324669
REMARK  7 active torsions:
REMARK  status: ('A' for Active; 'I' for Inactive)
REMARK    1  A    between atoms: C_1  and  C_2
REMARK    2  A    between atoms: C_2  and  C_4
REMARK    3  A    between atoms: C_2  and  N_12
REMARK    4  A    between atoms: N_15  and  C_16
REMARK    5  A    between atoms: C_20  and  N_22
REMARK    6  A    between atoms: C_23  and  O_25
REMARK    7  A    between atoms: O_25  and  C_26
REMARK                            x       y       z     vdW  Elec       q    Type
REMARK                         _______ _______ _______ _____ _____    ______ ____
ROOT
ATOM      1  N   UNL     1       0.672  -0.507  -1.227  0.00  0.00    -0.293 N 
ATOM      2  C   UNL     1       2.016  -0.608  -1.237  0.00  0.00    +0.304 C 
ATOM      3  O   UNL     1       2.654  -0.311  -0.245  0.00  0.00    -0.252 OA
ATOM      4  N   UNL     1       2.651  -1.038  -2.344  0.00  0.00    -0.269 N 
ATOM      5  H   UNL     1       0.162  -0.744  -2.018  0.00  0.00    +0.151 HD
ATOM      6  H   UNL     1       2.140  -1.337  -3.112  0.00  0.00    +0.156 HD
ENDROOT
BRANCH   4   7
ATOM      7  C   UNL     1       4.051  -1.052  -2.387  0.00  0.00    +0.037 A 
ATOM      8  C   UNL     1       4.778  -1.353  -1.243  0.00  0.00    +0.026 A 
ATOM      9  C   UNL     1       6.160  -1.367  -1.283  0.00  0.00    +0.042 A 
ATOM     10  C   UNL     1       6.822  -1.083  -2.464  0.00  0.00    +0.145 A 
ATOM     11  C   UNL     1       6.099  -0.781  -3.612  0.00  0.00    +0.073 A 
ATOM     12  C   UNL     1       4.712  -0.772  -3.575  0.00  0.00    +0.049 A 
ATOM     13  F   UNL     1       8.173  -1.098  -2.501  0.00  0.00    -0.204 F 
BRANCH  11  14
ATOM     14  N   UNL     1       6.770  -0.492  -4.808  0.00  0.00    -0.248 N 
ATOM     15  C   UNL     1       6.258   0.413  -5.666  0.00  0.00    +0.404 C 
ATOM     16  O   UNL     1       5.176   0.917  -5.443  0.00  0.00    -0.226 OA
ATOM     17  H   UNL     1       7.602  -0.944  -5.018  0.00  0.00    +0.158 HD
BRANCH  15  18
ATOM     18  O   UNL     1       6.948   0.758  -6.770  0.00  0.00    -0.453 OA
ATOM     19  C   UNL     1       6.346   1.723  -7.635  0.00  0.00    +0.282 C 
ENDBRANCH  15  18
ENDBRANCH  11  14
ENDBRANCH   4   7
BRANCH   1  21
ATOM     20  C   UNL     1      -0.051   1.490  -0.014  0.00  0.00    +0.033 C 
ATOM     21  C   UNL     1      -0.020  -0.040  -0.023  0.00  0.00    +0.102 C 
BRANCH  21  22
ATOM     22  C   UNL     1      -1.430  -0.572  -0.015  0.00  0.00    -0.026 A 
ATOM     23  C   UNL     1      -2.156  -0.620  -1.190  0.00  0.00    +0.008 A 
ATOM     24  C   UNL     1      -3.449  -1.108  -1.185  0.00  0.00    +0.040 A 
ATOM     25  C   UNL     1      -4.018  -1.549  -0.002  0.00  0.00    +0.142 A 
ATOM     26  C   UNL     1      -3.289  -1.500   1.175  0.00  0.00    +0.076 A 
ATOM     27  C   UNL     1      -1.993  -1.016   1.166  0.00  0.00    +0.028 A 
ATOM     28 CL   UNL     1      -3.999  -2.053   2.660  0.00  0.00    -0.081 Cl
ATOM     29  F   UNL     1      -5.282  -2.025   0.005  0.00  0.00    -0.204 F 
ENDBRANCH  21  22
ENDBRANCH   1  21
TORSDOF 5
