REMARK  Name = ZINC59087478
REMARK  14 active torsions:
REMARK  status: ('A' for Active; 'I' for Inactive)
REMARK    1  A    between atoms: C_1  and  C_2
REMARK    2  A    between atoms: C_2  and  O_3
REMARK    3  A    between atoms: O_3  and  C_4
REMARK    4  A    between atoms: C_9  and  C_10
REMARK    5  A    between atoms: C_10  and  N_11
REMARK    6  A    between atoms: N_11  and  C_12
REMARK    7  A    between atoms: N_11  and  C_22
REMARK    8  A    between atoms: C_14  and  C_20
REMARK    9  A    between atoms: C_14  and  C_21
REMARK   10  A    between atoms: C_16  and  C_18
REMARK   11  A    between atoms: C_16  and  C_19
REMARK   12  A    between atoms: C_22  and  N_24
REMARK   13  A    between atoms: N_24  and  C_25
REMARK   14  A    between atoms: C_30  and  C_31
REMARK                            x       y       z     vdW  Elec       q    Type
REMARK                         _______ _______ _______ _____ _____    ______ ____
ROOT
ATOM      1  N   UNL     1      -4.669  -0.443  -1.444  0.00  0.00    -0.305 N 
ENDROOT
BRANCH   1   2
ATOM      2  C   UNL     1      -5.338  -1.440  -2.289  0.00  0.00    +0.073 C 
ATOM      3  C   UNL     1      -6.207  -0.721  -3.322  0.00  0.00    +0.009 C 
ATOM      4  C   UNL     1      -6.901  -1.747  -4.218  0.00  0.00    -0.072 C 
ATOM      5  N   UNL     1      -5.956  -2.669  -4.829  0.00  0.00    +0.386 N 
ATOM      6  C   UNL     1      -4.942  -3.263  -3.973  0.00  0.00    -0.072 C 
ATOM      7  C   UNL     1      -4.283  -2.257  -3.035  0.00  0.00    +0.009 C 
ATOM      8  C   UNL     1      -3.832  -3.827  -4.892  0.00  0.00    -0.010 C 
ATOM      9  C   UNL     1      -5.498  -4.441  -3.169  0.00  0.00    -0.010 C 
ATOM     10  C   UNL     1      -7.995  -2.476  -3.438  0.00  0.00    -0.010 C 
ATOM     11  C   UNL     1      -7.595  -0.965  -5.357  0.00  0.00    -0.010 C 
ATOM     12  H   UNL     1      -6.485  -3.424  -5.273  0.00  0.00    -0.084 HD
ATOM     13  H   UNL     1      -5.486  -2.184  -5.597  0.00  0.00    -0.084 HD
ENDBRANCH   1   2
BRANCH   1  14
ATOM     14  C   UNL     1      -3.888   0.501  -2.005  0.00  0.00    +0.138 C 
ATOM     15  S   UNL     1      -3.246   1.764  -1.044  0.00  0.00    -0.018 S 
BRANCH  14  16
ATOM     16  N   UNL     1      -3.613   0.452  -3.324  0.00  0.00    -0.297 N 
ATOM     17  H   UNL     1      -4.039  -0.216  -3.883  0.00  0.00    +0.154 HD
BRANCH  16  18
ATOM     18  C   UNL     1      -2.714   1.365  -3.885  0.00  0.00    +0.036 A 
ATOM     19  C   UNL     1      -1.652   1.849  -3.132  0.00  0.00    +0.023 A 
ATOM     20  C   UNL     1      -0.766   2.749  -3.690  0.00  0.00    +0.002 A 
ATOM     21  C   UNL     1      -0.935   3.170  -4.997  0.00  0.00    +0.000 A 
ATOM     22  C   UNL     1      -1.992   2.690  -5.749  0.00  0.00    +0.005 A 
ATOM     23  C   UNL     1      -2.878   1.785  -5.199  0.00  0.00    -0.029 A 
ATOM     24  C   UNL     1      -4.026   1.258  -6.021  0.00  0.00    +0.045 C 
ENDBRANCH  16  18
ENDBRANCH  14  16
ENDBRANCH   1  14
BRANCH   1  25
ATOM     25  C   UNL     1      -4.850  -0.474   0.010  0.00  0.00    +0.145 C 
BRANCH  25  31
ATOM     26  C   UNL     1      -2.650  -1.234   0.942  0.00  0.00    +0.125 A 
ATOM     27  C   UNL     1      -1.835  -2.213   1.494  0.00  0.00    +0.046 A 
ATOM     28  C   UNL     1      -2.330  -3.486   1.700  0.00  0.00    +0.004 A 
ATOM     29  C   UNL     1      -3.636  -3.785   1.358  0.00  0.00    +0.001 A 
ATOM     30  C   UNL     1      -4.449  -2.812   0.807  0.00  0.00    +0.009 A 
ATOM     31  C   UNL     1      -3.961  -1.536   0.604  0.00  0.00    +0.011 A 
BRANCH  26  32
ATOM     32  O   UNL     1      -2.166   0.019   0.738  0.00  0.00    -0.492 OA
BRANCH  32  34
ATOM     33  C   UNL     1      -0.444   1.713   0.808  0.00  0.00    +0.048 C 
ATOM     34  C   UNL     1      -0.807   0.258   1.109  0.00  0.00    +0.225 C 
ENDBRANCH  32  34
ENDBRANCH  26  32
ENDBRANCH  25  31
ENDBRANCH   1  25
TORSDOF 8
