REMARK  Name = ZINC35203456
REMARK  5 active torsions:
REMARK  status: ('A' for Active; 'I' for Inactive)
REMARK    1  A    between atoms: C_1  and  C_2
REMARK    2  A    between atoms: C_2  and  C_4
REMARK    3  A    between atoms: C_2  and  O_15
REMARK    4  A    between atoms: C_4  and  N_5
REMARK    5  A    between atoms: C_6  and  C_8
REMARK                            x       y       z     vdW  Elec       q    Type
REMARK                         _______ _______ _______ _____ _____    ______ ____
ROOT
ATOM      1  N   UNL     1       0.762  -1.976   1.234  0.00  0.00    -0.313 N 
ATOM      2  C   UNL     1       1.364  -2.647   2.235  0.00  0.00    +0.216 C 
ATOM      3  O   UNL     1       1.890  -2.038   3.143  0.00  0.00    -0.276 OA
ATOM      4  H   UNL     1       0.342  -2.462   0.507  0.00  0.00    +0.149 HD
ENDROOT
BRANCH   2   5
ATOM      5  C   UNL     1       1.385  -4.154   2.227  0.00  0.00    +0.079 C 
ATOM      6  C   UNL     1       2.117  -4.667   3.473  0.00  0.00    +0.017 C 
ATOM      7  C   UNL     1       2.279  -6.183   3.350  0.00  0.00    +0.027 C 
ATOM      8  C   UNL     1       0.966  -6.816   2.993  0.00  0.00    -0.031 C 
ATOM      9  C   UNL     1      -0.045  -6.166   2.512  0.00  0.00    -0.030 C 
ATOM     10  C   UNL     1      -0.049  -4.688   2.248  0.00  0.00    +0.039 C 
ENDBRANCH   2   5
BRANCH   1  11
ATOM     11  C   UNL     1       0.742  -0.511   1.242  0.00  0.00    +0.135 C 
BRANCH  11  13
ATOM     12  C   UNL     1      -0.019   1.526   0.010  0.00  0.00    +0.039 C 
ATOM     13  C   UNL     1       0.002  -0.004   0.002  0.00  0.00    +0.128 C 
BRANCH  13  14
ATOM     14  O   UNL     1       0.671  -0.465  -1.174  0.00  0.00    -0.391 OA
ATOM     15  H   UNL     1       1.588  -0.167  -1.247  0.00  0.00    +0.210 HD
ENDBRANCH  13  14
ENDBRANCH  11  13
ENDBRANCH   1  11
TORSDOF 4
