REMARK  Name = ZINC39030426
REMARK  10 active torsions:
REMARK  status: ('A' for Active; 'I' for Inactive)
REMARK    1  A    between atoms: C_1  and  C_2
REMARK    2  A    between atoms: C_2  and  C_4
REMARK    3  A    between atoms: C_2  and  N_21
REMARK    4  A    between atoms: C_22  and  C_24
REMARK    5  A    between atoms: C_26  and  O_34
REMARK    6  A    between atoms: C_27  and  O_32
REMARK    7  A    between atoms: C_28  and  O_30
REMARK    8  A    between atoms: O_30  and  C_31
REMARK    9  A    between atoms: O_32  and  C_33
REMARK   10  A    between atoms: O_34  and  C_35
REMARK                            x       y       z     vdW  Elec       q    Type
REMARK                         _______ _______ _______ _____ _____    ______ ____
ROOT
ATOM      1  C   UNL     1       0.139   1.519   0.084  0.00  0.00    +0.038 C 
ATOM      2  C   UNL     1       0.002  -0.003   0.002  0.00  0.00    +0.156 C 
ENDROOT
BRANCH   2   3
ATOM      3  C   UNL     1       0.597  -0.491  -1.294  0.00  0.00    +0.236 C 
ATOM      4  O   UNL     1      -0.128  -0.785  -2.221  0.00  0.00    -0.274 OA
ATOM      5  N   UNL     1       1.934  -0.601  -1.423  0.00  0.00    -0.300 N 
ATOM      6  C   UNL     1       2.819  -0.361  -0.274  0.00  0.00    +0.106 C 
ATOM      7  C   UNL     1       3.733  -1.577  -0.094  0.00  0.00    +0.009 C 
ATOM      8  C   UNL     1       4.466  -1.859  -1.407  0.00  0.00    -0.037 C 
ATOM      9  C   UNL     1       3.453  -2.172  -2.508  0.00  0.00    +0.009 C 
ATOM     10  C   UNL     1       2.534  -0.969  -2.712  0.00  0.00    +0.106 C 
ATOM     11  C   UNL     1       5.412  -3.047  -1.222  0.00  0.00    +0.140 C 
ATOM     12  C   UNL     1       6.456  -2.588  -0.208  0.00  0.00    +0.042 C 
ATOM     13  N   UNL     1       6.424  -3.439   0.742  0.00  0.00    -0.243 NA
ATOM     14  C   UNL     1       5.442  -4.356   0.560  0.00  0.00    +0.216 C 
ATOM     15  N   UNL     1       4.776  -4.188  -0.563  0.00  0.00    -0.264 NA
ATOM     16  C   UNL     1       7.199  -1.288  -0.380  0.00  0.00    +0.034 C 
ATOM     17  C   UNL     1       6.129  -0.227  -0.698  0.00  0.00    -0.076 C 
ATOM     18  N   UNL     1       5.264  -0.685  -1.788  0.00  0.00    +0.385 N 
ATOM     19  H   UNL     1       5.838  -0.923  -2.583  0.00  0.00    -0.085 HD
ATOM     20  H   UNL     1       4.641   0.065  -2.048  0.00  0.00    -0.085 HD
ENDBRANCH   2   3
BRANCH   2  21
ATOM     21  N   UNL     1      -1.415  -0.370   0.057  0.00  0.00    -0.300 N 
ATOM     22  C   UNL     1      -2.029  -0.508   1.249  0.00  0.00    +0.245 C 
ATOM     23  O   UNL     1      -1.407  -0.330   2.278  0.00  0.00    -0.270 OA
ATOM     24  H   UNL     1      -1.912  -0.512  -0.764  0.00  0.00    +0.150 HD
BRANCH  22  25
ATOM     25  C   UNL     1      -3.457  -0.878   1.304  0.00  0.00    +0.044 A 
ATOM     26  C   UNL     1      -4.172  -1.089   0.123  0.00  0.00    +0.062 A 
ATOM     27  C   UNL     1      -5.509  -1.435   0.178  0.00  0.00    +0.166 A 
ATOM     28  C   UNL     1      -6.144  -1.573   1.409  0.00  0.00    +0.204 A 
ATOM     29  C   UNL     1      -5.434  -1.362   2.589  0.00  0.00    +0.166 A 
ATOM     30  C   UNL     1      -4.095  -1.022   2.539  0.00  0.00    +0.062 A 
BRANCH  29  31
ATOM     31  O   UNL     1      -6.057  -1.497   3.790  0.00  0.00    -0.491 OA
ATOM     32  C   UNL     1      -5.268  -1.266   4.959  0.00  0.00    +0.277 C 
ENDBRANCH  29  31
BRANCH  28  33
ATOM     33  O   UNL     1      -7.458  -1.913   1.461  0.00  0.00    -0.488 OA
ATOM     34  C   UNL     1      -7.766  -3.308   1.513  0.00  0.00    +0.277 C 
ENDBRANCH  28  33
BRANCH  27  35
ATOM     35  O   UNL     1      -6.205  -1.641  -0.972  0.00  0.00    -0.491 OA
ATOM     36  C   UNL     1      -5.492  -1.483  -2.200  0.00  0.00    +0.277 C 
ENDBRANCH  27  35
ENDBRANCH  22  25
ENDBRANCH   2  21
TORSDOF 6
