REMARK  Name = ZINC50035290
REMARK  4 active torsions:
REMARK  status: ('A' for Active; 'I' for Inactive)
REMARK    1  A    between atoms: C_2  and  O_9
REMARK    2  A    between atoms: O_9  and  C_10
REMARK    3  A    between atoms: C_12  and  C_18
REMARK    4  A    between atoms: C_13  and  N_17
REMARK                            x       y       z     vdW  Elec       q    Type
REMARK                         _______ _______ _______ _____ _____    ______ ____
ROOT
ATOM      1  C   UNL     1       2.337   4.118   0.131  0.00  0.00    +0.164 A 
ATOM      2  C   UNL     1       3.505   3.382   0.092  0.00  0.00    +0.064 A 
ATOM      3  C   UNL     1       4.741   4.032   0.166  0.00  0.00    +0.061 A 
ATOM      4  C   UNL     1       4.785   5.431   0.279  0.00  0.00    +0.040 A 
ATOM      5  C   UNL     1       3.602   6.157   0.317  0.00  0.00    +0.065 A 
ATOM      6  C   UNL     1       2.386   5.505   0.238  0.00  0.00    +0.167 A 
ATOM      7  F   UNL     1       1.238   6.218   0.269  0.00  0.00    -0.202 F 
ENDROOT
BRANCH   3   8
ATOM      8  C   UNL     1       5.991   3.254   0.126  0.00  0.00    +0.243 C 
ATOM      9  O   UNL     1       7.059   3.808   0.302  0.00  0.00    -0.270 OA
ATOM     10  N   UNL     1       5.950   1.927  -0.105  0.00  0.00    -0.325 N 
ATOM     11  H   UNL     1       5.099   1.484  -0.246  0.00  0.00    +0.145 HD
ATOM     12  H   UNL     1       6.773   1.414  -0.132  0.00  0.00    +0.145 HD
ENDBRANCH   3   8
BRANCH   4  13
ATOM     13  N   UNL     1       6.009   6.087   0.354  0.00  0.00    -0.357 N 
ATOM     14  H   UNL     1       6.831   5.575   0.410  0.00  0.00    +0.142 HD
ATOM     15  H   UNL     1       6.040   7.056   0.350  0.00  0.00    +0.142 HD
ENDBRANCH   4  13
BRANCH   1  16
ATOM     16  O   UNL     1       1.135   3.485   0.058  0.00  0.00    -0.453 OA
BRANCH  16  18
ATOM     17  C   UNL     1       0.738   1.418  -1.051  0.00  0.00    +0.066 A 
ATOM     18  C   UNL     1       1.127   2.127   0.077  0.00  0.00    +0.131 A 
ATOM     19  C   UNL     1       1.508   1.446   1.225  0.00  0.00    +0.066 A 
ATOM     20  C   UNL     1       1.499   0.063   1.242  0.00  0.00    +0.046 A 
ATOM     21  C   UNL     1       1.111  -0.641   0.116  0.00  0.00    +0.040 A 
ATOM     22  C   UNL     1       0.731   0.036  -1.029  0.00  0.00    +0.046 A 
ATOM     23 CL   UNL     1       0.245  -0.851  -2.440  0.00  0.00    -0.083 Cl
ATOM     24 CL   UNL     1       1.976  -0.789   2.677  0.00  0.00    -0.083 Cl
ENDBRANCH  16  18
ENDBRANCH   1  16
TORSDOF 4
