REMARK  Name = ZINC08132297
REMARK  11 active torsions:
REMARK  status: ('A' for Active; 'I' for Inactive)
REMARK    1  A    between atoms: C_1  and  N_2
REMARK    2  A    between atoms: C_3  and  N_22
REMARK    3  A    between atoms: C_4  and  C_14
REMARK    4  A    between atoms: N_7  and  C_8
REMARK    5  A    between atoms: C_14  and  C_16
REMARK    6  A    between atoms: C_16  and  C_17
REMARK    7  A    between atoms: C_17  and  C_18
REMARK    8  A    between atoms: C_18  and  C_19
REMARK    9  A    between atoms: C_19  and  C_20
REMARK   10  A    between atoms: C_20  and  C_21
REMARK   11  A    between atoms: C_21  and  N_47
REMARK                            x       y       z     vdW  Elec       q    Type
REMARK                         _______ _______ _______ _____ _____    ______ ____
ROOT
ATOM      1  C   UNL     1      -3.706  -4.864  -0.544  0.00  0.00    +0.173 C 
ATOM      2  N   UNL     1      -2.672  -3.870  -0.244  0.00  0.00    -0.266 N 
ATOM      3  C   UNL     1      -2.856  -2.524  -0.252  0.00  0.00    +0.127 A 
ATOM      4  C   UNL     1      -1.632  -1.919   0.082  0.00  0.00    +0.122 A 
ATOM      5  C   UNL     1      -0.680  -3.014   0.306  0.00  0.00    +0.284 A 
ATOM      6  O   UNL     1       0.491  -2.903   0.619  0.00  0.00    -0.265 OA
ATOM      7  N   UNL     1      -1.350  -4.165   0.099  0.00  0.00    -0.215 N 
ENDROOT
BRANCH   7   8
ATOM      8  C   UNL     1      -0.808  -5.449   0.209  0.00  0.00    +0.067 A 
ATOM      9  C   UNL     1      -1.480  -6.429   0.928  0.00  0.00    +0.028 A 
ATOM     10  C   UNL     1      -0.945  -7.698   1.031  0.00  0.00    +0.002 A 
ATOM     11  C   UNL     1       0.265  -7.990   0.429  0.00  0.00    +0.000 A 
ATOM     12  C   UNL     1       0.940  -7.016  -0.283  0.00  0.00    +0.002 A 
ATOM     13  C   UNL     1       0.407  -5.747  -0.395  0.00  0.00    +0.028 A 
ENDBRANCH   7   8
BRANCH   3  14
ATOM     14  N   UNL     1      -4.019  -1.876  -0.535  0.00  0.00    -0.343 N 
ATOM     15  H   UNL     1      -4.051  -0.907  -0.516  0.00  0.00    +0.144 HD
ATOM     16  H   UNL     1      -4.816  -2.384  -0.754  0.00  0.00    +0.144 HD
ENDBRANCH   3  14
BRANCH   4  17
ATOM     17  C   UNL     1      -1.373  -0.539   0.187  0.00  0.00    +0.172 C 
ATOM     18  O   UNL     1      -2.260   0.264  -0.027  0.00  0.00    -0.292 OA
BRANCH  17  19
ATOM     19  C   UNL     1       0.005  -0.058   0.564  0.00  0.00    +0.080 C 
BRANCH  19  20
ATOM     20  C   UNL     1       0.016   1.472   0.607  0.00  0.00    +0.008 C 
BRANCH  20  21
ATOM     21  C   UNL     1       1.415   1.960   0.989  0.00  0.00    +0.000 C 
BRANCH  21  22
ATOM     22  C   UNL     1       1.427   3.490   1.032  0.00  0.00    -0.002 C 
BRANCH  22  23
ATOM     23  C   UNL     1       2.825   3.978   1.415  0.00  0.00    -0.020 C 
BRANCH  23  24
ATOM     24  C   UNL     1       2.837   5.508   1.458  0.00  0.00    -0.086 C 
BRANCH  24  27
ATOM     25  H   UNL     1       4.875   5.614   1.191  0.00  0.00    -0.090 HD
ATOM     26  H   UNL     1       4.213   6.985   1.860  0.00  0.00    -0.090 HD
ATOM     27  N   UNL     1       4.182   5.967   1.848  0.00  0.00    +0.378 N 
ATOM     28  H   UNL     1       4.399   5.614   2.787  0.00  0.00    -0.090 HD
ENDBRANCH  24  27
ENDBRANCH  23  24
ENDBRANCH  22  23
ENDBRANCH  21  22
ENDBRANCH  20  21
ENDBRANCH  19  20
ENDBRANCH  17  19
ENDBRANCH   4  17
TORSDOF 10
