REMARK  Name = ZINC20262883
REMARK  5 active torsions:
REMARK  status: ('A' for Active; 'I' for Inactive)
REMARK    1  A    between atoms: C_1  and  C_2
REMARK    2  A    between atoms: N_8  and  S_9
REMARK    3  A    between atoms: S_9  and  C_12
REMARK    4  A    between atoms: C_14  and  N_23
REMARK    5  A    between atoms: C_17  and  N_18
REMARK                            x       y       z     vdW  Elec       q    Type
REMARK                         _______ _______ _______ _____ _____    ______ ____
ROOT
ATOM      1  C   UNL     1       3.008  -1.424  -4.048  0.00  0.00    +0.128 A 
ATOM      2  C   UNL     1       4.114  -0.930  -4.711  0.00  0.00    +0.053 A 
ATOM      3  C   UNL     1       4.347  -1.285  -6.033  0.00  0.00    +0.027 A 
ATOM      4  C   UNL     1       3.462  -2.129  -6.692  0.00  0.00    +0.024 A 
ATOM      5  C   UNL     1       2.353  -2.618  -6.030  0.00  0.00    +0.027 A 
ATOM      6  C   UNL     1       2.123  -2.267  -4.707  0.00  0.00    +0.056 A 
ENDROOT
BRANCH   6   7
ATOM      7  N   UNL     1       0.999  -2.763  -4.036  0.00  0.00    -0.328 N 
ATOM      8  C   UNL     1      -0.249  -2.426  -4.767  0.00  0.00    +0.105 C 
ATOM      9  C   UNL     1      -1.271  -3.453  -4.217  0.00  0.00    +0.020 C 
ATOM     10  C   UNL     1      -0.420  -4.733  -4.054  0.00  0.00    +0.020 C 
ATOM     11  C   UNL     1       1.035  -4.240  -3.961  0.00  0.00    +0.105 C 
ENDBRANCH   6   7
BRANCH   1  12
ATOM     12  S   UNL     1       2.716  -0.978  -2.369  0.00  0.00    +0.063 S 
ATOM     13  O   UNL     1       1.369  -0.530  -2.296  0.00  0.00    -0.153 OA
ATOM     14  O   UNL     1       3.811  -0.166  -1.968  0.00  0.00    -0.153 OA
BRANCH  12  21
ATOM     15  C   UNL     1       5.229  -2.100  -1.698  0.00  0.00    +0.026 C 
ATOM     16  C   UNL     1       4.099  -2.998  -1.192  0.00  0.00    +0.077 C 
ATOM     17  C   UNL     1       4.236  -3.194   0.321  0.00  0.00    +0.020 C 
ATOM     18  C   UNL     1       3.030  -3.978   0.842  0.00  0.00    +0.003 C 
ATOM     19  C   UNL     1       1.748  -3.186   0.572  0.00  0.00    +0.017 C 
ATOM     20  C   UNL     1       1.583  -2.991  -0.939  0.00  0.00    +0.110 C 
ATOM     21  N   UNL     1       2.802  -2.367  -1.471  0.00  0.00    -0.174 NA
ENDBRANCH  12  21
ENDBRANCH   1  12
BRANCH   3  22
ATOM     22  N   UNL     1       5.471  -0.789  -6.704  0.00  0.00    -0.358 N 
ATOM     23  H   UNL     1       5.655  -1.070  -7.752  0.00  0.00    +0.142 HD
ATOM     24  H   UNL     1       6.170  -0.117  -6.184  0.00  0.00    +0.142 HD
ENDBRANCH   3  22
TORSDOF 4
