REMARK  Name = ZINC53114546
REMARK  6 active torsions:
REMARK  status: ('A' for Active; 'I' for Inactive)
REMARK    1  A    between atoms: C_1  and  C_2
REMARK    2  A    between atoms: C_7  and  C_9
REMARK    3  A    between atoms: C_7  and  N_11
REMARK    4  A    between atoms: C_9  and  O_10
REMARK    5  A    between atoms: N_11  and  C_12
REMARK    6  A    between atoms: C_15  and  N_22
REMARK                            x       y       z     vdW  Elec       q    Type
REMARK                         _______ _______ _______ _____ _____    ______ ____
ROOT
ATOM      1  C   UNL     1       2.811  -2.192  -0.072  0.00  0.00    +0.054 A 
ATOM      2  C   UNL     1       3.507  -1.631   0.975  0.00  0.00    +0.027 A 
ATOM      3  C   UNL     1       4.867  -1.359   0.865  0.00  0.00    +0.025 A 
ATOM      4  C   UNL     1       5.551  -1.646  -0.296  0.00  0.00    +0.034 A 
ATOM      5  C   UNL     1       4.865  -2.222  -1.385  0.00  0.00    +0.023 A 
ATOM      6  C   UNL     1       3.481  -2.504  -1.273  0.00  0.00    +0.093 A 
ATOM      7  N   UNL     1       2.829  -3.054  -2.302  0.00  0.00    -0.253 NA
ATOM      8  C   UNL     1       3.445  -3.346  -3.422  0.00  0.00    +0.111 A 
ATOM      9  C   UNL     1       4.805  -3.100  -3.595  0.00  0.00    +0.020 A 
ATOM     10  C   UNL     1       5.528  -2.528  -2.586  0.00  0.00    +0.013 A 
ENDROOT
BRANCH   4  11
ATOM     11  N   UNL     1       6.916  -1.368  -0.395  0.00  0.00    -0.357 N 
ATOM     12  H   UNL     1       7.386  -0.972   0.356  0.00  0.00    +0.142 HD
ATOM     13  H   UNL     1       7.395  -1.571  -1.214  0.00  0.00    +0.142 HD
ENDBRANCH   4  11
BRANCH   1  14
ATOM     14  N   UNL     1       1.443  -2.458   0.057  0.00  0.00    -0.334 N 
ATOM     15  H   UNL     1       0.958  -2.869  -0.675  0.00  0.00    +0.147 HD
BRANCH  14  21
ATOM     16  C   UNL     1       0.378   1.662   0.653  0.00  0.00    +0.007 C 
ATOM     17  C   UNL     1       0.250   0.159   0.394  0.00  0.00    -0.012 C 
ATOM     18  C   UNL     1      -1.228  -0.213   0.266  0.00  0.00    +0.003 C 
ATOM     19  C   UNL     1      -1.356  -1.715   0.007  0.00  0.00    +0.002 C 
ATOM     20  C   UNL     1      -0.734  -2.488   1.171  0.00  0.00    +0.028 C 
ATOM     21  C   UNL     1       0.745  -2.116   1.299  0.00  0.00    +0.055 C 
ATOM     22  C   UNL     1       0.872  -0.614   1.558  0.00  0.00    +0.031 C 
BRANCH  21  23
ATOM     23  C   UNL     1       1.367  -2.889   2.464  0.00  0.00    +0.181 C 
BRANCH  23  24
ATOM     24  O   UNL     1       1.217  -4.293   2.238  0.00  0.00    -0.393 OA
ATOM     25  H   UNL     1       1.589  -4.846   2.938  0.00  0.00    +0.209 HD
ENDBRANCH  23  24
ENDBRANCH  21  23
ENDBRANCH  14  21
ENDBRANCH   1  14
TORSDOF 5
