REMARK  Name = ZINC08006881
REMARK  3 active torsions:
REMARK  status: ('A' for Active; 'I' for Inactive)
REMARK    1  A    between atoms: C_3  and  O_9
REMARK    2  A    between atoms: O_9  and  C_10
REMARK    3  A    between atoms: C_10  and  C_11
REMARK                            x       y       z     vdW  Elec       q    Type
REMARK                         _______ _______ _______ _____ _____    ______ ____
ROOT
ATOM      1  C   UNL     1      -3.683  -0.962   0.013  0.00  0.00    +0.173 A 
ATOM      2  N   UNL     1      -4.281  -1.233   1.159  0.00  0.00    -0.196 NA
ATOM      3  C   UNL     1      -5.507  -1.754   1.166  0.00  0.00    +0.217 A 
ATOM      4  N   UNL     1      -6.124  -2.009   0.018  0.00  0.00    -0.181 NA
ATOM      5  C   UNL     1      -5.517  -1.740  -1.133  0.00  0.00    +0.217 A 
ATOM      6  N   UNL     1      -4.294  -1.215  -1.131  0.00  0.00    -0.196 NA
ATOM      7  N   UNL     1      -6.154  -2.004  -2.328  0.00  0.00    -0.327 N 
ATOM      8  N   UNL     1      -6.133  -2.032   2.364  0.00  0.00    -0.327 N 
ATOM      9  H   UNL     1      -5.710  -1.807  -3.168  0.00  0.00    +0.145 HD
ATOM     10  H   UNL     1      -7.045  -2.387  -2.329  0.00  0.00    +0.145 HD
ATOM     11  H   UNL     1      -7.024  -2.414   2.368  0.00  0.00    +0.145 HD
ATOM     12  H   UNL     1      -5.681  -1.845   3.202  0.00  0.00    +0.145 HD
ENDROOT
BRANCH   1  13
ATOM     13  C   UNL     1      -2.298  -0.368   0.010  0.00  0.00    +0.305 C 
BRANCH  13  14
ATOM     14  O   UNL     1      -2.391   1.058   0.019  0.00  0.00    -0.483 OA
BRANCH  14  17
ATOM     15  C   UNL     1       1.175   1.783   0.000  0.00  0.00    +0.042 A 
ATOM     16  C   UNL     1      -0.013   1.076   0.008  0.00  0.00    +0.050 A 
ATOM     17  C   UNL     1      -1.222   1.753   0.017  0.00  0.00    +0.140 A 
ATOM     18  C   UNL     1      -1.239   3.141   0.030  0.00  0.00    +0.085 A 
ATOM     19  C   UNL     1      -0.050   3.846   0.023  0.00  0.00    +0.062 A 
ATOM     20  C   UNL     1       1.157   3.167   0.008  0.00  0.00    +0.125 A 
ATOM     21  F   UNL     1       2.318   3.857   0.000  0.00  0.00    -0.205 F 
ATOM     22 CL   UNL     1      -2.753   3.991   0.048  0.00  0.00    -0.080 Cl
ENDBRANCH  14  17
ENDBRANCH  13  14
ENDBRANCH   1  13
TORSDOF 3
