REMARK  Name = ZINC22215804
REMARK  4 active torsions:
REMARK  status: ('A' for Active; 'I' for Inactive)
REMARK    1  A    between atoms: C_1  and  C_2
REMARK    2  A    between atoms: C_2  and  C_3
REMARK    3  A    between atoms: C_6  and  C_9
REMARK    4  A    between atoms: N_16  and  C_19
REMARK                            x       y       z     vdW  Elec       q    Type
REMARK                         _______ _______ _______ _____ _____    ______ ____
ROOT
ATOM      1  C   UNL     1       2.255   4.307   0.004  0.00  0.00    +0.026 C 
ATOM      2  C   UNL     1       1.165   3.582   0.435  0.00  0.00    +0.102 C 
ATOM      3  C   UNL     1      -0.025   4.245   1.010  0.00  0.00    +0.274 C 
ATOM      4  O   UNL     1      -0.074   5.455   1.119  0.00  0.00    -0.268 OA
ATOM      5  N   UNL     1      -1.054   3.470   1.410  0.00  0.00    -0.153 NA
ATOM      6  C   UNL     1      -1.015   2.136   1.291  0.00  0.00    +0.171 C 
ATOM      7  S   UNL     1      -2.372   1.236   1.820  0.00  0.00    -0.016 S 
ATOM      8  N   UNL     1       0.031   1.467   0.786  0.00  0.00    -0.213 N 
ATOM      9  C   UNL     1       1.132   2.108   0.344  0.00  0.00    +0.262 C 
ATOM     10  O   UNL     1       2.073   1.489  -0.117  0.00  0.00    -0.269 OA
ENDROOT
BRANCH   8  11
ATOM     11  C   UNL     1      -0.024   0.068   0.710  0.00  0.00    +0.078 A 
ATOM     12  C   UNL     1       0.435  -0.705   1.768  0.00  0.00    +0.027 A 
ATOM     13  C   UNL     1       0.380  -2.083   1.691  0.00  0.00    +0.002 A 
ATOM     14  C   UNL     1      -0.132  -2.694   0.561  0.00  0.00    +0.003 A 
ATOM     15  C   UNL     1      -0.590  -1.929  -0.496  0.00  0.00    +0.040 A 
ATOM     16  C   UNL     1      -0.542  -0.549  -0.423  0.00  0.00    +0.145 A 
ATOM     17  F   UNL     1      -0.995   0.199  -1.453  0.00  0.00    -0.204 F 
ENDBRANCH   8  11
BRANCH   1  21
ATOM     18  C   UNL     1       2.012   8.527  -0.290  0.00  0.00    -0.048 A 
ATOM     19  C   UNL     1       3.119   7.941   0.301  0.00  0.00    +0.004 A 
ATOM     20  C   UNL     1       3.206   6.569   0.402  0.00  0.00    +0.008 A 
ATOM     21  C   UNL     1       2.171   5.767  -0.098  0.00  0.00    -0.024 A 
ATOM     22  C   UNL     1       1.058   6.369  -0.701  0.00  0.00    +0.008 A 
ATOM     23  C   UNL     1       0.985   7.742  -0.786  0.00  0.00    +0.004 A 
BRANCH  18  25
ATOM     24  C   UNL     1       2.555  10.485  -1.712  0.00  0.00    +0.009 C 
ATOM     25  C   UNL     1       1.926  10.028  -0.394  0.00  0.00    +0.032 C 
ENDBRANCH  18  25
ENDBRANCH   1  21
TORSDOF 3
