REMARK  Name = ZINC66929013
REMARK  4 active torsions:
REMARK  status: ('A' for Active; 'I' for Inactive)
REMARK    1  A    between atoms: C_10  and  C_11
REMARK    2  A    between atoms: C_10  and  O_25
REMARK    3  A    between atoms: C_11  and  N_12
REMARK    4  A    between atoms: C_13  and  C_15
REMARK                            x       y       z     vdW  Elec       q    Type
REMARK                         _______ _______ _______ _____ _____    ______ ____
ROOT
ATOM      1  N   UNL     1       4.733   1.477  -0.622  0.00  0.00    -0.308 N 
ATOM      2  C   UNL     1       5.418   2.343  -1.394  0.00  0.00    +0.248 C 
ATOM      3  O   UNL     1       5.985   1.948  -2.395  0.00  0.00    -0.270 OA
ATOM      4  H   UNL     1       4.281   1.792   0.177  0.00  0.00    +0.149 HD
ENDROOT
BRANCH   2   5
ATOM      5  C   UNL     1       5.481   3.770  -1.026  0.00  0.00    +0.082 A 
ATOM      6  C   UNL     1       4.835   4.227   0.127  0.00  0.00    +0.017 A 
ATOM      7  C   UNL     1       4.896   5.560   0.467  0.00  0.00    +0.005 A 
ATOM      8  C   UNL     1       5.593   6.454  -0.330  0.00  0.00    +0.049 A 
ATOM      9  C   UNL     1       6.238   6.017  -1.476  0.00  0.00    +0.163 A 
ATOM     10  C   UNL     1       6.192   4.673  -1.827  0.00  0.00    +0.174 A 
ATOM     11  O   UNL     1       6.828   4.221  -2.939  0.00  0.00    -0.484 OA
ATOM     12  C   UNL     1       7.209   5.205  -3.908  0.00  0.00    +0.270 C 
ATOM     13  C   UNL     1       7.871   6.375  -3.168  0.00  0.00    +0.270 C 
ATOM     14  O   UNL     1       6.913   6.914  -2.245  0.00  0.00    -0.485 OA
ENDBRANCH   2   5
BRANCH   1  15
ATOM     15  C   UNL     1       4.671   0.060  -0.987  0.00  0.00    +0.144 C 
BRANCH  15  25
ATOM     16  C   UNL     1       3.635  -4.797  -1.159  0.00  0.00    +0.000 A 
ATOM     17  C   UNL     1       3.604  -3.797  -2.113  0.00  0.00    +0.000 A 
ATOM     18  C   UNL     1       3.643  -2.475  -1.720  0.00  0.00    +0.007 A 
ATOM     19  C   UNL     1       3.714  -2.140  -0.374  0.00  0.00    -0.011 A 
ATOM     20  C   UNL     1       3.749  -3.136   0.575  0.00  0.00    -0.041 A 
ATOM     21  C   UNL     1       3.706  -4.467   0.178  0.00  0.00    +0.004 A 
ATOM     22  C   UNL     1       3.843  -2.847   2.051  0.00  0.00    +0.035 C 
ATOM     23  C   UNL     1       3.451  -1.399   2.340  0.00  0.00    +0.008 C 
ATOM     24  C   UNL     1       4.257  -0.485   1.410  0.00  0.00    +0.041 C 
ATOM     25  C   UNL     1       3.746  -0.677  -0.016  0.00  0.00    +0.107 C 
BRANCH  25  26
ATOM     26  O   UNL     1       2.427  -0.138  -0.121  0.00  0.00    -0.382 OA
ATOM     27  H   UNL     1       2.042  -0.209  -1.006  0.00  0.00    +0.211 HD
ENDBRANCH  25  26
ENDBRANCH  15  25
ENDBRANCH   1  15
TORSDOF 4
