REMARK  Name = ZINC12485479
REMARK  9 active torsions:
REMARK  status: ('A' for Active; 'I' for Inactive)
REMARK    1  A    between atoms: C_1  and  C_2
REMARK    2  A    between atoms: C_3  and  C_36
REMARK    3  A    between atoms: C_5  and  N_28
REMARK    4  A    between atoms: C_6  and  C_7
REMARK    5  A    between atoms: C_7  and  C_9
REMARK    6  A    between atoms: C_7  and  N_66
REMARK    7  A    between atoms: C_20  and  C_27
REMARK    8  A    between atoms: C_23  and  C_26
REMARK    9  A    between atoms: C_29  and  C_31
REMARK                            x       y       z     vdW  Elec       q    Type
REMARK                         _______ _______ _______ _____ _____    ______ ____
ROOT
ATOM      1  C   UNL     1      -0.126   5.590   0.028  0.00  0.00    -0.004 C 
ENDROOT
BRANCH   1   2
ATOM      2  C   UNL     1      -0.159   4.084  -0.003  0.00  0.00    -0.053 A 
ATOM      3  C   UNL     1      -1.371   3.420   0.019  0.00  0.00    +0.006 A 
ATOM      4  C   UNL     1      -1.405   2.038  -0.003  0.00  0.00    +0.049 A 
ATOM      5  C   UNL     1      -0.223   1.315  -0.058  0.00  0.00    +0.162 A 
ATOM      6  C   UNL     1       0.996   1.983  -0.082  0.00  0.00    +0.162 A 
ATOM      7  C   UNL     1       1.023   3.369  -0.053  0.00  0.00    +0.051 A 
ATOM      8  O   UNL     1       2.167   1.292  -0.135  0.00  0.00    -0.485 OA
ATOM      9  C   UNL     1       2.113  -0.095   0.215  0.00  0.00    +0.270 C 
ATOM     10  C   UNL     1       0.914  -0.725  -0.505  0.00  0.00    +0.270 C 
ATOM     11  O   UNL     1      -0.272  -0.045  -0.081  0.00  0.00    -0.485 OA
ENDBRANCH   1   2
BRANCH   1  19
ATOM     12  C   UNL     1      -1.285   7.554   0.841  0.00  0.00    -0.074 C 
ATOM     13  C   UNL     1      -2.524   8.028   1.604  0.00  0.00    -0.031 C 
ATOM     14  C   UNL     1      -2.451   7.527   3.049  0.00  0.00    +0.003 C 
ATOM     15  C   UNL     1      -2.340   6.000   3.047  0.00  0.00    -0.031 C 
ATOM     16  C   UNL     1      -1.106   5.584   2.242  0.00  0.00    -0.074 C 
ATOM     17  C   UNL     1      -3.593   5.397   2.408  0.00  0.00    +0.005 C 
ATOM     18  C   UNL     1      -2.575   9.557   1.596  0.00  0.00    +0.005 C 
ATOM     19  N   UNL     1      -1.250   6.076   0.855  0.00  0.00    +0.387 N 
ATOM     20  H   UNL     1      -2.130   5.718   0.464  0.00  0.00    -0.080 HD
ENDBRANCH   1  19
BRANCH   1  26
ATOM     21  C   UNL     1       2.183   6.594  -1.439  0.00  0.00    +0.045 C 
ATOM     22  C   UNL     1       0.814   6.602  -2.069  0.00  0.00    -0.037 A 
ATOM     23  C   UNL     1       0.640   7.072  -3.327  0.00  0.00    -0.008 A 
ATOM     24  S   UNL     1      -1.117   6.862  -3.564  0.00  0.00    -0.078 S 
ATOM     25  C   UNL     1      -1.504   6.154  -1.972  0.00  0.00    +0.074 A 
ATOM     26  C   UNL     1      -0.281   6.126  -1.372  0.00  0.00    -0.025 A 
ATOM     27  C   UNL     1       1.664   7.634  -4.279  0.00  0.00    +0.052 C 
BRANCH  25  28
ATOM     28  N   UNL     1      -2.739   5.738  -1.471  0.00  0.00    -0.273 N 
ATOM     29  C   UNL     1      -3.824   5.736  -2.271  0.00  0.00    +0.284 C 
ATOM     30  O   UNL     1      -3.728   6.097  -3.429  0.00  0.00    -0.266 OA
ATOM     31  H   UNL     1      -2.817   5.450  -0.548  0.00  0.00    +0.156 HD
BRANCH  29  32
ATOM     32  C   UNL     1      -5.121   5.298  -1.745  0.00  0.00    +0.189 A 
ATOM     33  C   UNL     1      -6.294   5.247  -2.443  0.00  0.00    +0.054 A 
ATOM     34  C   UNL     1      -7.272   4.772  -1.555  0.00  0.00    +0.042 A 
ATOM     35  C   UNL     1      -6.661   4.557  -0.369  0.00  0.00    +0.196 A 
ATOM     36  O   UNL     1      -5.364   4.870  -0.489  0.00  0.00    -0.458 OA
ENDBRANCH  29  32
ENDBRANCH  25  28
ENDBRANCH   1  26
TORSDOF 5
