REMARK  Name = ZINC01169026
REMARK  9 active torsions:
REMARK  status: ('A' for Active; 'I' for Inactive)
REMARK    1  A    between atoms: C_1  and  O_2
REMARK    2  A    between atoms: O_2  and  C_3
REMARK    3  A    between atoms: C_5  and  C_13
REMARK    4  A    between atoms: C_7  and  O_11
REMARK    5  A    between atoms: C_8  and  O_9
REMARK    6  A    between atoms: O_9  and  C_10
REMARK    7  A    between atoms: O_11  and  C_12
REMARK    8  A    between atoms: C_25  and  S_28
REMARK    9  A    between atoms: S_28  and  C_29
REMARK                            x       y       z     vdW  Elec       q    Type
REMARK                         _______ _______ _______ _____ _____    ______ ____
ROOT
ATOM      1  C   UNL     1      -1.122   7.129   1.860  0.00  0.00    +0.294 C 
ATOM      2  N   UNL     1       0.215   7.698   2.002  0.00  0.00    -0.305 N 
ATOM      3  C   UNL     1       0.884   7.553   3.220  0.00  0.00    +0.040 A 
ATOM      4  C   UNL     1       1.993   6.735   3.340  0.00  0.00    +0.025 A 
ATOM      5  C   UNL     1       2.609   6.586   4.569  0.00  0.00    +0.017 A 
ATOM      6  C   UNL     1       2.123   7.252   5.682  0.00  0.00    +0.019 A 
ATOM      7  C   UNL     1       1.020   8.078   5.577  0.00  0.00    +0.027 A 
ATOM      8  C   UNL     1       0.395   8.241   4.346  0.00  0.00    +0.029 A 
ATOM      9  C   UNL     1      -0.777   9.126   4.185  0.00  0.00    +0.156 A 
ATOM     10  C   UNL     1      -1.917   8.656   3.494  0.00  0.00    +0.248 A 
ATOM     11  N   UNL     1      -2.950   9.467   3.346  0.00  0.00    -0.184 NA
ATOM     12  C   UNL     1      -2.891  10.694   3.856  0.00  0.00    +0.212 A 
ATOM     13  N   UNL     1      -1.815  11.114   4.508  0.00  0.00    -0.122 NA
ATOM     14  N   UNL     1      -0.785  10.357   4.672  0.00  0.00    -0.141 NA
ATOM     15  O   UNL     1      -1.932   7.396   2.999  0.00  0.00    -0.449 OA
ATOM     16 BR   UNL     1       2.973   7.028   7.356  0.00  0.00    -0.050 Br
ATOM     17  H   UNL     1       0.633   8.169   1.264  0.00  0.00    +0.150 HD
ENDROOT
BRANCH   1  20
ATOM     18  C   UNL     1      -1.838   3.425   2.084  0.00  0.00    +0.166 A 
ATOM     19  C   UNL     1      -1.940   4.798   2.253  0.00  0.00    +0.058 A 
ATOM     20  C   UNL     1      -1.004   5.638   1.679  0.00  0.00    +0.018 A 
ATOM     21  C   UNL     1       0.039   5.114   0.939  0.00  0.00    +0.058 A 
ATOM     22  C   UNL     1       0.151   3.742   0.769  0.00  0.00    +0.166 A 
ATOM     23  C   UNL     1      -0.788   2.894   1.345  0.00  0.00    +0.204 A 
BRANCH  18  25
ATOM     24  C   UNL     1      -3.814   3.215   3.390  0.00  0.00    +0.277 C 
ATOM     25  O   UNL     1      -2.762   2.600   2.645  0.00  0.00    -0.491 OA
ENDBRANCH  18  25
BRANCH  23  26
ATOM     26  O   UNL     1      -0.682   1.547   1.181  0.00  0.00    -0.488 OA
ATOM     27  C   UNL     1       0.080   0.833   2.156  0.00  0.00    +0.277 C 
ENDBRANCH  23  26
BRANCH  22  28
ATOM     28  O   UNL     1       1.178   3.227   0.041  0.00  0.00    -0.491 OA
ATOM     29  C   UNL     1       2.105   4.158  -0.521  0.00  0.00    +0.277 C 
ENDBRANCH  22  28
ENDBRANCH   1  20
BRANCH  12  30
ATOM     30  S   UNL     1      -4.265  11.780   3.662  0.00  0.00    -0.088 S 
ATOM     31  C   UNL     1      -3.634  13.242   4.523  0.00  0.00    +0.093 C 
ENDBRANCH  12  30
TORSDOF 5
