REMARK  Name = ZINC39215130
REMARK  5 active torsions:
REMARK  status: ('A' for Active; 'I' for Inactive)
REMARK    1  A    between atoms: C_4  and  N_7
REMARK    2  A    between atoms: C_8  and  S_16
REMARK    3  A    between atoms: C_14  and  N_15
REMARK    4  A    between atoms: S_16  and  C_17
REMARK    5  A    between atoms: C_17  and  C_18
REMARK                            x       y       z     vdW  Elec       q    Type
REMARK                         _______ _______ _______ _____ _____    ______ ____
ROOT
ATOM      1  N   UNL     1       3.620  -0.649  -0.035  0.00  0.00    -0.260 N 
ATOM      2  C   UNL     1       3.663  -2.114   0.060  0.00  0.00    +0.228 C 
ATOM      3  N   UNL     1       4.746  -2.503   0.968  0.00  0.00    -0.284 N 
ATOM      4  C   UNL     1       5.851  -1.742   1.075  0.00  0.00    +0.242 C 
ATOM      5  O   UNL     1       6.792  -2.135   1.743  0.00  0.00    -0.271 OA
ATOM      6  C   UNL     1       5.930  -0.501   0.427  0.00  0.00    +0.106 C 
ATOM      7  C   UNL     1       4.810   0.038  -0.149  0.00  0.00    +0.095 C 
ATOM      8  H   UNL     1       4.666  -3.313   1.495  0.00  0.00    +0.152 HD
ENDROOT
BRANCH   1  12
ATOM      9  C   UNL     1      -0.016   1.382   0.020  0.00  0.00    +0.000 A 
ATOM     10  C   UNL     1       0.298   0.559  -1.045  0.00  0.00    +0.002 A 
ATOM     11  C   UNL     1       1.503  -0.116  -1.067  0.00  0.00    +0.023 A 
ATOM     12  C   UNL     1       2.400   0.033  -0.017  0.00  0.00    +0.037 A 
ATOM     13  C   UNL     1       2.082   0.862   1.052  0.00  0.00    +0.023 A 
ATOM     14  C   UNL     1       0.875   1.533   1.067  0.00  0.00    +0.002 A 
ENDBRANCH   1  12
BRANCH   7  15
ATOM     15  N   UNL     1       4.868   1.234  -0.819  0.00  0.00    -0.346 N 
ATOM     16  H   UNL     1       4.054   1.639  -1.158  0.00  0.00    +0.143 HD
ATOM     17  H   UNL     1       5.722   1.673  -0.955  0.00  0.00    +0.143 HD
ENDBRANCH   7  15
BRANCH   2  18
ATOM     18  S   UNL     1       3.963  -2.820  -1.583  0.00  0.00    -0.111 S 
BRANCH  18  19
ATOM     19  C   UNL     1       5.563  -2.121  -2.076  0.00  0.00    +0.146 C 
BRANCH  19  20
ATOM     20  C   UNL     1       5.936  -2.635  -3.443  0.00  0.00    +0.120 A 
ATOM     21  N   UNL     1       7.112  -2.226  -3.986  0.00  0.00    -0.310 N 
ATOM     22  H   UNL     1       7.685  -1.618  -3.491  0.00  0.00    +0.170 HD
ATOM     23  C   UNL     1       7.493  -2.658  -5.211  0.00  0.00    +0.259 A 
ATOM     24  O   UNL     1       8.545  -2.301  -5.709  0.00  0.00    -0.267 OA
ATOM     25  C   UNL     1       6.588  -3.578  -5.915  0.00  0.00    +0.065 A 
ATOM     26  C   UNL     1       6.886  -4.081  -7.180  0.00  0.00    +0.015 A 
ATOM     27  C   UNL     1       6.001  -4.939  -7.795  0.00  0.00    +0.001 A 
ATOM     28  C   UNL     1       4.818  -5.304  -7.166  0.00  0.00    +0.002 A 
ATOM     29  C   UNL     1       4.505  -4.818  -5.917  0.00  0.00    +0.028 A 
ATOM     30  C   UNL     1       5.386  -3.947  -5.272  0.00  0.00    +0.078 A 
ATOM     31  N   UNL     1       5.119  -3.449  -4.039  0.00  0.00    -0.233 NA
ENDBRANCH  19  20
ENDBRANCH  18  19
ENDBRANCH   2  18
TORSDOF 5
