REMARK  Name = ZINC07101920
REMARK  4 active torsions:
REMARK  status: ('A' for Active; 'I' for Inactive)
REMARK    1  A    between atoms: C_1  and  C_2
REMARK    2  A    between atoms: C_2  and  C_26
REMARK    3  A    between atoms: C_6  and  C_17
REMARK    4  A    between atoms: C_11  and  O_15
REMARK                            x       y       z     vdW  Elec       q    Type
REMARK                         _______ _______ _______ _____ _____    ______ ____
ROOT
ATOM      1  C   UNL     1      -7.689   2.116   1.145  0.00  0.00    +0.031 C 
ATOM      2  C   UNL     1      -7.023   1.309   2.261  0.00  0.00    +0.036 C 
ATOM      3  C   UNL     1      -5.691   1.963   2.643  0.00  0.00    +0.094 C 
ATOM      4  C   UNL     1      -4.746   1.881   1.441  0.00  0.00    +0.182 C 
ATOM      5  C   UNL     1      -3.368   2.423   1.837  0.00  0.00    +0.082 C 
ATOM      6  C   UNL     1      -2.416   2.227   0.654  0.00  0.00    +0.065 C 
ATOM      7  C   UNL     1      -3.070   2.720  -0.612  0.00  0.00    +0.004 A 
ATOM      8  C   UNL     1      -2.273   2.980  -1.714  0.00  0.00    +0.031 A 
ATOM      9  C   UNL     1      -2.835   3.430  -2.892  0.00  0.00    +0.083 A 
ATOM     10  C   UNL     1      -4.208   3.623  -2.975  0.00  0.00    +0.139 A 
ATOM     11  C   UNL     1      -5.007   3.365  -1.875  0.00  0.00    +0.093 A 
ATOM     12  C   UNL     1      -4.439   2.913  -0.689  0.00  0.00    +0.131 A 
ATOM     13  O   UNL     1      -5.256   2.674   0.371  0.00  0.00    -0.468 OA
ATOM     14 CL   UNL     1      -1.827   3.755  -4.268  0.00  0.00    -0.080 Cl
ATOM     15  N   UNL     1      -4.621   0.488   1.014  0.00  0.00    -0.262 N 
ATOM     16  C   UNL     1      -5.617  -0.391   1.203  0.00  0.00    +0.303 C 
ATOM     17  O   UNL     1      -5.466  -1.536   0.822  0.00  0.00    -0.253 OA
ATOM     18  N   UNL     1      -6.773  -0.056   1.796  0.00  0.00    -0.294 N 
ATOM     19  C   UNL     1      -7.942   1.271   3.484  0.00  0.00    +0.031 C 
ATOM     20  H   UNL     1      -3.801   0.194   0.587  0.00  0.00    +0.154 HD
ATOM     21  H   UNL     1      -7.457  -0.732   1.918  0.00  0.00    +0.151 HD
ENDROOT
BRANCH   6  22
ATOM     22  C   UNL     1      -1.147   3.002   0.898  0.00  0.00    -0.003 A 
ATOM     23  C   UNL     1       0.127   2.547   0.988  0.00  0.00    +0.012 A 
ATOM     24  C   UNL     1       1.147   3.452   1.212  0.00  0.00    +0.008 A 
ATOM     25  C   UNL     1       0.844   4.767   1.340  0.00  0.00    +0.045 A 
ATOM     26  S   UNL     1      -0.931   4.757   1.143  0.00  0.00    -0.101 S 
ENDBRANCH   6  22
BRANCH  10  27
ATOM     27  O   UNL     1      -4.765   4.066  -4.133  0.00  0.00    -0.505 OA
ATOM     28  H   UNL     1      -5.027   3.359  -4.739  0.00  0.00    +0.292 HD
ENDBRANCH  10  27
TORSDOF 2
