REMARK  Name = ZINC14965877
REMARK  10 active torsions:
REMARK  status: ('A' for Active; 'I' for Inactive)
REMARK    1  A    between atoms: C_1  and  C_2
REMARK    2  A    between atoms: C_2  and  C_3
REMARK    3  A    between atoms: C_2  and  C_4
REMARK    4  A    between atoms: C_2  and  N_51
REMARK    5  A    between atoms: C_4  and  O_5
REMARK    6  A    between atoms: C_6  and  C_7
REMARK    7  A    between atoms: C_6  and  N_51
REMARK    8  A    between atoms: N_15  and  C_18
REMARK    9  A    between atoms: C_18  and  C_19
REMARK   10  A    between atoms: C_19  and  C_20
REMARK                            x       y       z     vdW  Elec       q    Type
REMARK                         _______ _______ _______ _____ _____    ______ ____
ROOT
ATOM      1  C   UNL     1       7.825  -1.608  -1.529  0.00  0.00    +0.001 A 
ATOM      2  C   UNL     1       7.900  -2.962  -1.538  0.00  0.00    +0.017 A 
ATOM      3  C   UNL     1       6.655  -3.731  -1.529  0.00  0.00    -0.001 A 
ATOM      4  C   UNL     1       6.668  -5.130  -1.538  0.00  0.00    +0.011 A 
ATOM      5  C   UNL     1       5.489  -5.819  -1.530  0.00  0.00    +0.021 A 
ATOM      6  C   UNL     1       4.275  -5.142  -1.513  0.00  0.00    +0.043 A 
ATOM      7  C   UNL     1       4.239  -3.763  -1.505  0.00  0.00    +0.046 A 
ATOM      8  C   UNL     1       5.427  -3.042  -1.513  0.00  0.00    +0.053 A 
ATOM      9  N   UNL     1       5.420  -1.663  -1.505  0.00  0.00    -0.308 N 
ATOM     10  C   UNL     1       6.569  -0.965  -1.518  0.00  0.00    +0.253 A 
ATOM     11  O   UNL     1       6.525   0.253  -1.516  0.00  0.00    -0.267 OA
ATOM     12 CL   UNL     1       2.790  -6.041  -1.504  0.00  0.00    -0.083 Cl
ENDROOT
BRANCH   1  13
ATOM     13  C   UNL     1       9.089  -0.786  -1.537  0.00  0.00    -0.040 C 
BRANCH  13  14
ATOM     14  N   UNL     1       9.414  -0.413  -2.927  0.00  0.00    +0.387 N 
ATOM     15  H   UNL     1       9.548  -1.265  -3.484  0.00  0.00    -0.085 HD
ATOM     16  H   UNL     1       8.639   0.135  -3.320  0.00  0.00    -0.085 HD
BRANCH  14  18
ATOM     17  C   UNL     1      10.455   1.669  -2.142  0.00  0.00    -0.008 C 
ATOM     18  C   UNL     1      10.648   0.394  -2.965  0.00  0.00    -0.050 C 
ATOM     19  C   UNL     1      11.810  -0.417  -2.386  0.00  0.00    -0.008 C 
BRANCH  18  20
ATOM     20  C   UNL     1      10.959   0.766  -4.416  0.00  0.00    +0.143 C 
BRANCH  20  21
ATOM     21  O   UNL     1      12.154   1.547  -4.462  0.00  0.00    -0.396 OA
ATOM     22  H   UNL     1      12.413   1.819  -5.353  0.00  0.00    +0.209 HD
ENDBRANCH  20  21
ENDBRANCH  18  20
ENDBRANCH  14  18
ENDBRANCH  13  14
ENDBRANCH   1  13
BRANCH   9  23
ATOM     23  C   UNL     1       4.142  -0.948  -1.488  0.00  0.00    +0.130 C 
BRANCH  23  24
ATOM     24  C   UNL     1       3.711  -0.707  -0.039  0.00  0.00    +0.057 C 
BRANCH  24  25
ATOM     25  C   UNL     1       2.396   0.029  -0.022  0.00  0.00    -0.046 A 
ATOM     26  C   UNL     1       1.208  -0.679  -0.014  0.00  0.00    +0.004 A 
ATOM     27  C   UNL     1       0.002  -0.004   0.002  0.00  0.00    +0.000 A 
ATOM     28  C   UNL     1      -0.017   1.378   0.010  0.00  0.00    +0.000 A 
ATOM     29  C   UNL     1       1.171   2.086   0.002  0.00  0.00    +0.000 A 
ATOM     30  C   UNL     1       2.377   1.411  -0.014  0.00  0.00    +0.004 A 
ENDBRANCH  24  25
ENDBRANCH  23  24
ENDBRANCH   9  23
TORSDOF 8
