REMARK  Name = ZINC50699960
REMARK  6 active torsions:
REMARK  status: ('A' for Active; 'I' for Inactive)
REMARK    1  A    between atoms: C_1  and  C_2
REMARK    2  A    between atoms: C_4  and  N_8
REMARK    3  A    between atoms: N_5  and  C_7
REMARK    4  A    between atoms: C_9  and  C_11
REMARK    5  A    between atoms: C_13  and  N_19
REMARK    6  A    between atoms: C_14  and  N_18
REMARK                            x       y       z     vdW  Elec       q    Type
REMARK                         _______ _______ _______ _____ _____    ______ ____
ROOT
ATOM      1  C   UNL     1      -0.208  -4.367  -3.693  0.00  0.00    +0.041 A 
ATOM      2  C   UNL     1      -0.301  -4.155  -5.072  0.00  0.00    +0.047 A 
ATOM      3  C   UNL     1      -0.040  -5.187  -5.944  0.00  0.00    +0.149 A 
ATOM      4  C   UNL     1       0.317  -6.441  -5.455  0.00  0.00    +0.074 A 
ATOM      5  C   UNL     1       0.411  -6.655  -4.082  0.00  0.00    +0.065 A 
ATOM      6  C   UNL     1       0.157  -5.625  -3.204  0.00  0.00    +0.035 A 
ATOM      7 CL   UNL     1       0.857  -8.220  -3.477  0.00  0.00    -0.082 Cl
ENDROOT
BRANCH   1   9
ATOM      8  N   UNL     1      -0.392  -3.467  -1.427  0.00  0.00    -0.267 N 
ATOM      9  C   UNL     1      -0.487  -3.263  -2.755  0.00  0.00    +0.249 C 
ATOM     10  O   UNL     1      -0.804  -2.169  -3.182  0.00  0.00    -0.270 OA
ATOM     11  H   UNL     1      -0.139  -4.340  -1.087  0.00  0.00    +0.157 HD
BRANCH   8  15
ATOM     12  C   UNL     1      -1.587   1.019   0.403  0.00  0.00    +0.067 C 
ATOM     13  C   UNL     1      -1.186  -0.430   0.307  0.00  0.00    +0.062 A 
ATOM     14  C   UNL     1      -1.019  -1.155  -0.876  0.00  0.00    +0.068 A 
ATOM     15  C   UNL     1      -0.656  -2.424  -0.541  0.00  0.00    +0.123 A 
ATOM     16  N   UNL     1      -0.599  -2.487   0.815  0.00  0.00    -0.253 N 
ATOM     17  N   UNL     1      -0.931  -1.222   1.317  0.00  0.00    -0.175 NA
ATOM     18  C   UNL     1      -0.247  -3.666   1.610  0.00  0.00    +0.174 C 
ENDBRANCH   8  15
ENDBRANCH   1   9
BRANCH   4  19
ATOM     19  N   UNL     1       0.580  -7.482  -6.340  0.00  0.00    -0.355 N 
ATOM     20  H   UNL     1       0.640  -7.306  -7.292  0.00  0.00    +0.142 HD
ATOM     21  H   UNL     1       0.704  -8.383  -6.005  0.00  0.00    +0.142 HD
ENDBRANCH   4  19
BRANCH   3  22
ATOM     22  N   UNL     1      -0.139  -4.964  -7.404  0.00  0.00    +0.058 N 
ATOM     23  O   UNL     1       0.226  -3.914  -7.881  0.00  0.00    -0.126 OA
ATOM     24  O   UNL     1      -0.584  -5.831  -8.119  0.00  0.00    -0.126 OA
ENDBRANCH   3  22
TORSDOF 4
