REMARK  Name = ZINC62705384
REMARK  10 active torsions:
REMARK  status: ('A' for Active; 'I' for Inactive)
REMARK    1  A    between atoms: C_1  and  C_2
REMARK    2  A    between atoms: C_2  and  C_3
REMARK    3  A    between atoms: C_3  and  C_5
REMARK    4  A    between atoms: C_3  and  N_22
REMARK    5  A    between atoms: C_5  and  C_6
REMARK    6  A    between atoms: C_9  and  O_13
REMARK    7  A    between atoms: O_13  and  C_14
REMARK    8  A    between atoms: C_14  and  C_15
REMARK    9  A    between atoms: N_17  and  C_18
REMARK   10  A    between atoms: C_18  and  C_19
REMARK                            x       y       z     vdW  Elec       q    Type
REMARK                         _______ _______ _______ _____ _____    ______ ____
ROOT
ATOM      1  C   UNL     1       1.227  -2.500  -2.628  0.00  0.00    -0.048 A 
ATOM      2  C   UNL     1       0.428  -2.627  -3.749  0.00  0.00    +0.007 A 
ATOM      3  C   UNL     1       0.972  -3.064  -4.941  0.00  0.00    +0.047 A 
ATOM      4  C   UNL     1       2.322  -3.376  -5.013  0.00  0.00    +0.135 A 
ATOM      5  C   UNL     1       3.122  -3.248  -3.886  0.00  0.00    +0.060 A 
ATOM      6  C   UNL     1       2.574  -2.805  -2.697  0.00  0.00    +0.022 A 
ATOM      7 BR   UNL     1       4.963  -3.673  -3.980  0.00  0.00    -0.047 Br
ENDROOT
BRANCH   1   8
ATOM      8  C   UNL     1       0.630  -2.023  -1.329  0.00  0.00    +0.019 C 
BRANCH   8   9
ATOM      9  C   UNL     1       0.718  -0.497  -1.257  0.00  0.00    -0.071 C 
BRANCH   9  10
ATOM     10  N   UNL     1       2.129  -0.090  -1.209  0.00  0.00    +0.380 N 
ATOM     11  H   UNL     1       2.601  -0.415  -2.039  0.00  0.00    -0.090 HD
ATOM     12  H   UNL     1       2.187   0.916  -1.162  0.00  0.00    -0.090 HD
ATOM     13  H   UNL     1       2.567  -0.491  -0.394  0.00  0.00    -0.090 HD
ENDBRANCH   9  10
BRANCH   9  15
ATOM     14  C   UNL     1      -0.019   1.526   0.010  0.00  0.00    +0.002 C 
ATOM     15  C   UNL     1       0.002  -0.004   0.002  0.00  0.00    -0.019 C 
ENDBRANCH   9  15
ENDBRANCH   8   9
ENDBRANCH   1   8
BRANCH   4  16
ATOM     16  O   UNL     1       2.859  -3.807  -6.185  0.00  0.00    -0.482 OA
BRANCH  16  17
ATOM     17  C   UNL     1       1.976  -3.916  -7.303  0.00  0.00    +0.324 C 
BRANCH  17  18
ATOM     18  C   UNL     1       2.744  -4.404  -8.504  0.00  0.00    +0.251 C 
ATOM     19  O   UNL     1       3.930  -4.637  -8.412  0.00  0.00    -0.272 OA
ATOM     20  N   UNL     1       2.111  -4.583  -9.681  0.00  0.00    -0.312 N 
ATOM     21  H   UNL     1       1.162  -4.397  -9.755  0.00  0.00    +0.149 HD
BRANCH  20  22
ATOM     22  C   UNL     1       2.858  -5.058 -10.848  0.00  0.00    +0.107 C 
BRANCH  22  23
ATOM     23  C   UNL     1       1.912  -5.174 -12.045  0.00  0.00    +0.006 C 
ATOM     24  C   UNL     1       1.683  -6.568 -12.633  0.00  0.00    +0.005 C 
ATOM     25  C   UNL     1       2.525  -5.545 -13.397  0.00  0.00    +0.005 C 
ENDBRANCH  22  23
ENDBRANCH  20  22
ENDBRANCH  17  18
ENDBRANCH  16  17
ENDBRANCH   4  16
TORSDOF 9
