REMARK  Name = ZINC59147782
REMARK  6 active torsions:
REMARK  status: ('A' for Active; 'I' for Inactive)
REMARK    1  A    between atoms: C_1  and  C_2
REMARK    2  A    between atoms: C_6  and  C_10
REMARK    3  A    between atoms: C_7  and  O_8
REMARK    4  A    between atoms: O_8  and  C_9
REMARK    5  A    between atoms: N_12  and  N_13
REMARK    6  A    between atoms: C_14  and  C_15
REMARK                            x       y       z     vdW  Elec       q    Type
REMARK                         _______ _______ _______ _____ _____    ______ ____
ROOT
ATOM      1  C   UNL     1       0.052  -2.859   2.453  0.00  0.00    +0.267 C 
ATOM      2  O   UNL     1       0.049  -2.265   3.514  0.00  0.00    -0.268 OA
ATOM      3  N   UNL     1       0.069  -4.207   2.435  0.00  0.00    -0.203 N 
ATOM      4  H   UNL     1       0.071  -4.680   1.588  0.00  0.00    +0.178 HD
ENDROOT
BRANCH   1  10
ATOM      5  C   UNL     1      -0.018   1.503   0.010  0.00  0.00    +0.047 C 
ATOM      6  C   UNL     1       0.002  -0.004   0.002  0.00  0.00    -0.008 A 
ATOM      7  C   UNL     1       0.006  -0.687  -1.198  0.00  0.00    +0.007 A 
ATOM      8  C   UNL     1       0.024  -2.072  -1.216  0.00  0.00    +0.001 A 
ATOM      9  C   UNL     1       0.039  -2.783  -0.036  0.00  0.00    +0.017 A 
ATOM     10  C   UNL     1       0.036  -2.105   1.185  0.00  0.00    +0.080 A 
ATOM     11  C   UNL     1       0.023  -0.703   1.199  0.00  0.00    +0.135 A 
BRANCH  11  12
ATOM     12  O   UNL     1       0.025  -0.033   2.379  0.00  0.00    -0.494 OA
ATOM     13  C   UNL     1      -1.247   0.270   2.955  0.00  0.00    +0.277 C 
ENDBRANCH  11  12
ENDBRANCH   1  10
BRANCH   3  14
ATOM     14  N   UNL     1       0.084  -4.923   3.639  0.00  0.00    -0.187 NA
ATOM     15  C   UNL     1       0.101  -6.221   3.621  0.00  0.00    +0.141 C 
BRANCH  15  16
ATOM     16  C   UNL     1       0.117  -6.975   4.888  0.00  0.00    +0.031 A 
ATOM     17  C   UNL     1       0.108  -6.296   6.110  0.00  0.00    +0.051 A 
ATOM     18  C   UNL     1       0.122  -7.009   7.292  0.00  0.00    +0.021 A 
ATOM     19  C   UNL     1       0.145  -8.392   7.269  0.00  0.00    +0.003 A 
ATOM     20  C   UNL     1       0.155  -9.071   6.064  0.00  0.00    +0.021 A 
ATOM     21  C   UNL     1       0.135  -8.373   4.873  0.00  0.00    +0.051 A 
ATOM     22 CL   UNL     1       0.139  -9.227   3.362  0.00  0.00    -0.083 Cl
ATOM     23 CL   UNL     1       0.079  -4.560   6.141  0.00  0.00    -0.083 Cl
ENDBRANCH  15  16
ENDBRANCH   3  14
TORSDOF 4
