REMARK  Name = ZINC34734595
REMARK  7 active torsions:
REMARK  status: ('A' for Active; 'I' for Inactive)
REMARK    1  A    between atoms: C_1  and  C_2
REMARK    2  A    between atoms: C_2  and  N_3
REMARK    3  A    between atoms: C_18  and  C_20
REMARK    4  A    between atoms: C_18  and  C_21
REMARK    5  A    between atoms: N_24  and  C_25
REMARK    6  A    between atoms: C_25  and  C_26
REMARK    7  A    between atoms: N_28  and  C_29
REMARK                            x       y       z     vdW  Elec       q    Type
REMARK                         _______ _______ _______ _____ _____    ______ ____
ROOT
ATOM      1  N   UNL     1       1.410   0.426   2.115  0.00  0.00    +0.382 N 
ATOM      2  C   UNL     1       2.311   0.159   3.244  0.00  0.00    -0.060 C 
ATOM      3  C   UNL     1       2.463  -1.355   3.426  0.00  0.00    +0.089 C 
ATOM      4  N   UNL     1       1.122  -1.945   3.567  0.00  0.00    -0.304 N 
ATOM      5  C   UNL     1       0.104  -1.597   2.564  0.00  0.00    +0.089 C 
ATOM      6  C   UNL     1       0.063  -0.072   2.422  0.00  0.00    -0.060 C 
ATOM      7  C   UNL     1       0.831  -2.796   4.603  0.00  0.00    +0.202 A 
ATOM      8  N   UNL     1       0.378  -2.305   5.738  0.00  0.00    -0.208 NA
ATOM      9  C   UNL     1       0.088  -3.105   6.758  0.00  0.00    +0.118 A 
ATOM     10  C   UNL     1       0.246  -4.500   6.682  0.00  0.00    +0.076 A 
ATOM     11  C   UNL     1      -0.114  -5.247   7.886  0.00  0.00    -0.018 A 
ATOM     12  C   UNL     1      -0.559  -4.533   8.942  0.00  0.00    +0.021 A 
ATOM     13  S   UNL     1      -0.525  -2.847   8.404  0.00  0.00    -0.071 S 
ATOM     14  C   UNL     1      -0.982  -5.084  10.269  0.00  0.00    +0.203 C 
ATOM     15  O   UNL     1      -1.138  -6.505  10.127  0.00  0.00    -0.368 OA
ATOM     16  C   UNL     1      -0.032  -7.139   9.479  0.00  0.00    +0.068 C 
ATOM     17  C   UNL     1      -0.007  -6.766   7.994  0.00  0.00    +0.071 C 
ATOM     18  C   UNL     1       1.272  -6.682  10.138  0.00  0.00    +0.041 C 
ATOM     19  C   UNL     1      -0.163  -8.656   9.619  0.00  0.00    +0.041 C 
ATOM     20  C   UNL     1       0.739  -5.003   5.436  0.00  0.00    +0.264 A 
ATOM     21  O   UNL     1       0.908  -6.200   5.277  0.00  0.00    -0.267 OA
ATOM     22  N   UNL     1       1.008  -4.138   4.442  0.00  0.00    -0.271 N 
ATOM     23  H   UNL     1       1.760  -0.038   1.291  0.00  0.00    -0.082 HD
ENDROOT
BRANCH   1  25
ATOM     24  C   UNL     1       2.728   2.373   1.430  0.00  0.00    -0.017 C 
ATOM     25  C   UNL     1       1.351   1.874   1.871  0.00  0.00    -0.082 C 
ENDBRANCH   1  25
BRANCH  22  26
ATOM     26  C   UNL     1       1.508  -4.648   3.162  0.00  0.00    +0.223 C 
BRANCH  26  27
ATOM     27  C   UNL     1       3.007  -4.788   3.228  0.00  0.00    +0.233 C 
ATOM     28  O   UNL     1       3.600  -4.492   4.244  0.00  0.00    -0.274 OA
ATOM     29  N   UNL     1       3.689  -5.243   2.158  0.00  0.00    -0.311 N 
ATOM     30  H   UNL     1       3.215  -5.480   1.346  0.00  0.00    +0.149 HD
BRANCH  29  31
ATOM     31  C   UNL     1       5.146  -5.379   2.222  0.00  0.00    +0.073 C 
ATOM     32  C   UNL     1       5.799  -4.038   1.884  0.00  0.00    +0.022 C 
ATOM     33  C   UNL     1       7.321  -4.180   1.951  0.00  0.00    +0.002 C 
ATOM     34  C   UNL     1       7.779  -5.239   0.945  0.00  0.00    +0.000 C 
ATOM     35  C   UNL     1       7.126  -6.580   1.283  0.00  0.00    +0.002 C 
ATOM     36  C   UNL     1       5.604  -6.438   1.216  0.00  0.00    +0.022 C 
ENDBRANCH  29  31
ENDBRANCH  26  27
ENDBRANCH  22  26
TORSDOF 4
