REMARK  Name = ZINC05542480
REMARK  11 active torsions:
REMARK  status: ('A' for Active; 'I' for Inactive)
REMARK    1  A    between atoms: C_1  and  C_2
REMARK    2  A    between atoms: C_5  and  C_33
REMARK    3  A    between atoms: C_6  and  N_8
REMARK    4  A    between atoms: N_11  and  C_12
REMARK    5  A    between atoms: C_12  and  C_13
REMARK    6  A    between atoms: C_16  and  N_21
REMARK    7  A    between atoms: C_18  and  C_19
REMARK    8  A    between atoms: C_18  and  C_20
REMARK    9  A    between atoms: N_24  and  C_25
REMARK   10  A    between atoms: C_27  and  C_32
REMARK   11  A    between atoms: C_30  and  C_31
REMARK                            x       y       z     vdW  Elec       q    Type
REMARK                         _______ _______ _______ _____ _____    ______ ____
ROOT
ATOM      1  C   UNL     1      -8.007   1.929   1.117  0.00  0.00    +0.015 C 
ATOM      2  C   UNL     1      -6.626   2.136   1.762  0.00  0.00    +0.028 C 
ATOM      3  C   UNL     1      -6.050   2.150   0.337  0.00  0.00    +0.081 C 
ATOM      4  C   UNL     1      -7.267   1.308  -0.080  0.00  0.00    -0.012 C 
ATOM      5  C   UNL     1      -7.854   1.707  -1.435  0.00  0.00    +0.013 C 
ATOM      6  C   UNL     1      -7.044  -0.200   0.052  0.00  0.00    +0.013 C 
ENDROOT
BRANCH   3   7
ATOM      7  N   UNL     1      -4.775   1.440   0.212  0.00  0.00    -0.296 N 
ATOM      8  C   UNL     1      -3.624   2.134   0.103  0.00  0.00    +0.304 C 
ATOM      9  O   UNL     1      -3.645   3.349   0.110  0.00  0.00    -0.253 OA
ATOM     10  N   UNL     1      -2.451   1.480  -0.011  0.00  0.00    -0.269 N 
ATOM     11  H   UNL     1      -4.758   0.470   0.207  0.00  0.00    +0.151 HD
ATOM     12  H   UNL     1      -2.441   0.514  -0.099  0.00  0.00    +0.156 HD
BRANCH  10  13
ATOM     13  C   UNL     1      -1.248   2.195  -0.004  0.00  0.00    +0.038 A 
ATOM     14  C   UNL     1      -1.181   3.438   0.611  0.00  0.00    +0.027 A 
ATOM     15  C   UNL     1       0.006   4.144   0.611  0.00  0.00    -0.049 A 
ATOM     16  C   UNL     1       1.129   3.611   0.004  0.00  0.00    +0.004 A 
ATOM     17  C   UNL     1       1.066   2.372  -0.605  0.00  0.00    +0.005 A 
ATOM     18  C   UNL     1      -0.118   1.661  -0.609  0.00  0.00    -0.029 A 
ATOM     19  C   UNL     1      -0.185   0.310  -1.274  0.00  0.00    +0.045 C 
ATOM     20  C   UNL     1       0.078   5.495   1.274  0.00  0.00    +0.044 C 
ENDBRANCH  10  13
ENDBRANCH   3   7
BRANCH   1  21
ATOM     21  C   UNL     1      -8.893   0.935   1.872  0.00  0.00    +0.110 C 
BRANCH  21  25
ATOM     22  N   UNL     1     -11.067   1.587   4.765  0.00  0.00    -0.269 N 
ATOM     23  C   UNL     1     -10.428   0.949   3.764  0.00  0.00    +0.304 C 
ATOM     24  O   UNL     1     -10.610  -0.240   3.588  0.00  0.00    -0.253 OA
ATOM     25  N   UNL     1      -9.587   1.629   2.960  0.00  0.00    -0.299 N 
ATOM     26  H   UNL     1     -10.976   2.548   4.864  0.00  0.00    +0.156 HD
ATOM     27  H   UNL     1      -9.442   2.578   3.100  0.00  0.00    +0.150 HD
BRANCH  22  33
ATOM     28  C   UNL     1     -14.156  -2.140   5.624  0.00  0.00    +0.044 C 
ATOM     29  C   UNL     1     -13.370  -0.947   6.104  0.00  0.00    -0.049 A 
ATOM     30  C   UNL     1     -13.435  -0.566   7.432  0.00  0.00    +0.004 A 
ATOM     31  C   UNL     1     -12.716   0.528   7.876  0.00  0.00    +0.005 A 
ATOM     32  C   UNL     1     -11.926   1.241   6.995  0.00  0.00    -0.029 A 
ATOM     33  C   UNL     1     -11.863   0.864   5.660  0.00  0.00    +0.038 A 
ATOM     34  C   UNL     1     -12.586  -0.235   5.217  0.00  0.00    +0.027 A 
ATOM     35  C   UNL     1     -11.138   2.430   7.482  0.00  0.00    +0.045 C 
ENDBRANCH  22  33
ENDBRANCH  21  25
ENDBRANCH   1  21
TORSDOF 5
