REMARK  Name = ZINC36598997
REMARK  15 active torsions:
REMARK  status: ('A' for Active; 'I' for Inactive)
REMARK    1  A    between atoms: C_1  and  C_2
REMARK    2  A    between atoms: C_5  and  C_7
REMARK    3  A    between atoms: C_7  and  N_8
REMARK    4  A    between atoms: N_8  and  C_9
REMARK    5  A    between atoms: C_9  and  C_11
REMARK    6  A    between atoms: C_9  and  C_18
REMARK    7  A    between atoms: C_15  and  O_17
REMARK    8  A    between atoms: N_20  and  C_21
REMARK    9  A    between atoms: C_21  and  C_22
REMARK   10  A    between atoms: C_21  and  C_23
REMARK   11  A    between atoms: C_21  and  C_24
REMARK   12  A    between atoms: C_25  and  C_27
REMARK   13  A    between atoms: C_27  and  C_28
REMARK   14  A    between atoms: C_27  and  C_34
REMARK   15  A    between atoms: C_27  and  O_40
REMARK                            x       y       z     vdW  Elec       q    Type
REMARK                         _______ _______ _______ _____ _____    ______ ____
ROOT
ATOM      1  N   UNL     1       2.039  -1.826  -1.856  0.00  0.00    -0.276 N 
ATOM      2  C   UNL     1       1.068  -2.554  -2.442  0.00  0.00    +0.258 C 
ATOM      3  O   UNL     1       1.101  -2.757  -3.638  0.00  0.00    -0.272 OA
ENDROOT
BRANCH   1   4
ATOM      4  C   UNL     1       1.940  -1.482  -0.435  0.00  0.00    +0.183 C 
BRANCH   4   9
ATOM      5  C   UNL     1       1.518   3.544  -0.458  0.00  0.00    +0.086 C 
ATOM      6  C   UNL     1       1.173   2.085  -0.302  0.00  0.00    +0.102 A 
ATOM      7  C   UNL     1      -0.016   1.596   0.094  0.00  0.00    +0.045 A 
ATOM      8  C   UNL     1       0.102   0.187   0.100  0.00  0.00    +0.046 A 
ATOM      9  C   UNL     1       1.356  -0.100  -0.292  0.00  0.00    +0.122 A 
ATOM     10  O   UNL     1       1.999   1.053  -0.540  0.00  0.00    -0.463 OA
ENDBRANCH   4   9
ENDBRANCH   1   4
BRANCH   1  11
ATOM     11  C   UNL     1       3.193  -1.379  -2.639  0.00  0.00    +0.193 C 
BRANCH  11  12
ATOM     12  C   UNL     1       4.112  -2.547  -2.892  0.00  0.00    -0.015 A 
ATOM     13  C   UNL     1       4.139  -3.608  -2.006  0.00  0.00    +0.006 A 
ATOM     14  C   UNL     1       4.981  -4.681  -2.235  0.00  0.00    +0.004 A 
ATOM     15  C   UNL     1       5.796  -4.695  -3.350  0.00  0.00    +0.045 A 
ATOM     16  C   UNL     1       5.771  -3.631  -4.240  0.00  0.00    +0.117 A 
ATOM     17  C   UNL     1       4.921  -2.559  -4.011  0.00  0.00    +0.051 A 
BRANCH  16  18
ATOM     18  O   UNL     1       6.572  -3.643  -5.338  0.00  0.00    -0.507 OA
ATOM     19  H   UNL     1       6.166  -4.048  -6.117  0.00  0.00    +0.292 HD
ENDBRANCH  16  18
ENDBRANCH  11  12
BRANCH  11  20
ATOM     20  C   UNL     1       3.936  -0.312  -1.875  0.00  0.00    +0.239 C 
ATOM     21  O   UNL     1       3.867  -0.274  -0.665  0.00  0.00    -0.273 OA
ATOM     22  N   UNL     1       4.676   0.599  -2.538  0.00  0.00    -0.309 N 
ATOM     23  H   UNL     1       4.731   0.568  -3.506  0.00  0.00    +0.149 HD
BRANCH  22  24
ATOM     24  C   UNL     1       5.397   1.635  -1.795  0.00  0.00    +0.026 C 
ATOM     25  C   UNL     1       6.391   0.978  -0.836  0.00  0.00    +0.031 C 
ATOM     26  C   UNL     1       6.153   2.533  -2.777  0.00  0.00    +0.031 C 
ATOM     27  C   UNL     1       4.400   2.478  -0.997  0.00  0.00    +0.031 C 
ENDBRANCH  22  24
ENDBRANCH  11  20
ENDBRANCH   1  11
BRANCH   2  28
ATOM     28  C   UNL     1      -0.059  -3.115  -1.613  0.00  0.00    +0.192 C 
BRANCH  28  29
ATOM     29  C   UNL     1      -1.045  -3.813  -2.513  0.00  0.00    -0.003 A 
ATOM     30  C   UNL     1      -0.652  -4.921  -3.242  0.00  0.00    +0.007 A 
ATOM     31  C   UNL     1      -1.557  -5.561  -4.067  0.00  0.00    +0.000 A 
ATOM     32  C   UNL     1      -2.855  -5.095  -4.163  0.00  0.00    +0.000 A 
ATOM     33  C   UNL     1      -3.248  -3.989  -3.434  0.00  0.00    +0.000 A 
ATOM     34  C   UNL     1      -2.345  -3.351  -2.605  0.00  0.00    +0.007 A 
ENDBRANCH  28  29
BRANCH  28  35
ATOM     35  C   UNL     1       0.494  -4.099  -0.614  0.00  0.00    -0.003 A 
ATOM     36  C   UNL     1       1.636  -4.818  -0.913  0.00  0.00    +0.007 A 
ATOM     37  C   UNL     1       2.144  -5.721   0.003  0.00  0.00    +0.000 A 
ATOM     38  C   UNL     1       1.510  -5.903   1.218  0.00  0.00    +0.000 A 
ATOM     39  C   UNL     1       0.368  -5.183   1.517  0.00  0.00    +0.000 A 
ATOM     40  C   UNL     1      -0.137  -4.277   0.602  0.00  0.00    +0.007 A 
ENDBRANCH  28  35
BRANCH  28  41
ATOM     41  O   UNL     1      -0.716  -2.051  -0.920  0.00  0.00    -0.371 OA
ATOM     42  H   UNL     1      -1.161  -1.420  -1.502  0.00  0.00    +0.212 HD
ENDBRANCH  28  41
ENDBRANCH   2  28
TORSDOF 11
