REMARK  Name = ZINC13469035
REMARK  9 active torsions:
REMARK  status: ('A' for Active; 'I' for Inactive)
REMARK    1  A    between atoms: C_1  and  C_2
REMARK    2  A    between atoms: C_2  and  C_3
REMARK    3  A    between atoms: C_2  and  C_19
REMARK    4  A    between atoms: C_2  and  C_25
REMARK    5  A    between atoms: C_3  and  C_4
REMARK    6  A    between atoms: N_6  and  C_7
REMARK    7  A    between atoms: C_12  and  C_13
REMARK    8  A    between atoms: N_15  and  C_16
REMARK    9  A    between atoms: C_16  and  C_17
REMARK                            x       y       z     vdW  Elec       q    Type
REMARK                         _______ _______ _______ _____ _____    ______ ____
ROOT
ATOM      1  C   UNL     1       0.664   3.631   1.261  0.00  0.00    +0.219 C 
ATOM      2  O   UNL     1       1.597   2.856   1.234  0.00  0.00    -0.275 OA
ATOM      3  N   UNL     1       0.892   4.959   1.270  0.00  0.00    -0.285 N 
ATOM      4  H   UNL     1       0.149   5.579   1.211  0.00  0.00    +0.155 HD
ENDROOT
BRANCH   3   5
ATOM      5  C   UNL     1       2.196   5.441   1.365  0.00  0.00    +0.046 A 
ATOM      6  C   UNL     1       3.185   4.667   1.957  0.00  0.00    +0.024 A 
ATOM      7  C   UNL     1       4.477   5.145   2.045  0.00  0.00    +0.002 A 
ATOM      8  C   UNL     1       4.795   6.401   1.555  0.00  0.00    +0.001 A 
ATOM      9  C   UNL     1       3.825   7.186   0.970  0.00  0.00    +0.015 A 
ATOM     10  C   UNL     1       2.514   6.714   0.868  0.00  0.00    +0.058 A 
BRANCH  10  11
ATOM     11  C   UNL     1       1.471   7.549   0.243  0.00  0.00    +0.246 C 
ATOM     12  O   UNL     1       0.315   7.174   0.238  0.00  0.00    -0.270 OA
ATOM     13  N   UNL     1       1.800   8.727  -0.322  0.00  0.00    -0.308 N 
ATOM     14  H   UNL     1       2.723   9.026  -0.318  0.00  0.00    +0.149 HD
BRANCH  13  15
ATOM     15  C   UNL     1       0.765   9.557  -0.943  0.00  0.00    +0.131 C 
BRANCH  15  16
ATOM     16  C   UNL     1       1.390  10.811  -1.497  0.00  0.00    -0.016 C 
ATOM     17  C   UNL     1       1.221  11.126  -2.757  0.00  0.00    +0.005 C 
ENDBRANCH  15  16
ENDBRANCH  13  15
ENDBRANCH  10  11
ENDBRANCH   3   5
BRANCH   1  18
ATOM     18  C   UNL     1      -0.749   3.109   1.284  0.00  0.00    +0.118 C 
BRANCH  18  20
ATOM     19  C   UNL     1      -0.026   1.092  -0.002  0.00  0.00    +0.028 C 
ATOM     20  C   UNL     1      -0.728   1.579   1.267  0.00  0.00    +0.102 C 
BRANCH  20  21
ATOM     21  C   UNL     1      -2.142   1.057   1.291  0.00  0.00    -0.030 A 
ATOM     22  C   UNL     1      -3.204   1.941   1.327  0.00  0.00    +0.005 A 
ATOM     23  C   UNL     1      -4.501   1.462   1.344  0.00  0.00    +0.000 A 
ATOM     24  C   UNL     1      -4.735   0.100   1.333  0.00  0.00    +0.000 A 
ATOM     25  C   UNL     1      -3.672  -0.784   1.302  0.00  0.00    +0.000 A 
ATOM     26  C   UNL     1      -2.376  -0.305   1.281  0.00  0.00    +0.005 A 
ENDBRANCH  20  21
BRANCH  20  27
ATOM     27  C   UNL     1       0.014   1.074   2.478  0.00  0.00    +0.366 C 
ATOM     28  O   UNL     1       1.003   0.394   2.340  0.00  0.00    -0.245 OA
ATOM     29  O   UNL     1      -0.424   1.379   3.709  0.00  0.00    -0.245 OA
ENDBRANCH  20  27
ENDBRANCH  18  20
ENDBRANCH   1  18
TORSDOF 8
