REMARK  Name = ZINC41596244
REMARK  6 active torsions:
REMARK  status: ('A' for Active; 'I' for Inactive)
REMARK    1  A    between atoms: C_1  and  C_2
REMARK    2  A    between atoms: C_5  and  C_20
REMARK    3  A    between atoms: C_6  and  N_8
REMARK    4  A    between atoms: C_15  and  C_17
REMARK    5  A    between atoms: C_17  and  C_18
REMARK    6  A    between atoms: C_17  and  C_19
REMARK                            x       y       z     vdW  Elec       q    Type
REMARK                         _______ _______ _______ _____ _____    ______ ____
ROOT
ATOM      1  N   UNL     1       0.051  -2.797   2.392  0.00  0.00    -0.285 N 
ATOM      2  C   UNL     1      -0.056  -2.122   3.580  0.00  0.00    +0.200 A 
ATOM      3  N   UNL     1      -0.181  -0.767   3.570  0.00  0.00    -0.295 N 
ATOM      4  H   UNL     1      -0.194  -0.286   2.728  0.00  0.00    +0.172 HD
ATOM      5  C   UNL     1      -0.286  -0.095   4.736  0.00  0.00    +0.253 A 
ATOM      6  O   UNL     1      -0.399   1.120   4.746  0.00  0.00    -0.268 OA
ATOM      7  C   UNL     1      -0.264  -0.822   5.940  0.00  0.00    +0.093 A 
ATOM      8  C   UNL     1      -0.136  -2.180   5.888  0.00  0.00    +0.053 A 
ATOM      9  N   UNL     1      -0.041  -2.797   4.712  0.00  0.00    -0.220 NA
ATOM     10  H   UNL     1       0.129  -2.305   1.560  0.00  0.00    +0.155 HD
ENDROOT
BRANCH   1  16
ATOM     11  C   UNL     1      -1.214  -7.044   4.521  0.00  0.00    +0.044 C 
ATOM     12  C   UNL     1      -0.559  -6.280   3.399  0.00  0.00    -0.049 A 
ATOM     13  C   UNL     1       0.040  -6.963   2.356  0.00  0.00    +0.004 A 
ATOM     14  C   UNL     1       0.643  -6.266   1.325  0.00  0.00    +0.005 A 
ATOM     15  C   UNL     1       0.648  -4.884   1.334  0.00  0.00    -0.029 A 
ATOM     16  C   UNL     1       0.047  -4.196   2.380  0.00  0.00    +0.037 A 
ATOM     17  C   UNL     1      -0.562  -4.899   3.411  0.00  0.00    +0.027 A 
ATOM     18  C   UNL     1       1.306  -4.125   0.211  0.00  0.00    +0.045 C 
ENDBRANCH   1  16
BRANCH   8  19
ATOM     19  C   UNL     1      -0.108  -2.982   7.163  0.00  0.00    +0.032 C 
ATOM     20  C   UNL     1      -1.272  -3.976   7.165  0.00  0.00    +0.014 C 
ATOM     21  C   UNL     1       1.214  -3.746   7.257  0.00  0.00    +0.014 C 
ENDBRANCH   8  19
TORSDOF 2
