REMARK  Name = ZINC22574480
REMARK  12 active torsions:
REMARK  status: ('A' for Active; 'I' for Inactive)
REMARK    1  A    between atoms: C_1  and  C_2
REMARK    2  A    between atoms: N_4  and  C_5
REMARK    3  A    between atoms: C_8  and  S_11
REMARK    4  A    between atoms: S_11  and  N_14
REMARK    5  A    between atoms: N_14  and  C_15
REMARK    6  A    between atoms: C_16  and  C_29
REMARK    7  A    between atoms: C_21  and  C_25
REMARK    8  A    between atoms: C_25  and  C_26
REMARK    9  A    between atoms: C_25  and  C_27
REMARK   10  A    between atoms: C_25  and  C_28
REMARK   11  A    between atoms: C_29  and  O_31
REMARK   12  A    between atoms: O_31  and  C_32
REMARK                            x       y       z     vdW  Elec       q    Type
REMARK                         _______ _______ _______ _____ _____    ______ ____
ROOT
ATOM      1  C   UNL     1      -1.122  -3.131  -1.133  0.00  0.00    +0.126 A 
ATOM      2  C   UNL     1      -1.000  -2.578   0.136  0.00  0.00    +0.094 A 
ATOM      3  C   UNL     1      -0.933  -3.495   1.263  0.00  0.00    -0.021 A 
ATOM      4  C   UNL     1      -1.009  -4.804   0.945  0.00  0.00    -0.004 A 
ATOM      5  S   UNL     1      -1.154  -4.835  -0.819  0.00  0.00    -0.074 S 
ATOM      6  C   UNL     1      -0.972  -5.967   1.888  0.00  0.00    +0.046 C 
ATOM      7  C   UNL     1      -0.465  -5.469   3.250  0.00  0.00    -0.000 C 
ATOM      8  C   UNL     1      -1.231  -4.198   3.626  0.00  0.00    +0.009 C 
ATOM      9  C   UNL     1      -0.807  -3.046   2.714  0.00  0.00    +0.037 C 
ENDROOT
BRANCH   7  10
ATOM     10  C   UNL     1      -0.704  -6.545   4.311  0.00  0.00    -0.035 C 
ATOM     11  C   UNL     1       0.049  -7.820   3.923  0.00  0.00    +0.011 C 
ATOM     12  C   UNL     1      -0.198  -6.047   5.666  0.00  0.00    +0.011 C 
ATOM     13  C   UNL     1      -2.201  -6.846   4.404  0.00  0.00    +0.011 C 
ENDBRANCH   7  10
BRANCH   2  14
ATOM     14  C   UNL     1      -0.934  -1.130   0.330  0.00  0.00    +0.342 C 
ATOM     15  O   UNL     1      -1.956  -0.491   0.497  0.00  0.00    -0.245 OA
BRANCH  14  16
ATOM     16  O   UNL     1       0.260  -0.502   0.324  0.00  0.00    -0.464 OA
ATOM     17  C   UNL     1       0.250   0.914   0.520  0.00  0.00    +0.280 C 
ENDBRANCH  14  16
ENDBRANCH   2  14
BRANCH   1  18
ATOM     18  N   UNL     1      -1.199  -2.481  -2.350  0.00  0.00    -0.090 NA
BRANCH  18  19
ATOM     19  S   UNL     1      -1.343  -3.355  -3.749  0.00  0.00    +0.092 S 
ATOM     20  O   UNL     1      -1.424  -2.413  -4.810  0.00  0.00    -0.148 OA
ATOM     21  O   UNL     1      -0.344  -4.365  -3.701  0.00  0.00    -0.148 OA
BRANCH  19  25
ATOM     22  C   UNL     1      -5.339  -5.480  -3.595  0.00  0.00    +0.033 A 
ATOM     23  C   UNL     1      -5.246  -4.212  -4.153  0.00  0.00    +0.025 A 
ATOM     24  C   UNL     1      -4.026  -3.566  -4.199  0.00  0.00    +0.031 A 
ATOM     25  C   UNL     1      -2.897  -4.182  -3.689  0.00  0.00    +0.110 A 
ATOM     26  C   UNL     1      -2.986  -5.447  -3.137  0.00  0.00    +0.031 A 
ATOM     27  C   UNL     1      -4.204  -6.095  -3.084  0.00  0.00    +0.025 A 
BRANCH  22  31
ATOM     28  C   UNL     1      -8.849  -6.559  -4.421  0.00  0.00    +0.109 C 
ATOM     29  C   UNL     1      -7.476  -5.948  -4.531  0.00  0.00    +0.214 C 
ATOM     30  O   UNL     1      -7.182  -5.287  -5.505  0.00  0.00    -0.276 OA
ATOM     31  N   UNL     1      -6.574  -6.136  -3.547  0.00  0.00    -0.286 N 
ATOM     32  H   UNL     1      -6.809  -6.805  -2.706  0.00  0.00    +0.155 HD
ENDBRANCH  22  31
ENDBRANCH  19  25
ENDBRANCH  18  19
ENDBRANCH   1  18
TORSDOF 7
