REMARK  Name = ZINC38775679
REMARK  4 active torsions:
REMARK  status: ('A' for Active; 'I' for Inactive)
REMARK    1  A    between atoms: C_1  and  C_2
REMARK    2  A    between atoms: C_3  and  C_14
REMARK    3  A    between atoms: C_4  and  C_12
REMARK    4  A    between atoms: C_5  and  N_7
REMARK                            x       y       z     vdW  Elec       q    Type
REMARK                         _______ _______ _______ _____ _____    ______ ____
ROOT
ATOM      1  C   UNL     1      -2.529  -0.391   0.006  0.00  0.00    +0.253 C 
ATOM      2  O   UNL     1      -3.090  -0.095  -1.034  0.00  0.00    -0.270 OA
ATOM      3  N   UNL     1      -3.166  -0.220   1.194  0.00  0.00    -0.281 N 
ATOM      4  C   UNL     1      -4.339  -0.788   1.400  0.00  0.00    +0.036 C 
ATOM      5  C   UNL     1      -4.894  -1.711   0.403  0.00  0.00    +0.025 C 
ATOM      6  C   UNL     1      -6.091  -2.295   0.607  0.00  0.00    +0.032 C 
ATOM      7  C   UNL     1      -6.847  -2.011   1.827  0.00  0.00    +0.095 C 
ATOM      8  N   UNL     1      -8.013  -2.413   2.304  0.00  0.00    -0.190 NA
ATOM      9  C   UNL     1      -8.229  -1.831   3.492  0.00  0.00    +0.369 C 
ATOM     10  O   UNL     1      -9.334  -2.030   4.249  0.00  0.00    -0.243 OA
ATOM     11  N   UNL     1      -7.233  -1.042   3.829  0.00  0.00    -0.190 NA
ATOM     12  C   UNL     1      -6.301  -1.086   2.837  0.00  0.00    +0.097 C 
ATOM     13  C   UNL     1      -5.090  -0.499   2.636  0.00  0.00    +0.053 C 
ATOM     14  H   UNL     1      -2.759   0.318   1.890  0.00  0.00    +0.155 HD
ENDROOT
BRANCH   1  17
ATOM     15  C   UNL     1       0.136   1.278   0.131  0.00  0.00    +0.087 C 
ATOM     16  C   UNL     1       0.020  -0.221   0.030  0.00  0.00    +0.118 A 
ATOM     17  C   UNL     1      -1.162  -0.932  -0.024  0.00  0.00    +0.097 A 
ATOM     18  C   UNL     1      -0.764  -2.352  -0.118  0.00  0.00    +0.127 A 
ATOM     19  C   UNL     1       0.619  -2.347  -0.110  0.00  0.00    +0.223 A 
ATOM     20  O   UNL     1       1.045  -1.078  -0.027  0.00  0.00    -0.442 OA
BRANCH  19  21
ATOM     21  N   UNL     1       1.430  -3.467  -0.181  0.00  0.00    -0.293 N 
ATOM     22  C   UNL     1       0.997  -4.761  -0.277  0.00  0.00    +0.094 A 
ATOM     23  C   UNL     1       2.079  -5.564  -0.323  0.00  0.00    +0.020 A 
ATOM     24  C   UNL     1       3.222  -4.741  -0.254  0.00  0.00    +0.020 A 
ATOM     25  C   UNL     1       2.798  -3.464  -0.174  0.00  0.00    +0.094 A 
ENDBRANCH  19  21
BRANCH  18  26
ATOM     26  C   UNL     1      -1.628  -3.492  -0.199  0.00  0.00    +0.105 C 
ATOM     27  N   UNL     1      -2.312  -4.396  -0.264  0.00  0.00    -0.191 NA
ENDBRANCH  18  26
ENDBRANCH   1  17
TORSDOF 3
