REMARK  Name = ZINC21136926
REMARK  8 active torsions:
REMARK  status: ('A' for Active; 'I' for Inactive)
REMARK    1  A    between atoms: C_5  and  C_7
REMARK    2  A    between atoms: C_7  and  C_9
REMARK    3  A    between atoms: C_7  and  N_25
REMARK    4  A    between atoms: C_9  and  C_10
REMARK    5  A    between atoms: C_10  and  O_12
REMARK    6  A    between atoms: O_12  and  C_13
REMARK    7  A    between atoms: C_13  and  C_14
REMARK    8  A    between atoms: N_16  and  C_17
REMARK                            x       y       z     vdW  Elec       q    Type
REMARK                         _______ _______ _______ _____ _____    ______ ____
ROOT
ATOM      1  C   UNL     1      -0.334   0.913  -0.130  0.00  0.00    +0.147 C 
ENDROOT
BRANCH   1   2
ATOM      2  C   UNL     1      -1.325   1.383  -1.164  0.00  0.00    +0.310 C 
ATOM      3  O   UNL     1      -2.240   2.101  -0.840  0.00  0.00    -0.251 OA
BRANCH   2   4
ATOM      4  O   UNL     1      -1.189   1.005  -2.444  0.00  0.00    -0.455 OA
BRANCH   4   5
ATOM      5  C   UNL     1      -2.180   1.496  -3.385  0.00  0.00    +0.328 C 
BRANCH   5   6
ATOM      6  C   UNL     1      -1.869   0.971  -4.763  0.00  0.00    +0.255 C 
ATOM      7  O   UNL     1      -0.906   0.254  -4.935  0.00  0.00    -0.272 OA
ATOM      8  N   UNL     1      -2.660   1.299  -5.804  0.00  0.00    -0.281 N 
ATOM      9  H   UNL     1      -3.577   1.882  -5.635  0.00  0.00    +0.155 HD
BRANCH   8  10
ATOM     10  C   UNL     1      -2.314   0.897  -7.099  0.00  0.00    +0.053 A 
ATOM     11  C   UNL     1      -1.672  -0.317  -7.303  0.00  0.00    +0.044 A 
ATOM     12  C   UNL     1      -1.337  -0.714  -8.584  0.00  0.00    +0.043 A 
ATOM     13  C   UNL     1      -1.631   0.103  -9.662  0.00  0.00    +0.021 A 
ATOM     14  C   UNL     1      -2.266   1.315  -9.462  0.00  0.00    +0.023 A 
ATOM     15  C   UNL     1      -2.608   1.715  -8.184  0.00  0.00    +0.062 A 
ATOM     16 CL   UNL     1      -3.405   3.236  -7.934  0.00  0.00    -0.082 Cl
ATOM     17 CL   UNL     1      -0.540  -2.235  -8.840  0.00  0.00    -0.083 Cl
ENDBRANCH   8  10
ENDBRANCH   5   6
ENDBRANCH   4   5
ENDBRANCH   2   4
ENDBRANCH   1   2
BRANCH   1  18
ATOM     18  C   UNL     1      -0.714   1.484   1.237  0.00  0.00    +0.117 C 
BRANCH  18  23
ATOM     19  C   UNL     1       2.230  -0.209   2.887  0.00  0.00    +0.000 A 
ATOM     20  C   UNL     1       1.884  -0.126   4.223  0.00  0.00    +0.001 A 
ATOM     21  C   UNL     1       0.698   0.477   4.593  0.00  0.00    +0.020 A 
ATOM     22  C   UNL     1      -0.144   0.999   3.627  0.00  0.00    +0.046 A 
ATOM     23  C   UNL     1       0.203   0.916   2.291  0.00  0.00    -0.008 A 
ATOM     24  C   UNL     1       1.388   0.307   1.921  0.00  0.00    +0.007 A 
ATOM     25 CL   UNL     1      -1.635   1.757   4.092  0.00  0.00    -0.083 Cl
ENDBRANCH  18  23
BRANCH  18  26
ATOM     26  N   UNL     1      -0.583   2.942   1.211  0.00  0.00    -0.292 N 
ATOM     27  C   UNL     1       0.607   3.508   0.926  0.00  0.00    +0.298 C 
ATOM     28  O   UNL     1       1.547   2.811   0.597  0.00  0.00    -0.253 OA
ATOM     29  N   UNL     1       0.754   4.845   1.005  0.00  0.00    -0.313 N 
ATOM     30  H   UNL     1      -1.456   3.577   1.425  0.00  0.00    +0.151 HD
ATOM     31  H   UNL     1       1.725   5.306   0.772  0.00  0.00    +0.146 HD
ATOM     32  H   UNL     1      -0.097   5.475   1.303  0.00  0.00    +0.146 HD
ENDBRANCH  18  26
ENDBRANCH   1  18
TORSDOF 8
