REMARK  Name = ZINC37552961
REMARK  8 active torsions:
REMARK  status: ('A' for Active; 'I' for Inactive)
REMARK    1  A    between atoms: C_1  and  C_2
REMARK    2  A    between atoms: C_4  and  C_7
REMARK    3  A    between atoms: C_7  and  S_8
REMARK    4  A    between atoms: S_8  and  N_11
REMARK    5  A    between atoms: N_11  and  C_12
REMARK    6  A    between atoms: C_15  and  C_18
REMARK    7  A    between atoms: C_19  and  C_20
REMARK    8  A    between atoms: C_20  and  N_21
REMARK                            x       y       z     vdW  Elec       q    Type
REMARK                         _______ _______ _______ _____ _____    ______ ____
ROOT
ATOM      1  C   UNL     1      -4.148  -4.931  -0.948  0.00  0.00    +0.048 A 
ATOM      2  C   UNL     1      -4.326  -4.013   0.081  0.00  0.00    +0.025 A 
ATOM      3  C   UNL     1      -5.581  -3.805   0.612  0.00  0.00    +0.018 A 
ATOM      4  C   UNL     1      -6.674  -4.519   0.116  0.00  0.00    +0.025 A 
ATOM      5  C   UNL     1      -6.492  -5.440  -0.917  0.00  0.00    +0.018 A 
ATOM      6  C   UNL     1      -5.236  -5.640  -1.447  0.00  0.00    +0.025 A 
ENDROOT
BRANCH   1   7
ATOM      7  N   UNL     1      -2.877  -5.139  -1.484  0.00  0.00    -0.220 N 
ATOM      8  H   UNL     1      -2.382  -5.943  -1.260  0.00  0.00    +0.173 HD
BRANCH   7   9
ATOM      9  S   UNL     1      -2.213  -4.013  -2.500  0.00  0.00    +0.049 S 
ATOM     10  O   UNL     1      -0.943  -4.546  -2.851  0.00  0.00    -0.155 OA
ATOM     11  O   UNL     1      -2.313  -2.784  -1.795  0.00  0.00    -0.155 OA
BRANCH   9  12
ATOM     12  C   UNL     1      -3.304  -3.993  -3.950  0.00  0.00    +0.247 C 
BRANCH  12  16
ATOM     13  C   UNL     1      -0.708  -2.079  -7.893  0.00  0.00    +0.089 C 
ATOM     14  C   UNL     1      -1.620  -2.206  -6.700  0.00  0.00    +0.135 A 
ATOM     15  C   UNL     1      -1.858  -3.333  -6.002  0.00  0.00    +0.072 A 
ATOM     16  C   UNL     1      -2.764  -3.025  -4.971  0.00  0.00    +0.107 A 
ATOM     17  N   UNL     1      -3.055  -1.758  -5.053  0.00  0.00    -0.081 NA
ATOM     18  O   UNL     1      -2.334  -1.215  -6.145  0.00  0.00    -0.360 OA
ENDBRANCH  12  16
ENDBRANCH   9  12
ENDBRANCH   7   9
ENDBRANCH   1   7
BRANCH   4  19
ATOM     19  C   UNL     1      -7.979  -4.305   0.666  0.00  0.00    -0.068 C 
ATOM     20  C   UNL     1      -9.049  -4.131   1.117  0.00  0.00    -0.117 C 
BRANCH  20  21
ATOM     21  C   UNL     1     -10.390  -3.912   1.682  0.00  0.00    +0.005 C 
BRANCH  21  22
ATOM     22  N   UNL     1     -11.358  -4.776   0.994  0.00  0.00    +0.385 N 
ATOM     23  H   UNL     1     -11.368  -4.554   0.010  0.00  0.00    -0.089 HD
ATOM     24  H   UNL     1     -11.095  -5.742   1.118  0.00  0.00    -0.089 HD
ATOM     25  H   UNL     1     -12.278  -4.626   1.381  0.00  0.00    -0.089 HD
ENDBRANCH  21  22
ENDBRANCH  20  21
ENDBRANCH   4  19
TORSDOF 7
