REMARK  Name = ZINC31813413
REMARK  4 active torsions:
REMARK  status: ('A' for Active; 'I' for Inactive)
REMARK    1  A    between atoms: N_10  and  C_11
REMARK    2  A    between atoms: C_11  and  C_13
REMARK    3  A    between atoms: C_17  and  N_19
REMARK    4  A    between atoms: N_22  and  C_23
REMARK                            x       y       z     vdW  Elec       q    Type
REMARK                         _______ _______ _______ _____ _____    ______ ____
ROOT
ATOM      1  C   UNL     1       4.858  -5.519  -0.263  0.00  0.00    +0.041 A 
ATOM      2  C   UNL     1       3.916  -6.534  -0.092  0.00  0.00    +0.013 A 
ATOM      3  C   UNL     1       4.330  -7.840   0.074  0.00  0.00    +0.003 A 
ATOM      4  C   UNL     1       5.678  -8.148   0.070  0.00  0.00    +0.023 A 
ATOM      5  C   UNL     1       6.624  -7.145  -0.101  0.00  0.00    +0.035 A 
ATOM      6  C   UNL     1       6.217  -5.830  -0.273  0.00  0.00    +0.036 A 
ENDROOT
BRANCH   5   7
ATOM      7  N   UNL     1       7.987  -7.461  -0.103  0.00  0.00    -0.269 N 
ATOM      8  C   UNL     1       8.883  -6.585   0.391  0.00  0.00    +0.304 C 
ATOM      9  O   UNL     1       8.502  -5.562   0.928  0.00  0.00    -0.253 OA
ATOM     10  N   UNL     1      10.203  -6.841   0.292  0.00  0.00    -0.295 N 
ATOM     11  H   UNL     1       8.287  -8.311  -0.462  0.00  0.00    +0.156 HD
ATOM     12  H   UNL     1      10.507  -7.657  -0.136  0.00  0.00    +0.151 HD
BRANCH  10  13
ATOM     13  C   UNL     1      11.177  -5.889   0.830  0.00  0.00    +0.097 C 
ATOM     14  C   UNL     1      11.490  -4.815  -0.225  0.00  0.00    +0.046 C 
ATOM     15  C   UNL     1      12.737  -4.003   0.202  0.00  0.00    +0.168 C 
ATOM     16  S   UNL     1      13.678  -5.213   1.218  0.00  0.00    -0.029 S 
ATOM     17  O   UNL     1      13.768  -4.727   2.551  0.00  0.00    -0.174 OA
ATOM     18  O   UNL     1      14.864  -5.575   0.525  0.00  0.00    -0.174 OA
ATOM     19  C   UNL     1      12.501  -6.629   1.175  0.00  0.00    +0.188 C 
ENDBRANCH  10  13
ENDBRANCH   5   7
BRANCH   1  20
ATOM     20  C   UNL     1       4.416  -4.117  -0.441  0.00  0.00    +0.269 C 
ATOM     21  O   UNL     1       5.240  -3.233  -0.596  0.00  0.00    -0.268 OA
BRANCH  20  31
ATOM     22  C   UNL     1      -0.016   1.324  -1.026  0.00  0.00    +0.002 A 
ATOM     23  C   UNL     1       1.158   2.045  -1.171  0.00  0.00    +0.001 A 
ATOM     24  C   UNL     1       2.371   1.381  -1.126  0.00  0.00    +0.017 A 
ATOM     25  C   UNL     1       2.392   0.019  -0.937  0.00  0.00    +0.039 A 
ATOM     26  C   UNL     1       1.219  -0.735  -0.787  0.00  0.00    +0.055 A 
ATOM     27  C   UNL     1       0.003  -0.038  -0.837  0.00  0.00    +0.027 A 
ATOM     28  N   UNL     1       1.444  -2.087  -0.608  0.00  0.00    -0.335 N 
ATOM     29  H   UNL     1       0.695  -2.693  -0.495  0.00  0.00    +0.168 HD
ATOM     30  C   UNL     1       2.715  -2.563  -0.591  0.00  0.00    +0.164 A 
ATOM     31  N   UNL     1       3.112  -3.821  -0.432  0.00  0.00    -0.152 NA
ATOM     32  S   UNL     1       3.674  -1.201  -0.818  0.00  0.00    -0.052 S 
ENDBRANCH  20  31
ENDBRANCH   1  20
TORSDOF 4
