REMARK  Name = ZINC39696679
REMARK  6 active torsions:
REMARK  status: ('A' for Active; 'I' for Inactive)
REMARK    1  A    between atoms: C_1  and  N_2
REMARK    2  A    between atoms: C_6  and  C_9
REMARK    3  A    between atoms: C_9  and  N_10
REMARK    4  A    between atoms: C_11  and  C_13
REMARK    5  A    between atoms: C_24  and  C_26
REMARK    6  A    between atoms: C_29  and  C_33
REMARK                            x       y       z     vdW  Elec       q    Type
REMARK                         _______ _______ _______ _____ _____    ______ ____
ROOT
ATOM      1  C   UNL     1       1.590  -5.936   3.710  0.00  0.00    +0.100 C 
ATOM      2  C   UNL     1       0.239  -6.684   3.764  0.00  0.00    +0.121 C 
ATOM      3  N   UNL     1       0.520  -7.910   4.547  0.00  0.00    -0.296 N 
ATOM      4  C   UNL     1       1.437  -7.459   5.621  0.00  0.00    +0.115 C 
ATOM      5  C   UNL     1       2.373  -6.447   4.931  0.00  0.00    -0.004 C 
ATOM      6  C   UNL     1       2.691  -5.293   5.876  0.00  0.00    -0.010 C 
ATOM      7  C   UNL     1       3.520  -5.816   7.053  0.00  0.00    -0.082 C 
ATOM      8  N   UNL     1       4.761  -6.418   6.550  0.00  0.00    +0.379 N 
ATOM      9  C   UNL     1       4.449  -7.585   5.716  0.00  0.00    -0.082 C 
ATOM     10  C   UNL     1       3.659  -7.137   4.483  0.00  0.00    -0.010 C 
ATOM     11  C   UNL     1       0.050  -9.154   4.331  0.00  0.00    +0.247 C 
ATOM     12  O   UNL     1      -0.595  -9.394   3.329  0.00  0.00    -0.270 OA
ATOM     13  H   UNL     1       5.264  -5.738   6.000  0.00  0.00    -0.086 HD
ATOM     14  H   UNL     1       5.333  -6.707   7.329  0.00  0.00    -0.086 HD
ENDROOT
BRANCH  11  15
ATOM     15  C   UNL     1       0.317 -10.227   5.313  0.00  0.00    +0.040 A 
ATOM     16  C   UNL     1       0.658  -9.904   6.627  0.00  0.00    +0.014 A 
ATOM     17  C   UNL     1       0.906 -10.908   7.540  0.00  0.00    +0.016 A 
ATOM     18  C   UNL     1       0.817 -12.234   7.155  0.00  0.00    +0.090 A 
ATOM     19  C   UNL     1       0.480 -12.563   5.852  0.00  0.00    +0.136 A 
ATOM     20  C   UNL     1       0.224 -11.565   4.930  0.00  0.00    +0.052 A 
ATOM     21  F   UNL     1       0.396 -13.860   5.483  0.00  0.00    -0.205 F 
BRANCH  18  22
ATOM     22  C   UNL     1       1.090 -13.326   8.158  0.00  0.00    +0.420 C 
ATOM     23  F   UNL     1       1.408 -12.755   9.395  0.00  0.00    -0.166 F 
ATOM     24  F   UNL     1      -0.048 -14.129   8.294  0.00  0.00    -0.166 F 
ATOM     25  F   UNL     1       2.162 -14.108   7.716  0.00  0.00    -0.166 F 
ENDBRANCH  18  22
ENDBRANCH  11  15
BRANCH   1  27
ATOM     26  N   UNL     1       2.229  -3.599   3.213  0.00  0.00    -0.313 N 
ATOM     27  C   UNL     1       1.372  -4.449   3.812  0.00  0.00    +0.218 C 
ATOM     28  O   UNL     1       0.424  -4.016   4.433  0.00  0.00    -0.275 OA
ATOM     29  H   UNL     1       2.987  -3.945   2.716  0.00  0.00    +0.149 HD
BRANCH  26  30
ATOM     30  C   UNL     1       2.017  -2.153   3.312  0.00  0.00    +0.137 C 
BRANCH  30  36
ATOM     31  C   UNL     1       3.814   2.244   2.018  0.00  0.00    +0.105 C 
ATOM     32  N   UNL     1       4.013   0.788   1.988  0.00  0.00    -0.301 NA
ATOM     33  C   UNL     1       5.302   0.421   2.593  0.00  0.00    +0.112 C 
ATOM     34  C   UNL     1       5.495  -1.094   2.487  0.00  0.00    +0.175 C 
ATOM     35  O   UNL     1       4.394  -1.756   3.115  0.00  0.00    -0.372 OA
ATOM     36  C   UNL     1       3.123  -1.421   2.550  0.00  0.00    +0.149 C 
ATOM     37  C   UNL     1       2.906   0.090   2.657  0.00  0.00    +0.117 C 
ENDBRANCH  30  36
ENDBRANCH  26  30
ENDBRANCH   1  27
TORSDOF 5
