REMARK  Name = ZINC20732785
REMARK  2 active torsions:
REMARK  status: ('A' for Active; 'I' for Inactive)
REMARK    1  A    between atoms: C_3  and  O_19
REMARK    2  A    between atoms: C_6  and  C_7
REMARK                            x       y       z     vdW  Elec       q    Type
REMARK                         _______ _______ _______ _____ _____    ______ ____
ROOT
ATOM      1  C   UNL     1      -1.293  -0.774   0.011  0.00  0.00    +0.063 C 
ATOM      2  C   UNL     1      -1.350  -1.674   1.248  0.00  0.00    +0.109 C 
ATOM      3  C   UNL     1      -0.468  -2.879   1.104  0.00  0.00    +0.219 C 
ATOM      4  O   UNL     1       0.134  -3.277   2.079  0.00  0.00    -0.275 OA
ATOM      5  N   UNL     1      -0.316  -3.540  -0.063  0.00  0.00    -0.269 N 
ATOM      6  C   UNL     1      -0.894  -2.980  -1.213  0.00  0.00    +0.150 A 
ATOM      7  C   UNL     1      -1.374  -1.647  -1.215  0.00  0.00    +0.020 A 
ATOM      8  C   UNL     1      -1.862  -1.384  -2.435  0.00  0.00    +0.111 A 
ATOM      9  N   UNL     1      -1.708  -2.498  -3.189  0.00  0.00    -0.283 N 
ATOM     10  H   UNL     1      -1.973  -2.598  -4.117  0.00  0.00    +0.188 HD
ATOM     11  N   UNL     1      -1.098  -3.484  -2.393  0.00  0.00    -0.158 NA
ATOM     12  H   UNL     1       0.177  -4.374  -0.106  0.00  0.00    +0.156 HD
ENDROOT
BRANCH   1  18
ATOM     13  C   UNL     1      -0.017   1.378   0.010  0.00  0.00    +0.008 A 
ATOM     14  C   UNL     1       1.169   2.087   0.002  0.00  0.00    +0.045 A 
ATOM     15  C   UNL     1       2.380   1.409  -0.013  0.00  0.00    +0.117 A 
ATOM     16  C   UNL     1       2.396   0.022  -0.021  0.00  0.00    +0.045 A 
ATOM     17  C   UNL     1       1.207  -0.681  -0.013  0.00  0.00    +0.008 A 
ATOM     18  C   UNL     1       0.002  -0.004   0.002  0.00  0.00    -0.039 A 
BRANCH  15  19
ATOM     19  O   UNL     1       3.548   2.104  -0.021  0.00  0.00    -0.507 OA
ATOM     20  H   UNL     1       3.895   2.300   0.860  0.00  0.00    +0.292 HD
ENDBRANCH  15  19
ENDBRANCH   1  18
TORSDOF 2
