REMARK  Name = ZINC42974828
REMARK  6 active torsions:
REMARK  status: ('A' for Active; 'I' for Inactive)
REMARK    1  A    between atoms: C_3  and  C_8
REMARK    2  A    between atoms: C_8  and  C_10
REMARK    3  A    between atoms: C_8  and  S_12
REMARK    4  A    between atoms: C_10  and  N_11
REMARK    5  A    between atoms: S_12  and  C_13
REMARK    6  A    between atoms: C_19  and  N_21
REMARK                            x       y       z     vdW  Elec       q    Type
REMARK                         _______ _______ _______ _____ _____    ______ ____
ROOT
ATOM      1  C   UNL     1       3.702   2.143  -0.000  0.00  0.00    +0.067 C 
ENDROOT
BRANCH   1   4
ATOM      2  C   UNL     1       0.140   0.915  -0.256  0.00  0.00    +0.003 A 
ATOM      3  C   UNL     1       1.234   1.754  -0.138  0.00  0.00    +0.005 A 
ATOM      4  C   UNL     1       2.512   1.228  -0.129  0.00  0.00    -0.033 A 
ATOM      5  C   UNL     1       2.698  -0.138  -0.238  0.00  0.00    +0.043 A 
ATOM      6  C   UNL     1       1.604  -0.978  -0.356  0.00  0.00    +0.124 A 
ATOM      7  C   UNL     1       0.324  -0.450  -0.365  0.00  0.00    +0.038 A 
ATOM      8  F   UNL     1       1.786  -2.312  -0.464  0.00  0.00    -0.205 F 
ENDBRANCH   1   4
BRANCH   1   9
ATOM      9  C   UNL     1       4.599   1.989  -1.230  0.00  0.00    -0.067 C 
BRANCH   9  10
ATOM     10  N   UNL     1       5.689   2.971  -1.168  0.00  0.00    +0.379 N 
ATOM     11  H   UNL     1       5.302   3.897  -1.064  0.00  0.00    -0.090 HD
ATOM     12  H   UNL     1       6.283   2.765  -0.379  0.00  0.00    -0.090 HD
ATOM     13  H   UNL     1       6.231   2.927  -2.017  0.00  0.00    -0.090 HD
ENDBRANCH   9  10
ENDBRANCH   1   9
BRANCH   1  14
ATOM     14  S   UNL     1       4.641   1.708   1.490  0.00  0.00    -0.082 S 
BRANCH  14  15
ATOM     15  C   UNL     1       3.571   2.161   2.815  0.00  0.00    +0.171 A 
ATOM     16  N   UNL     1       3.934   1.870   4.095  0.00  0.00    -0.302 N 
ATOM     17  H   UNL     1       4.774   1.418   4.269  0.00  0.00    +0.171 HD
ATOM     18  C   UNL     1       3.127   2.209   5.122  0.00  0.00    +0.254 A 
ATOM     19  O   UNL     1       3.444   1.952   6.272  0.00  0.00    -0.268 OA
ATOM     20  C   UNL     1       1.920   2.860   4.846  0.00  0.00    +0.113 A 
ATOM     21  C   UNL     1       1.597   3.134   3.524  0.00  0.00    +0.124 A 
ATOM     22  N   UNL     1       2.438   2.779   2.547  0.00  0.00    -0.209 NA
BRANCH  21  23
ATOM     23  N   UNL     1       0.413   3.776   3.220  0.00  0.00    -0.343 N 
ATOM     24  H   UNL     1      -0.194   4.036   3.930  0.00  0.00    +0.144 HD
ATOM     25  H   UNL     1       0.189   3.966   2.295  0.00  0.00    +0.144 HD
ENDBRANCH  21  23
ENDBRANCH  14  15
ENDBRANCH   1  14
TORSDOF 6
