REMARK  Name = ZINC03269611
REMARK  10 active torsions:
REMARK  status: ('A' for Active; 'I' for Inactive)
REMARK    1  A    between atoms: C_1  and  C_2
REMARK    2  A    between atoms: C_4  and  C_24
REMARK    3  A    between atoms: C_5  and  C_9
REMARK    4  A    between atoms: C_6  and  C_8
REMARK    5  A    between atoms: C_9  and  C_11
REMARK    6  A    between atoms: C_11  and  S_12
REMARK    7  A    between atoms: S_12  and  C_13
REMARK    8  A    between atoms: C_14  and  C_21
REMARK    9  A    between atoms: C_15  and  C_20
REMARK   10  A    between atoms: C_17  and  C_19
REMARK                            x       y       z     vdW  Elec       q    Type
REMARK                         _______ _______ _______ _____ _____    ______ ____
ROOT
ATOM      1  S   UNL     1       1.028  -6.011   2.729  0.00  0.00    -0.097 S 
ENDROOT
BRANCH   1   2
ATOM      2  C   UNL     1       0.983  -6.175   4.483  0.00  0.00    +0.110 A 
ATOM      3  C   UNL     1       1.209  -7.431   5.073  0.00  0.00    +0.071 A 
ATOM      4  C   UNL     1       1.169  -7.537   6.468  0.00  0.00    -0.034 A 
ATOM      5  C   UNL     1       0.908  -6.396   7.207  0.00  0.00    +0.027 A 
ATOM      6  C   UNL     1       0.696  -5.195   6.554  0.00  0.00    +0.040 A 
ATOM      7  N   UNL     1       0.743  -5.114   5.238  0.00  0.00    -0.245 NA
ATOM      8  C   UNL     1       0.412  -3.954   7.361  0.00  0.00    +0.065 C 
ATOM      9  C   UNL     1       1.403  -8.860   7.149  0.00  0.00    +0.044 C 
BRANCH   3  10
ATOM     10  C   UNL     1       1.482  -8.615   4.239  0.00  0.00    +0.244 C 
ATOM     11  O   UNL     1       2.627  -8.897   3.939  0.00  0.00    -0.270 OA
ATOM     12  N   UNL     1       0.463  -9.385   3.807  0.00  0.00    -0.325 N 
ATOM     13  H   UNL     1      -0.449  -9.160   4.046  0.00  0.00    +0.145 HD
ATOM     14  H   UNL     1       0.643 -10.164   3.258  0.00  0.00    +0.145 HD
ENDBRANCH   3  10
ENDBRANCH   1   2
BRANCH   1  15
ATOM     15  C   UNL     1       0.697  -4.250   2.445  0.00  0.00    +0.155 C 
BRANCH  15  16
ATOM     16  C   UNL     1       0.707  -3.969   0.964  0.00  0.00    +0.174 C 
ATOM     17  O   UNL     1       1.009  -4.846   0.183  0.00  0.00    -0.291 OA
BRANCH  16  22
ATOM     18  C   UNL     1      -0.690   1.256  -0.983  0.00  0.00    +0.044 C 
ATOM     19  C   UNL     1      -0.324  -0.113  -0.472  0.00  0.00    -0.050 A 
ATOM     20  C   UNL     1       0.973  -0.372  -0.063  0.00  0.00    +0.007 A 
ATOM     21  C   UNL     1       1.316  -1.623   0.405  0.00  0.00    -0.039 A 
ATOM     22  C   UNL     1       0.349  -2.631   0.466  0.00  0.00    +0.024 A 
ATOM     23  C   UNL     1      -0.959  -2.362   0.052  0.00  0.00    -0.039 A 
ATOM     24  C   UNL     1      -1.288  -1.105  -0.409  0.00  0.00    +0.007 A 
ATOM     25  C   UNL     1      -2.009  -3.442   0.113  0.00  0.00    +0.044 C 
ATOM     26  C   UNL     1       2.729  -1.902   0.849  0.00  0.00    +0.044 C 
ENDBRANCH  16  22
ENDBRANCH  15  16
ENDBRANCH   1  15
TORSDOF 5
