REMARK  Name = ZINC09253479
REMARK  7 active torsions:
REMARK  status: ('A' for Active; 'I' for Inactive)
REMARK    1  A    between atoms: C_1  and  C_2
REMARK    2  A    between atoms: C_2  and  C_3
REMARK    3  A    between atoms: C_3  and  C_4
REMARK    4  A    between atoms: C_4  and  C_6
REMARK    5  A    between atoms: C_4  and  N_7
REMARK    6  A    between atoms: C_8  and  C_10
REMARK    7  A    between atoms: C_10  and  N_11
REMARK                            x       y       z     vdW  Elec       q    Type
REMARK                         _______ _______ _______ _____ _____    ______ ____
ROOT
ATOM      1  C   UNL     1       2.424   1.016  -0.015  0.00  0.00    +0.221 C 
ENDROOT
BRANCH   1   2
ATOM      2  N   UNL     1       1.161   1.759   0.000  0.00  0.00    -0.290 N 
ATOM      3  C   UNL     1      -0.013   1.076   0.008  0.00  0.00    +0.203 A 
ATOM      4  N   UNL     1      -1.159   1.702   0.017  0.00  0.00    -0.230 NA
ATOM      5  C   UNL     1      -1.214   3.030   0.029  0.00  0.00    +0.115 A 
ATOM      6  C   UNL     1      -0.052   3.823   0.023  0.00  0.00    +0.072 A 
ATOM      7  C   UNL     1       1.188   3.104   0.007  0.00  0.00    +0.263 A 
ATOM      8  O   UNL     1       2.250   3.703   0.001  0.00  0.00    -0.267 OA
ATOM      9  C   UNL     1      -0.286   5.255   0.033  0.00  0.00    +0.023 A 
ATOM     10  C   UNL     1      -1.548   5.713   0.047  0.00  0.00    +0.048 A 
ATOM     11  S   UNL     1      -2.527   4.223   0.048  0.00  0.00    -0.077 S 
ENDBRANCH   1   2
BRANCH   1  13
ATOM     12  N   UNL     1       3.983   0.098  -1.702  0.00  0.00    -0.311 N 
ATOM     13  C   UNL     1       2.843   0.768  -1.441  0.00  0.00    +0.233 C 
ATOM     14  O   UNL     1       2.155   1.173  -2.355  0.00  0.00    -0.274 OA
ATOM     15  H   UNL     1       4.533  -0.226  -0.971  0.00  0.00    +0.149 HD
BRANCH  12  16
ATOM     16  C   UNL     1       4.391  -0.143  -3.088  0.00  0.00    +0.070 C 
ATOM     17  C   UNL     1       5.159   1.072  -3.612  0.00  0.00    +0.028 C 
BRANCH  16  18
ATOM     18  C   UNL     1       5.290  -1.380  -3.147  0.00  0.00    +0.022 C 
BRANCH  18  20
ATOM     19  C   UNL     1       5.384  -3.852  -2.802  0.00  0.00    +0.004 C 
ATOM     20  C   UNL     1       4.485  -2.616  -2.742  0.00  0.00    -0.002 C 
ENDBRANCH  18  20
ENDBRANCH  16  18
ENDBRANCH  12  16
ENDBRANCH   1  13
TORSDOF 5
