REMARK  Name = ZINC63807886
REMARK  6 active torsions:
REMARK  status: ('A' for Active; 'I' for Inactive)
REMARK    1  A    between atoms: C_1  and  O_2
REMARK    2  A    between atoms: O_2  and  C_3
REMARK    3  A    between atoms: C_5  and  C_11
REMARK    4  A    between atoms: C_7  and  O_9
REMARK    5  A    between atoms: O_9  and  C_10
REMARK    6  A    between atoms: C_17  and  C_20
REMARK                            x       y       z     vdW  Elec       q    Type
REMARK                         _______ _______ _______ _____ _____    ______ ____
ROOT
ATOM      1  C   UNL     1       1.392  -4.107   2.219  0.00  0.00    +0.182 A 
ATOM      2  N   UNL     1       0.679  -4.941   1.504  0.00  0.00    -0.127 NA
ATOM      3  N   UNL     1       0.979  -6.153   1.814  0.00  0.00    -0.120 NA
ATOM      4  C   UNL     1       1.881  -6.154   2.748  0.00  0.00    +0.211 A 
ATOM      5  N   UNL     1       2.228  -4.859   3.039  0.00  0.00    -0.220 N 
ATOM      6  N   UNL     1       3.215  -4.623   3.950  0.00  0.00    -0.265 N 
ATOM      7  C   UNL     1       3.479  -5.741   4.894  0.00  0.00    +0.184 C 
ATOM      8  S   UNL     1       2.889  -7.135   3.841  0.00  0.00    -0.058 S 
ATOM      9  H   UNL     1       4.064  -4.327   3.493  0.00  0.00    +0.168 HD
ENDROOT
BRANCH   1  12
ATOM     10  C   UNL     1       0.626  -0.618   1.042  0.00  0.00    +0.124 A 
ATOM     11  C   UNL     1       0.686  -2.001   1.093  0.00  0.00    +0.057 A 
ATOM     12  C   UNL     1       1.326  -2.631   2.160  0.00  0.00    +0.028 A 
ATOM     13  C   UNL     1       1.904  -1.864   3.172  0.00  0.00    +0.057 A 
ATOM     14  C   UNL     1       1.840  -0.482   3.114  0.00  0.00    +0.124 A 
ATOM     15  C   UNL     1       1.207   0.141   2.047  0.00  0.00    +0.091 A 
BRANCH  10  17
ATOM     16  C   UNL     1      -0.017   1.425   0.010  0.00  0.00    +0.277 C 
ATOM     17  O   UNL     1       0.002  -0.004   0.002  0.00  0.00    -0.495 OA
ENDBRANCH  10  17
BRANCH  14  18
ATOM     18  O   UNL     1       2.402   0.266   4.099  0.00  0.00    -0.495 OA
ATOM     19  C   UNL     1       2.299   1.686   3.975  0.00  0.00    +0.277 C 
ENDBRANCH  14  18
ENDBRANCH   1  12
BRANCH   7  20
ATOM     20  C   UNL     1       4.969  -5.863   5.219  0.00  0.00    +0.198 C 
ATOM     21  C   UNL     1       5.208  -6.971   6.230  0.00  0.00    +0.044 C 
ATOM     22  C   UNL     1       5.740  -6.338   7.281  0.00  0.00    +0.147 C 
ATOM     23  N   UNL     1       5.849  -5.014   7.037  0.00  0.00    -0.161 NA
ATOM     24  N   UNL     1       5.449  -4.660   5.921  0.00  0.00    -0.176 NA
ATOM     25 BR   UNL     1       4.841  -8.817   6.045  0.00  0.00    -0.051 Br
ENDBRANCH   7  20
TORSDOF 4
