REMARK  Name = ZINC15733818
REMARK  8 active torsions:
REMARK  status: ('A' for Active; 'I' for Inactive)
REMARK    1  A    between atoms: C_1  and  C_2
REMARK    2  A    between atoms: C_5  and  C_8
REMARK    3  A    between atoms: C_8  and  N_64
REMARK    4  A    between atoms: C_11  and  C_14
REMARK    5  A    between atoms: C_14  and  N_15
REMARK    6  A    between atoms: N_15  and  S_16
REMARK    7  A    between atoms: S_16  and  C_19
REMARK    8  A    between atoms: C_24  and  C_25
REMARK                            x       y       z     vdW  Elec       q    Type
REMARK                         _______ _______ _______ _____ _____    ______ ____
ROOT
ATOM      1  S   UNL     1       1.667   1.692   2.579  0.00  0.00    +0.059 S 
ATOM      2  O   UNL     1       2.237   2.576   1.623  0.00  0.00    -0.153 OA
ATOM      3  O   UNL     1       1.915   1.815   3.973  0.00  0.00    -0.153 OA
ENDROOT
BRANCH   1   4
ATOM      4  C   UNL     1      -0.080   1.784   2.368  0.00  0.00    +0.110 A 
ATOM      5  C   UNL     1      -0.611   2.631   1.420  0.00  0.00    +0.055 A 
ATOM      6  C   UNL     1      -1.988   2.708   1.248  0.00  0.00    +0.049 A 
ATOM      7  C   UNL     1      -2.830   1.914   2.050  0.00  0.00    +0.011 A 
ATOM      8  C   UNL     1      -2.277   1.059   2.999  0.00  0.00    +0.016 A 
ATOM      9  C   UNL     1      -0.910   1.001   3.158  0.00  0.00    -0.023 A 
ATOM     10  C   UNL     1      -0.312   0.080   4.190  0.00  0.00    +0.046 C 
ATOM     11  C   UNL     1      -4.193   2.231   1.619  0.00  0.00    +0.046 A 
ATOM     12  C   UNL     1      -4.083   3.180   0.613  0.00  0.00    +0.028 A 
ATOM     13  N   UNL     1      -2.789   3.450   0.399  0.00  0.00    -0.357 N 
ATOM     14  H   UNL     1      -2.459   4.079  -0.262  0.00  0.00    +0.166 HD
ATOM     15  C   UNL     1      -5.299   3.763  -0.069  0.00  0.00    +0.054 C 
ATOM     16  C   UNL     1      -6.478   3.681   0.909  0.00  0.00    +0.014 C 
ATOM     17  C   UNL     1      -6.688   2.240   1.375  0.00  0.00    +0.080 C 
ATOM     18  C   UNL     1      -5.440   1.733   2.067  0.00  0.00    +0.165 C 
ATOM     19  O   UNL     1      -5.507   0.927   2.972  0.00  0.00    -0.292 OA
ENDBRANCH   1   4
BRANCH   1  20
ATOM     20  N   UNL     1       2.133   0.163   2.148  0.00  0.00    -0.190 NA
ATOM     21  H   UNL     1       2.520  -0.431   2.810  0.00  0.00    +0.148 HD
BRANCH  20  22
ATOM     22  C   UNL     1       1.960  -0.293   0.766  0.00  0.00    +0.107 C 
BRANCH  22  25
ATOM     23  C   UNL     1       4.884  -2.090  -0.574  0.00  0.00    -0.078 C 
ATOM     24  C   UNL     1       4.307  -1.200   0.555  0.00  0.00    -0.016 C 
ATOM     25  C   UNL     1       2.801  -1.550   0.536  0.00  0.00    -0.014 C 
ATOM     26  C   UNL     1       2.539  -2.118  -0.872  0.00  0.00    -0.074 C 
ATOM     27  N   UNL     1       3.820  -2.048  -1.583  0.00  0.00    +0.383 N 
ATOM     28  H   UNL     1       3.877  -1.169  -2.111  0.00  0.00    -0.081 HD
BRANCH  27  29
ATOM     29  C   UNL     1       3.948  -3.196  -2.531  0.00  0.00    -0.043 C 
BRANCH  29  34
ATOM     30  C   UNL     1       9.329  -3.370  -4.630  0.00  0.00    +0.044 C 
ATOM     31  C   UNL     1       7.926  -3.326  -4.083  0.00  0.00    -0.050 A 
ATOM     32  C   UNL     1       7.615  -4.006  -2.921  0.00  0.00    +0.003 A 
ATOM     33  C   UNL     1       6.328  -3.964  -2.418  0.00  0.00    +0.002 A 
ATOM     34  C   UNL     1       5.352  -3.242  -3.079  0.00  0.00    -0.064 A 
ATOM     35  C   UNL     1       5.661  -2.566  -4.244  0.00  0.00    +0.002 A 
ATOM     36  C   UNL     1       6.949  -2.604  -4.744  0.00  0.00    +0.003 A 
ENDBRANCH  29  34
ENDBRANCH  27  29
ENDBRANCH  22  25
ENDBRANCH  20  22
ENDBRANCH   1  20
TORSDOF 6
