REMARK  Name = ZINC08321081
REMARK  3 active torsions:
REMARK  status: ('A' for Active; 'I' for Inactive)
REMARK    1  A    between atoms: C_1  and  C_2
REMARK    2  A    between atoms: N_16  and  N_17
REMARK    3  A    between atoms: C_18  and  C_19
REMARK                            x       y       z     vdW  Elec       q    Type
REMARK                         _______ _______ _______ _____ _____    ______ ____
ROOT
ATOM      1  C   UNL     1       6.411  12.352   0.007  0.00  0.00    +0.046 C 
ATOM      2  C   UNL     1       7.058  10.991  -0.006  0.00  0.00    -0.026 A 
ATOM      3  C   UNL     1       8.433  10.881  -0.021  0.00  0.00    +0.005 A 
ATOM      4  C   UNL     1       9.040   9.636  -0.034  0.00  0.00    +0.001 A 
ATOM      5  C   UNL     1       8.274   8.489  -0.032  0.00  0.00    +0.012 A 
ATOM      6  C   UNL     1       6.885   8.585  -0.017  0.00  0.00    +0.029 A 
ATOM      7  C   UNL     1       6.268   9.846  -0.004  0.00  0.00    +0.053 A 
ATOM      8  N   UNL     1       4.895   9.662   0.009  0.00  0.00    -0.337 N 
ATOM      9  H   UNL     1       4.223  10.533   0.020  0.00  0.00    +0.167 HD
ATOM     10  C   UNL     1       4.592   8.323   0.004  0.00  0.00    +0.163 A 
ATOM     11  C   UNL     1       5.798   7.591  -0.012  0.00  0.00    +0.138 A 
ATOM     12  N   UNL     1       5.756   6.267  -0.019  0.00  0.00    -0.142 NA
ATOM     13  N   UNL     1       4.621   5.656  -0.011  0.00  0.00    -0.111 NA
ATOM     14  C   UNL     1       3.472   6.323   0.004  0.00  0.00    +0.256 A 
ATOM     15  N   UNL     1       3.446   7.650   0.006  0.00  0.00    -0.192 NA
ATOM     16  N   UNL     1       2.279   5.621   0.011  0.00  0.00    -0.204 N 
ATOM     17  H   UNL     1       1.322   6.162   0.024  0.00  0.00    +0.177 HD
ENDROOT
BRANCH  16  18
ATOM     18  N   UNL     1       2.291   4.220   0.003  0.00  0.00    -0.187 NA
ATOM     19  C   UNL     1       1.173   3.561   0.011  0.00  0.00    +0.139 C 
BRANCH  19  20
ATOM     20  C   UNL     1       1.185   2.087   0.002  0.00  0.00    +0.013 A 
ATOM     21  C   UNL     1      -0.017   1.375   0.010  0.00  0.00    +0.012 A 
ATOM     22  C   UNL     1       0.002  -0.004   0.002  0.00  0.00    +0.021 A 
ATOM     23  C   UNL     1       1.209  -0.684  -0.013  0.00  0.00    +0.042 A 
ATOM     24  C   UNL     1       2.404   0.015  -0.020  0.00  0.00    +0.040 A 
ATOM     25  C   UNL     1       2.400   1.395  -0.013  0.00  0.00    +0.051 A 
ATOM     26 CL   UNL     1       3.900   2.270  -0.022  0.00  0.00    -0.083 Cl
ATOM     27 CL   UNL     1       1.223  -2.420  -0.022  0.00  0.00    -0.083 Cl
ENDBRANCH  19  20
ENDBRANCH  16  18
TORSDOF 2
