REMARK  Name = ZINC09467390
REMARK  10 active torsions:
REMARK  status: ('A' for Active; 'I' for Inactive)
REMARK    1  A    between atoms: C_1  and  C_2
REMARK    2  A    between atoms: C_2  and  C_4
REMARK    3  A    between atoms: C_2  and  N_15
REMARK    4  A    between atoms: C_7  and  N_10
REMARK    5  A    between atoms: C_16  and  C_18
REMARK    6  A    between atoms: C_18  and  C_19
REMARK    7  A    between atoms: C_19  and  C_21
REMARK    8  A    between atoms: C_19  and  N_34
REMARK    9  A    between atoms: C_25  and  O_27
REMARK   10  A    between atoms: O_27  and  C_28
REMARK                            x       y       z     vdW  Elec       q    Type
REMARK                         _______ _______ _______ _____ _____    ______ ____
ROOT
ATOM      1  C   UNL     1       3.073  -9.735   2.869  0.00  0.00    +0.113 C 
ENDROOT
BRANCH   1   2
ATOM      2  N   UNL     1       4.218  -9.410   3.723  0.00  0.00    -0.292 N 
ATOM      3  C   UNL     1       5.221 -10.298   3.873  0.00  0.00    +0.298 C 
ATOM      4  O   UNL     1       5.223 -11.327   3.225  0.00  0.00    -0.253 OA
ATOM      5  N   UNL     1       6.221 -10.046   4.740  0.00  0.00    -0.313 N 
ATOM      6  H   UNL     1       4.255  -8.556   4.181  0.00  0.00    +0.151 HD
ATOM      7  H   UNL     1       6.219  -9.225   5.257  0.00  0.00    +0.146 HD
ATOM      8  H   UNL     1       6.943 -10.685   4.848  0.00  0.00    +0.146 HD
ENDBRANCH   1   2
BRANCH   1   9
ATOM      9  C   UNL     1       2.095 -10.582   3.642  0.00  0.00    -0.023 A 
ATOM     10  C   UNL     1       1.751 -10.234   4.936  0.00  0.00    +0.006 A 
ATOM     11  C   UNL     1       0.853 -11.008   5.647  0.00  0.00    +0.004 A 
ATOM     12  C   UNL     1       0.296 -12.131   5.067  0.00  0.00    +0.046 A 
ATOM     13  C   UNL     1       0.639 -12.482   3.769  0.00  0.00    +0.129 A 
ATOM     14  C   UNL     1       1.537 -11.701   3.055  0.00  0.00    +0.051 A 
BRANCH  13  15
ATOM     15  O   UNL     1       0.093 -13.586   3.196  0.00  0.00    -0.456 OA
BRANCH  15  16
ATOM     16  C   UNL     1      -0.726 -14.361   3.955  0.00  0.00    +0.128 A 
ATOM     17  C   UNL     1      -0.253 -15.545   4.501  0.00  0.00    +0.046 A 
ATOM     18  C   UNL     1      -1.086 -16.328   5.277  0.00  0.00    +0.004 A 
ATOM     19  C   UNL     1      -2.393 -15.937   5.500  0.00  0.00    +0.000 A 
ATOM     20  C   UNL     1      -2.869 -14.760   4.953  0.00  0.00    +0.004 A 
ATOM     21  C   UNL     1      -2.038 -13.971   4.181  0.00  0.00    +0.046 A 
ENDBRANCH  15  16
ENDBRANCH  13  15
ENDBRANCH   1   9
BRANCH   1  22
ATOM     22  C   UNL     1       2.387  -8.443   2.422  0.00  0.00    +0.123 C 
BRANCH  22  24
ATOM     23  N   UNL     1       2.933  -6.470   1.034  0.00  0.00    -0.309 N 
ATOM     24  C   UNL     1       3.326  -7.653   1.547  0.00  0.00    +0.216 C 
ATOM     25  O   UNL     1       4.434  -8.081   1.305  0.00  0.00    -0.276 OA
ATOM     26  H   UNL     1       2.047  -6.127   1.227  0.00  0.00    +0.149 HD
BRANCH  23  28
ATOM     27  C   UNL     1       3.736  -6.198  -1.261  0.00  0.00    +0.033 C 
ATOM     28  C   UNL     1       3.846  -5.702   0.182  0.00  0.00    +0.100 C 
BRANCH  28  29
ATOM     29  C   UNL     1       3.478  -4.242   0.241  0.00  0.00    -0.027 A 
ATOM     30  C   UNL     1       4.471  -3.281   0.287  0.00  0.00    +0.007 A 
ATOM     31  C   UNL     1       4.137  -1.942   0.340  0.00  0.00    +0.026 A 
ATOM     32  C   UNL     1       2.802  -1.561   0.347  0.00  0.00    +0.047 A 
ATOM     33  C   UNL     1       1.807  -2.528   0.306  0.00  0.00    +0.026 A 
ATOM     34  C   UNL     1       2.147  -3.865   0.247  0.00  0.00    +0.007 A 
BRANCH  32  35
ATOM     35  N   UNL     1       2.460  -0.202   0.402  0.00  0.00    -0.306 N 
ATOM     36  C   UNL     1       1.192   0.319   0.415  0.00  0.00    +0.112 A 
ATOM     37  C   UNL     1       1.321   1.658   0.473  0.00  0.00    +0.130 A 
ATOM     38  N   UNL     1       2.629   1.952   0.494  0.00  0.00    -0.244 NA
ATOM     39  C   UNL     1       3.322   0.846   0.452  0.00  0.00    +0.204 A 
ENDBRANCH  32  35
ENDBRANCH  28  29
ENDBRANCH  23  28
ENDBRANCH  22  24
ENDBRANCH   1  22
TORSDOF 9
