REMARK  Name = ZINC16575973
REMARK  5 active torsions:
REMARK  status: ('A' for Active; 'I' for Inactive)
REMARK    1  A    between atoms: C_6  and  N_7
REMARK    2  A    between atoms: C_11  and  C_13
REMARK    3  A    between atoms: C_13  and  O_14
REMARK    4  A    between atoms: O_14  and  C_15
REMARK    5  A    between atoms: C_15  and  C_17
REMARK                            x       y       z     vdW  Elec       q    Type
REMARK                         _______ _______ _______ _____ _____    ______ ____
ROOT
ATOM      1  N   UNL     1       3.622  -0.664  -0.047  0.00  0.00    -0.269 N 
ATOM      2  C   UNL     1       3.639  -2.008   0.046  0.00  0.00    +0.310 C 
ATOM      3  O   UNL     1       2.595  -2.630   0.056  0.00  0.00    -0.252 OA
ATOM      4  N   UNL     1       4.814  -2.663   0.129  0.00  0.00    -0.237 N 
ATOM      5  C   UNL     1       4.832  -4.007   0.222  0.00  0.00    +0.258 C 
ATOM      6  O   UNL     1       3.790  -4.628   0.232  0.00  0.00    -0.272 OA
ATOM      7  H   UNL     1       4.454  -0.172  -0.132  0.00  0.00    +0.156 HD
ATOM      8  H   UNL     1       5.647  -2.166   0.121  0.00  0.00    +0.159 HD
ENDROOT
BRANCH   1  14
ATOM      9  C   UNL     1       1.347  -0.460   0.741  0.00  0.00    +0.027 A 
ATOM     10  C   UNL     1       0.143   0.217   0.766  0.00  0.00    +0.051 A 
ATOM     11  C   UNL     1      -0.016   1.383   0.032  0.00  0.00    +0.162 A 
ATOM     12  C   UNL     1       1.040   1.873  -0.728  0.00  0.00    +0.164 A 
ATOM     13  C   UNL     1       2.247   1.192  -0.755  0.00  0.00    +0.072 A 
ATOM     14  C   UNL     1       2.401   0.025  -0.020  0.00  0.00    +0.038 A 
ATOM     15  O   UNL     1       0.905   3.021  -1.448  0.00  0.00    -0.485 OA
ATOM     16  C   UNL     1      -0.430   3.473  -1.696  0.00  0.00    +0.270 C 
ATOM     17  C   UNL     1      -1.216   3.395  -0.380  0.00  0.00    +0.270 C 
ATOM     18  O   UNL     1      -1.213   2.033   0.063  0.00  0.00    -0.485 OA
ENDBRANCH   1  14
BRANCH   5  19
ATOM     19  C   UNL     1       6.146  -4.739   0.314  0.00  0.00    +0.328 C 
BRANCH  19  20
ATOM     20  O   UNL     1       5.903  -6.144   0.404  0.00  0.00    -0.452 OA
BRANCH  20  21
ATOM     21  C   UNL     1       6.983  -6.948   0.493  0.00  0.00    +0.339 C 
ATOM     22  O   UNL     1       8.101  -6.467   0.496  0.00  0.00    -0.245 OA
BRANCH  21  23
ATOM     23  C   UNL     1       6.816  -8.353   0.585  0.00  0.00    +0.074 C 
ATOM     24  C   UNL     1       7.900  -9.161   0.675  0.00  0.00    +0.025 C 
ATOM     25  C   UNL     1       7.681 -10.614   0.715  0.00  0.00    +0.019 A 
ATOM     26  C   UNL     1       8.705 -11.497   1.055  0.00  0.00    +0.031 A 
ATOM     27  C   UNL     1       8.451 -12.853   1.093  0.00  0.00    +0.042 A 
ATOM     28  C   UNL     1       7.188 -13.337   0.788  0.00  0.00    +0.023 A 
ATOM     29  C   UNL     1       6.171 -12.472   0.428  0.00  0.00    +0.048 A 
ATOM     30  C   UNL     1       6.410 -11.111   0.375  0.00  0.00    +0.128 A 
ATOM     31  O   UNL     1       5.445 -10.243  -0.020  0.00  0.00    -0.487 OA
ATOM     32  C   UNL     1       5.433  -8.949   0.588  0.00  0.00    +0.271 C 
ATOM     33 CL   UNL     1       9.718 -13.958   1.526  0.00  0.00    -0.084 Cl
ENDBRANCH  21  23
ENDBRANCH  20  21
ENDBRANCH  19  20
ENDBRANCH   5  19
TORSDOF 5
