REMARK  Name = ZINC09118059
REMARK  4 active torsions:
REMARK  status: ('A' for Active; 'I' for Inactive)
REMARK    1  A    between atoms: C_7  and  N_22
REMARK    2  A    between atoms: C_9  and  C_11
REMARK    3  A    between atoms: C_11  and  S_12
REMARK    4  A    between atoms: S_12  and  C_13
REMARK                            x       y       z     vdW  Elec       q    Type
REMARK                         _______ _______ _______ _____ _____    ______ ____
ROOT
ATOM      1  C   UNL     1       4.738   0.178  -0.044  0.00  0.00    +0.001 A 
ATOM      2  C   UNL     1       4.669   1.568  -0.035  0.00  0.00    +0.002 A 
ATOM      3  C   UNL     1       3.468   2.212  -0.019  0.00  0.00    +0.028 A 
ATOM      4  C   UNL     1       2.283   1.465  -0.012  0.00  0.00    +0.076 A 
ATOM      5  C   UNL     1       2.355   0.050  -0.020  0.00  0.00    +0.040 A 
ATOM      6  C   UNL     1       3.604  -0.580  -0.036  0.00  0.00    +0.013 A 
ATOM      7  C   UNL     1       1.142  -0.681  -0.013  0.00  0.00    +0.127 A 
ATOM      8  N   UNL     1       0.002  -0.004   0.002  0.00  0.00    -0.216 NA
ATOM      9  C   UNL     1      -0.016   1.319   0.009  0.00  0.00    +0.142 A 
ATOM     10  N   UNL     1       1.075   2.048   0.003  0.00  0.00    -0.231 NA
ENDROOT
BRANCH   7  11
ATOM     11  N   UNL     1       1.147  -2.060  -0.020  0.00  0.00    -0.343 N 
ATOM     12  H   UNL     1       0.309  -2.548  -0.014  0.00  0.00    +0.144 HD
ATOM     13  H   UNL     1       1.989  -2.542  -0.030  0.00  0.00    +0.144 HD
ENDBRANCH   7  11
BRANCH   9  14
ATOM     14  C   UNL     1      -1.350   2.020   0.019  0.00  0.00    +0.152 C 
BRANCH  14  15
ATOM     15  S   UNL     1      -1.876   2.292   1.730  0.00  0.00    -0.097 S 
BRANCH  15  16
ATOM     16  C   UNL     1      -3.415   3.102   1.451  0.00  0.00    +0.115 A 
ATOM     17  C   UNL     1      -4.204   3.514   2.513  0.00  0.00    +0.069 A 
ATOM     18  C   UNL     1      -5.438   4.163   2.297  0.00  0.00    +0.082 A 
ATOM     19  C   UNL     1      -6.138   4.528   3.460  0.00  0.00    +0.036 A 
ATOM     20  C   UNL     1      -5.624   4.254   4.674  0.00  0.00    +0.048 A 
ATOM     21  S   UNL     1      -4.082   3.445   4.280  0.00  0.00    -0.092 S 
ATOM     22  N   UNL     1      -5.782   4.348   0.998  0.00  0.00    -0.235 NA
ATOM     23  C   UNL     1      -5.009   3.945   0.023  0.00  0.00    +0.223 A 
ATOM     24  N   UNL     1      -3.849   3.340   0.212  0.00  0.00    -0.228 NA
ENDBRANCH  15  16
ENDBRANCH  14  15
ENDBRANCH   9  14
TORSDOF 4
