REMARK  Name = ZINC50930195
REMARK  6 active torsions:
REMARK  status: ('A' for Active; 'I' for Inactive)
REMARK    1  A    between atoms: C_5  and  C_8
REMARK    2  A    between atoms: C_8  and  C_9
REMARK    3  A    between atoms: C_9  and  C_10
REMARK    4  A    between atoms: N_15  and  C_16
REMARK    5  A    between atoms: C_16  and  C_17
REMARK    6  A    between atoms: C_17  and  N_18
REMARK                            x       y       z     vdW  Elec       q    Type
REMARK                         _______ _______ _______ _____ _____    ______ ____
ROOT
ATOM      1  C   UNL     1      -0.280   1.436  -0.127  0.00  0.00    +0.003 C 
ATOM      2  C   UNL     1       1.080   2.102   0.096  0.00  0.00    +0.019 C 
ATOM      3  C   UNL     1       2.019   1.735  -1.057  0.00  0.00    +0.109 C 
ATOM      4  N   UNL     1       2.076   0.271  -1.173  0.00  0.00    -0.283 N 
ATOM      5  C   UNL     1       0.818  -0.476  -1.300  0.00  0.00    +0.078 C 
ATOM      6  C   UNL     1      -0.108  -0.085  -0.145  0.00  0.00    +0.022 C 
ATOM      7  C   UNL     1       3.260  -0.373  -1.163  0.00  0.00    +0.302 C 
ATOM      8  O   UNL     1       3.291  -1.588  -1.160  0.00  0.00    -0.253 OA
ATOM      9  N   UNL     1       4.410   0.330  -1.155  0.00  0.00    -0.301 N 
ATOM     10  H   UNL     1       4.388   1.297  -1.230  0.00  0.00    +0.150 HD
ENDROOT
BRANCH   5  11
ATOM     11  C   UNL     1       1.106  -1.978  -1.244  0.00  0.00    +0.034 C 
BRANCH  11  12
ATOM     12  C   UNL     1      -0.202  -2.755  -1.413  0.00  0.00    +0.127 C 
BRANCH  12  13
ATOM     13  C   UNL     1       0.066  -4.229  -1.253  0.00  0.00    +0.356 C 
ATOM     14  O   UNL     1       1.197  -4.622  -1.025  0.00  0.00    -0.246 OA
ATOM     15  O   UNL     1      -0.849  -5.029  -1.352  0.00  0.00    -0.246 OA
ENDBRANCH  12  13
ENDBRANCH  11  12
ENDBRANCH   5  11
BRANCH   9  16
ATOM     16  C   UNL     1       5.693  -0.366  -1.036  0.00  0.00    +0.086 C 
BRANCH  16  17
ATOM     17  C   UNL     1       6.832   0.656  -1.053  0.00  0.00    -0.067 C 
BRANCH  17  18
ATOM     18  N   UNL     1       8.118  -0.042  -0.933  0.00  0.00    +0.379 N 
ATOM     19  H   UNL     1       8.142  -0.557  -0.066  0.00  0.00    -0.090 HD
ATOM     20  H   UNL     1       8.228  -0.680  -1.706  0.00  0.00    -0.090 HD
ATOM     21  H   UNL     1       8.869   0.632  -0.945  0.00  0.00    -0.090 HD
ENDBRANCH  17  18
ENDBRANCH  16  17
ENDBRANCH   9  16
TORSDOF 6
