REMARK  Name = ZINC39666077
REMARK  9 active torsions:
REMARK  status: ('A' for Active; 'I' for Inactive)
REMARK    1  A    between atoms: C_1  and  C_2
REMARK    2  A    between atoms: C_5  and  O_8
REMARK    3  A    between atoms: O_8  and  C_9
REMARK    4  A    between atoms: C_9  and  C_11
REMARK    5  A    between atoms: C_9  and  C_12
REMARK    6  A    between atoms: C_12  and  N_13
REMARK    7  A    between atoms: C_14  and  C_16
REMARK    8  A    between atoms: C_27  and  C_29
REMARK    9  A    between atoms: C_29  and  C_35
REMARK                            x       y       z     vdW  Elec       q    Type
REMARK                         _______ _______ _______ _____ _____    ______ ____
ROOT
ATOM      1  C   UNL     1      -3.884  -6.683   0.742  0.00  0.00    +0.100 C 
ATOM      2  C   UNL     1      -4.609  -5.783   1.767  0.00  0.00    +0.121 C 
ATOM      3  N   UNL     1      -5.997  -6.300   1.804  0.00  0.00    -0.300 N 
ATOM      4  C   UNL     1      -5.845  -7.772   1.724  0.00  0.00    +0.115 C 
ATOM      5  C   UNL     1      -4.698  -7.988   0.717  0.00  0.00    -0.004 C 
ATOM      6  C   UNL     1      -5.262  -8.233  -0.680  0.00  0.00    -0.010 C 
ATOM      7  C   UNL     1      -6.019  -9.563  -0.694  0.00  0.00    -0.082 C 
ATOM      8  N   UNL     1      -5.108 -10.650  -0.314  0.00  0.00    +0.379 N 
ATOM      9  C   UNL     1      -4.643 -10.456   1.064  0.00  0.00    -0.082 C 
ATOM     10  C   UNL     1      -3.828  -9.163   1.153  0.00  0.00    -0.010 C 
ATOM     11  C   UNL     1      -7.141  -5.591   1.890  0.00  0.00    +0.222 C 
ATOM     12  O   UNL     1      -8.211  -6.157   1.823  0.00  0.00    -0.275 OA
ATOM     13  H   UNL     1      -5.593 -11.533  -0.383  0.00  0.00    -0.086 HD
ATOM     14  H   UNL     1      -4.315 -10.656  -0.938  0.00  0.00    -0.086 HD
ENDROOT
BRANCH  11  15
ATOM     15  C   UNL     1      -7.088  -4.096   2.070  0.00  0.00    +0.044 C 
ATOM     16  C   UNL     1      -6.163  -3.755   3.240  0.00  0.00    +0.016 C 
ATOM     17  C   UNL     1      -6.697  -4.404   4.519  0.00  0.00    +0.001 C 
ATOM     18  C   UNL     1      -8.103  -3.876   4.810  0.00  0.00    +0.000 C 
ATOM     19  C   UNL     1      -9.028  -4.217   3.640  0.00  0.00    +0.001 C 
ATOM     20  C   UNL     1      -8.495  -3.568   2.362  0.00  0.00    +0.016 C 
ATOM     21  C   UNL     1      -6.555  -3.447   0.792  0.00  0.00    +0.021 C 
ENDBRANCH  11  15
BRANCH   1  23
ATOM     22  N   UNL     1      -1.503  -7.163   0.273  0.00  0.00    -0.312 N 
ATOM     23  C   UNL     1      -2.471  -6.955   1.188  0.00  0.00    +0.218 C 
ATOM     24  O   UNL     1      -2.204  -6.986   2.371  0.00  0.00    -0.275 OA
ATOM     25  H   UNL     1      -1.717  -7.139  -0.673  0.00  0.00    +0.149 HD
BRANCH  22  26
ATOM     26  C   UNL     1      -0.129  -7.428   0.708  0.00  0.00    +0.148 C 
BRANCH  26  27
ATOM     27  C   UNL     1       0.764  -7.627  -0.519  0.00  0.00    +0.187 C 
ATOM     28  C   UNL     1       2.199  -7.903  -0.065  0.00  0.00    +0.053 C 
BRANCH  27  29
ATOM     29  O   UNL     1       0.284  -8.736  -1.282  0.00  0.00    -0.488 OA
BRANCH  29  34
ATOM     30  C   UNL     1       1.690  -8.886  -6.734  0.00  0.00    +0.044 C 
ATOM     31  C   UNL     1       1.313  -8.846  -5.276  0.00  0.00    -0.050 A 
ATOM     32  C   UNL     1       1.683  -7.765  -4.497  0.00  0.00    +0.007 A 
ATOM     33  C   UNL     1       1.340  -7.725  -3.159  0.00  0.00    +0.046 A 
ATOM     34  C   UNL     1       0.623  -8.772  -2.598  0.00  0.00    +0.121 A 
ATOM     35  C   UNL     1       0.252  -9.855  -3.381  0.00  0.00    +0.046 A 
ATOM     36  C   UNL     1       0.594  -9.887  -4.719  0.00  0.00    +0.007 A 
ENDBRANCH  29  34
ENDBRANCH  27  29
ENDBRANCH  26  27
ENDBRANCH  22  26
ENDBRANCH   1  23
TORSDOF 6
