REMARK  Name = ZINC00734851
REMARK  8 active torsions:
REMARK  status: ('A' for Active; 'I' for Inactive)
REMARK    1  A    between atoms: C_1  and  C_2
REMARK    2  A    between atoms: C_2  and  C_3
REMARK    3  A    between atoms: C_2  and  C_4
REMARK    4  A    between atoms: C_2  and  N_5
REMARK    5  A    between atoms: C_6  and  C_8
REMARK    6  A    between atoms: C_10  and  C_20
REMARK    7  A    between atoms: N_12  and  C_13
REMARK    8  A    between atoms: C_23  and  N_26
REMARK                            x       y       z     vdW  Elec       q    Type
REMARK                         _______ _______ _______ _____ _____    ______ ____
ROOT
ATOM      1  C   UNL     1       0.901   2.101  -0.271  0.00  0.00    +0.130 A 
ATOM      2  C   UNL     1      -0.114   1.173  -0.135  0.00  0.00    +0.063 A 
ATOM      3  C   UNL     1      -1.236   1.909   0.286  0.00  0.00    +0.094 A 
ATOM      4  N   UNL     1      -0.870   3.170   0.389  0.00  0.00    -0.166 NA
ATOM      5  N   UNL     1       0.365   3.314   0.069  0.00  0.00    -0.226 N 
ENDROOT
BRANCH   5   6
ATOM      6  C   UNL     1       1.059   4.529   0.066  0.00  0.00    +0.084 A 
ATOM      7  C   UNL     1       2.166   4.701   0.888  0.00  0.00    +0.029 A 
ATOM      8  C   UNL     1       2.848   5.901   0.883  0.00  0.00    +0.002 A 
ATOM      9  C   UNL     1       2.432   6.933   0.061  0.00  0.00    +0.002 A 
ATOM     10  C   UNL     1       1.331   6.766  -0.759  0.00  0.00    +0.022 A 
ATOM     11  C   UNL     1       0.646   5.566  -0.763  0.00  0.00    +0.066 A 
ATOM     12 CL   UNL     1      -0.731   5.354  -1.798  0.00  0.00    -0.081 Cl
ENDBRANCH   5   6
BRANCH   3  13
ATOM     13  C   UNL     1      -2.587   1.363   0.568  0.00  0.00    +0.002 A 
ATOM     14  C   UNL     1      -2.837   0.001   0.415  0.00  0.00    +0.012 A 
ATOM     15  C   UNL     1      -4.094  -0.502   0.683  0.00  0.00    +0.033 A 
ATOM     16  C   UNL     1      -5.108   0.344   1.093  0.00  0.00    +0.126 A 
ATOM     17  C   UNL     1      -4.867   1.698   1.241  0.00  0.00    +0.033 A 
ATOM     18  C   UNL     1      -3.612   2.212   0.981  0.00  0.00    +0.012 A 
BRANCH  16  19
ATOM     19  N   UNL     1      -6.455  -0.200   1.374  0.00  0.00    +0.056 N 
ATOM     20  O   UNL     1      -7.349   0.544   1.734  0.00  0.00    -0.126 OA
ATOM     21  O   UNL     1      -6.669  -1.392   1.244  0.00  0.00    -0.126 OA
ENDBRANCH  16  19
ENDBRANCH   3  13
BRANCH   1  23
ATOM     22  N   UNL     1       3.132   2.864  -0.908  0.00  0.00    -0.305 N 
ATOM     23  C   UNL     1       2.285   1.837  -0.697  0.00  0.00    +0.263 C 
ATOM     24  O   UNL     1       2.664   0.693  -0.859  0.00  0.00    -0.269 OA
ATOM     25  H   UNL     1       2.857   3.770  -0.701  0.00  0.00    +0.150 HD
BRANCH  22  27
ATOM     26  C   UNL     1       4.345   1.919  -2.810  0.00  0.00    +0.031 C 
ATOM     27  C   UNL     1       4.469   2.610  -1.451  0.00  0.00    +0.027 C 
ATOM     28  C   UNL     1       5.211   3.938  -1.620  0.00  0.00    +0.031 C 
ATOM     29  C   UNL     1       5.247   1.710  -0.490  0.00  0.00    +0.031 C 
ENDBRANCH  22  27
ENDBRANCH   1  23
TORSDOF 5
