REMARK  Name = ZINC02216000
REMARK  8 active torsions:
REMARK  status: ('A' for Active; 'I' for Inactive)
REMARK    1  A    between atoms: C_1  and  O_2
REMARK    2  A    between atoms: O_2  and  C_3
REMARK    3  A    between atoms: C_5  and  C_10
REMARK    4  A    between atoms: C_8  and  O_9
REMARK    5  A    between atoms: C_12  and  C_32
REMARK    6  A    between atoms: C_13  and  S_22
REMARK    7  A    between atoms: S_22  and  C_23
REMARK    8  A    between atoms: C_23  and  C_24
REMARK                            x       y       z     vdW  Elec       q    Type
REMARK                         _______ _______ _______ _____ _____    ______ ____
ROOT
ATOM      1  C   UNL     1       2.462   0.334   4.204  0.00  0.00    +0.097 C 
ATOM      2  C   UNL     1       1.740   0.021   5.503  0.00  0.00    +0.073 C 
ATOM      3  C   UNL     1       2.502  -0.467   6.550  0.00  0.00    +0.112 C 
ATOM      4  N   UNL     1       3.818  -0.662   6.444  0.00  0.00    -0.244 NA
ATOM      5  C   UNL     1       4.540  -0.429   5.377  0.00  0.00    +0.050 C 
ATOM      6  C   UNL     1       3.955   0.069   4.202  0.00  0.00    +0.029 C 
ATOM      7  C   UNL     1       4.678   0.314   3.097  0.00  0.00    +0.162 C 
ATOM      8  C   UNL     1       6.162   0.062   3.061  0.00  0.00    +0.080 C 
ATOM      9  C   UNL     1       6.740   0.242   4.467  0.00  0.00    +0.014 C 
ATOM     10  C   UNL     1       6.024  -0.705   5.417  0.00  0.00    +0.056 C 
ATOM     11  O   UNL     1       4.063   0.796   1.999  0.00  0.00    -0.292 OA
ENDROOT
BRANCH   1  14
ATOM     12  C   UNL     1       0.626  -0.619   1.042  0.00  0.00    +0.162 A 
ATOM     13  C   UNL     1       1.202   0.137   2.051  0.00  0.00    +0.054 A 
ATOM     14  C   UNL     1       1.836  -0.490   3.108  0.00  0.00    -0.031 A 
ATOM     15  C   UNL     1       1.897  -1.870   3.161  0.00  0.00    +0.008 A 
ATOM     16  C   UNL     1       1.325  -2.630   2.158  0.00  0.00    +0.049 A 
ATOM     17  C   UNL     1       0.683  -2.008   1.099  0.00  0.00    +0.158 A 
BRANCH  12  19
ATOM     18  C   UNL     1      -0.017   1.425   0.010  0.00  0.00    +0.277 C 
ATOM     19  O   UNL     1       0.002  -0.004   0.002  0.00  0.00    -0.491 OA
ENDBRANCH  12  19
BRANCH  17  20
ATOM     20  O   UNL     1       0.115  -2.754   0.114  0.00  0.00    -0.503 OA
ATOM     21  H   UNL     1       0.711  -2.957  -0.620  0.00  0.00    +0.292 HD
ENDBRANCH  17  20
ENDBRANCH   1  14
BRANCH   2  22
ATOM     22  C   UNL     1       0.329   0.224   5.639  0.00  0.00    +0.098 C 
ATOM     23  N   UNL     1      -0.791   0.385   5.747  0.00  0.00    -0.191 NA
ENDBRANCH   2  22
BRANCH   3  24
ATOM     24  S   UNL     1       1.707  -0.843   8.077  0.00  0.00    -0.096 S 
BRANCH  24  25
ATOM     25  C   UNL     1       3.053  -1.438   9.138  0.00  0.00    +0.172 C 
BRANCH  25  26
ATOM     26  C   UNL     1       2.503  -1.799  10.493  0.00  0.00    +0.229 C 
ATOM     27  O   UNL     1       1.319  -1.667  10.722  0.00  0.00    -0.275 OA
ATOM     28  N   UNL     1       3.326  -2.268  11.452  0.00  0.00    -0.264 N 
ATOM     29  C   UNL     1       2.818  -2.600  12.702  0.00  0.00    +0.164 A 
ATOM     30  N   UNL     1       1.574  -2.530  13.124  0.00  0.00    -0.233 NA
ATOM     31  C   UNL     1       1.249  -2.887  14.353  0.00  0.00    +0.120 A 
ATOM     32  C   UNL     1       2.252  -3.326  15.153  0.00  0.00    +0.068 A 
ATOM     33  S   UNL     1       3.644  -3.198  14.041  0.00  0.00    -0.061 S 
ATOM     34  H   UNL     1       4.273  -2.373  11.269  0.00  0.00    +0.157 HD
ENDBRANCH  25  26
ENDBRANCH  24  25
ENDBRANCH   3  24
TORSDOF 7
