REMARK  Name = ZINC63392905
REMARK  6 active torsions:
REMARK  status: ('A' for Active; 'I' for Inactive)
REMARK    1  A    between atoms: C_1  and  N_2
REMARK    2  A    between atoms: C_3  and  C_5
REMARK    3  A    between atoms: C_8  and  N_11
REMARK    4  A    between atoms: N_14  and  C_15
REMARK    5  A    between atoms: C_18  and  C_21
REMARK    6  A    between atoms: C_21  and  N_22
REMARK                            x       y       z     vdW  Elec       q    Type
REMARK                         _______ _______ _______ _____ _____    ______ ____
ROOT
ATOM      1  N   UNL     1      -0.731  -4.272   3.444  0.00  0.00    -0.296 N 
ATOM      2  C   UNL     1      -0.614  -4.958   4.598  0.00  0.00    +0.304 C 
ATOM      3  O   UNL     1       0.059  -5.970   4.639  0.00  0.00    -0.253 OA
ATOM      4  N   UNL     1      -1.243  -4.523   5.708  0.00  0.00    -0.269 N 
ATOM      5  H   UNL     1      -1.268  -3.465   3.412  0.00  0.00    +0.151 HD
ATOM      6  H   UNL     1      -1.725  -3.681   5.693  0.00  0.00    +0.156 HD
ENDROOT
BRANCH   1  10
ATOM      7  C   UNL     1       0.647  -2.180   1.005  0.00  0.00    +0.075 C 
ATOM      8  C   UNL     1      -0.792  -2.700   1.012  0.00  0.00    +0.014 C 
ATOM      9  C   UNL     1      -0.782  -4.230   0.999  0.00  0.00    +0.023 C 
ATOM     10  C   UNL     1      -0.047  -4.746   2.238  0.00  0.00    +0.074 C 
ATOM     11  C   UNL     1       1.392  -4.226   2.231  0.00  0.00    +0.023 C 
ATOM     12  C   UNL     1       1.382  -2.696   2.244  0.00  0.00    +0.014 C 
BRANCH   7  15
ATOM     13  C   UNL     1       0.030   1.470   0.030  0.00  0.00    +0.128 C 
ATOM     14  N   UNL     1       0.040   0.005   0.017  0.00  0.00    -0.318 N 
ATOM     15  C   UNL     1       0.636  -0.674   1.018  0.00  0.00    +0.216 C 
ATOM     16  O   UNL     1       1.165  -0.071   1.928  0.00  0.00    -0.276 OA
ATOM     17  H   UNL     1      -0.383  -0.477  -0.711  0.00  0.00    +0.148 HD
ENDBRANCH   7  15
ENDBRANCH   1  10
BRANCH   4  18
ATOM     18  C   UNL     1      -1.202  -5.285   6.880  0.00  0.00    +0.035 A 
ATOM     19  C   UNL     1      -2.304  -5.324   7.724  0.00  0.00    +0.023 A 
ATOM     20  C   UNL     1      -2.260  -6.078   8.881  0.00  0.00    +0.007 A 
ATOM     21  C   UNL     1      -1.120  -6.793   9.199  0.00  0.00    -0.028 A 
ATOM     22  C   UNL     1      -0.021  -6.756   8.361  0.00  0.00    +0.007 A 
ATOM     23  C   UNL     1      -0.060  -6.009   7.200  0.00  0.00    +0.023 A 
BRANCH  21  24
ATOM     24  C   UNL     1      -1.076  -7.614  10.462  0.00  0.00    +0.160 C 
BRANCH  24  25
ATOM     25  N   UNL     1      -1.552  -8.971  10.179  0.00  0.00    -0.311 N 
ATOM     26  C   UNL     1      -2.874  -9.256  10.300  0.00  0.00    +0.089 A 
ATOM     27  C   UNL     1      -3.338 -10.502  10.045  0.00  0.00    +0.018 A 
ATOM     28  C   UNL     1      -2.450 -11.512   9.651  0.00  0.00    +0.007 A 
ATOM     29  C   UNL     1      -1.122 -11.223   9.529  0.00  0.00    +0.070 A 
ATOM     30  C   UNL     1      -0.675  -9.918   9.797  0.00  0.00    +0.252 A 
ATOM     31  O   UNL     1       0.509  -9.645   9.687  0.00  0.00    -0.268 OA
ENDBRANCH  24  25
ENDBRANCH  21  24
ENDBRANCH   4  18
TORSDOF 5
