REMARK  Name = ZINC12856235
REMARK  9 active torsions:
REMARK  status: ('A' for Active; 'I' for Inactive)
REMARK    1  A    between atoms: C_4  and  C_7
REMARK    2  A    between atoms: C_7  and  N_8
REMARK    3  A    between atoms: C_12  and  C_14
REMARK    4  A    between atoms: C_14  and  O_15
REMARK    5  A    between atoms: O_15  and  C_16
REMARK    6  A    between atoms: C_16  and  C_18
REMARK    7  A    between atoms: C_21  and  O_35
REMARK    8  A    between atoms: N_24  and  S_25
REMARK    9  A    between atoms: S_25  and  C_28
REMARK                            x       y       z     vdW  Elec       q    Type
REMARK                         _______ _______ _______ _____ _____    ______ ____
ROOT
ATOM      1  C   UNL     1       8.831  -3.856   5.959  0.00  0.00    +0.327 C 
ATOM      2  O   UNL     1       8.238  -4.013   6.999  0.00  0.00    -0.249 OA
ENDROOT
BRANCH   1   3
ATOM      3  C   UNL     1      10.212  -4.434   5.785  0.00  0.00    +0.191 C 
ATOM      4  C   UNL     1      10.116  -5.849   5.175  0.00  0.00    +0.064 C 
ATOM      5  C   UNL     1      11.230  -6.627   5.924  0.00  0.00    +0.132 C 
ATOM      6  C   UNL     1      11.157  -5.992   7.335  0.00  0.00    +0.141 C 
ATOM      7  N   UNL     1      10.869  -4.563   7.093  0.00  0.00    -0.160 NA
BRANCH   7   8
ATOM      8  S   UNL     1      11.225  -3.315   8.122  0.00  0.00    +0.062 S 
ATOM      9  O   UNL     1      10.423  -2.214   7.717  0.00  0.00    -0.153 OA
ATOM     10  O   UNL     1      11.178  -3.848   9.439  0.00  0.00    -0.153 OA
BRANCH   8  11
ATOM     11  C   UNL     1      12.899  -2.856   7.824  0.00  0.00    +0.106 A 
ATOM     12  C   UNL     1      13.924  -3.523   8.468  0.00  0.00    +0.030 A 
ATOM     13  C   UNL     1      15.238  -3.163   8.235  0.00  0.00    +0.022 A 
ATOM     14  C   UNL     1      15.527  -2.134   7.356  0.00  0.00    +0.041 A 
ATOM     15  C   UNL     1      14.501  -1.466   6.712  0.00  0.00    +0.022 A 
ATOM     16  C   UNL     1      13.188  -1.831   6.942  0.00  0.00    +0.030 A 
ATOM     17 CL   UNL     1      17.177  -1.681   7.063  0.00  0.00    -0.084 Cl
ENDBRANCH   8  11
ENDBRANCH   7   8
BRANCH   5  18
ATOM     18  O   UNL     1      12.507  -6.397   5.324  0.00  0.00    -0.390 OA
ATOM     19  H   UNL     1      13.235  -6.863   5.758  0.00  0.00    +0.210 HD
ENDBRANCH   5  18
ENDBRANCH   1   3
BRANCH   1  20
ATOM     20  O   UNL     1       8.261  -3.167   4.958  0.00  0.00    -0.454 OA
BRANCH  20  21
ATOM     21  C   UNL     1       6.951  -2.647   5.192  0.00  0.00    +0.328 C 
BRANCH  21  26
ATOM     22  N   UNL     1       3.618  -0.093   2.852  0.00  0.00    -0.295 N 
ATOM     23  C   UNL     1       4.835  -0.671   2.862  0.00  0.00    +0.306 C 
ATOM     24  O   UNL     1       5.551  -0.597   1.882  0.00  0.00    -0.252 OA
ATOM     25  N   UNL     1       5.259  -1.331   3.957  0.00  0.00    -0.237 N 
ATOM     26  C   UNL     1       6.477  -1.909   3.967  0.00  0.00    +0.258 C 
ATOM     27  O   UNL     1       7.190  -1.835   2.990  0.00  0.00    -0.272 OA
ATOM     28  H   UNL     1       3.047  -0.151   3.634  0.00  0.00    +0.151 HD
ATOM     29  H   UNL     1       4.688  -1.390   4.739  0.00  0.00    +0.159 HD
BRANCH  22  30
ATOM     30  C   UNL     1       3.157   0.625   1.661  0.00  0.00    +0.141 C 
BRANCH  30  34
ATOM     31  C   UNL     1      -0.760   2.179   2.359  0.00  0.00    +0.000 A 
ATOM     32  C   UNL     1       0.351   2.940   2.672  0.00  0.00    +0.000 A 
ATOM     33  C   UNL     1       1.619   2.437   2.446  0.00  0.00    +0.005 A 
ATOM     34  C   UNL     1       1.775   1.173   1.908  0.00  0.00    -0.030 A 
ATOM     35  C   UNL     1       0.664   0.412   1.596  0.00  0.00    +0.005 A 
ATOM     36  C   UNL     1      -0.604   0.916   1.821  0.00  0.00    +0.000 A 
ENDBRANCH  30  34
ENDBRANCH  22  30
ENDBRANCH  21  26
ENDBRANCH  20  21
ENDBRANCH   1  20
TORSDOF 9
