REMARK  Name = ZINC43254363
REMARK  5 active torsions:
REMARK  status: ('A' for Active; 'I' for Inactive)
REMARK    1  A    between atoms: C_1  and  N_2
REMARK    2  A    between atoms: C_3  and  C_15
REMARK    3  A    between atoms: C_18  and  O_23
REMARK    4  A    between atoms: C_19  and  O_22
REMARK    5  A    between atoms: O_23  and  C_24
REMARK                            x       y       z     vdW  Elec       q    Type
REMARK                         _______ _______ _______ _____ _____    ______ ____
ROOT
ATOM      1  C   UNL     1      -0.018   1.465   0.010  0.00  0.00    +0.138 C 
ATOM      2  N   UNL     1       0.002  -0.004   0.002  0.00  0.00    -0.182 NA
ATOM      3  C   UNL     1       0.718  -0.524  -1.206  0.00  0.00    +0.130 C 
ATOM      4  C   UNL     1       1.733  -1.497  -0.626  0.00  0.00    +0.141 C 
ATOM      5  C   UNL     1       1.988  -0.756   0.742  0.00  0.00    +0.243 C 
ATOM      6  O   UNL     1       0.717  -0.537   1.204  0.00  0.00    -0.283 OA
ATOM      7  C   UNL     1       3.247  -1.344   1.159  0.00  0.00    +0.271 C 
ATOM      8  O   UNL     1       3.672  -1.527   2.419  0.00  0.00    -0.271 OA
ATOM      9  N   UNL     1       3.896  -1.667   0.042  0.00  0.00    -0.143 NA
ATOM     10  C   UNL     1       3.153  -1.512  -1.098  0.00  0.00    +0.247 C 
ATOM     11  O   UNL     1       3.552  -1.406  -2.240  0.00  0.00    -0.273 OA
ENDROOT
BRANCH   3  12
ATOM     12  C   UNL     1      -0.240  -1.238  -2.124  0.00  0.00    -0.010 A 
ATOM     13  C   UNL     1      -1.464  -1.667  -1.645  0.00  0.00    +0.010 A 
ATOM     14  C   UNL     1      -2.347  -2.323  -2.483  0.00  0.00    +0.050 A 
ATOM     15  C   UNL     1      -2.006  -2.550  -3.807  0.00  0.00    +0.162 A 
ATOM     16  C   UNL     1      -0.775  -2.118  -4.290  0.00  0.00    +0.173 A 
ATOM     17  C   UNL     1       0.104  -1.456  -3.446  0.00  0.00    +0.068 A 
ATOM     18 BR   UNL     1       1.775  -0.860  -4.099  0.00  0.00    -0.046 Br
BRANCH  16  19
ATOM     19  O   UNL     1      -0.436  -2.339  -5.588  0.00  0.00    -0.503 OA
ATOM     20  H   UNL     1      -0.699  -1.629  -6.190  0.00  0.00    +0.292 HD
ENDBRANCH  16  19
BRANCH  15  21
ATOM     21  O   UNL     1      -2.873  -3.196  -4.633  0.00  0.00    -0.491 OA
ATOM     22  C   UNL     1      -4.118  -3.612  -4.069  0.00  0.00    +0.277 C 
ENDBRANCH  15  21
ENDBRANCH   3  12
TORSDOF 3
