REMARK  Name = ZINC38783041
REMARK  4 active torsions:
REMARK  status: ('A' for Active; 'I' for Inactive)
REMARK    1  A    between atoms: C_5  and  C_7
REMARK    2  A    between atoms: C_7  and  O_9
REMARK    3  A    between atoms: O_9  and  C_10
REMARK    4  A    between atoms: C_10  and  C_11
REMARK                            x       y       z     vdW  Elec       q    Type
REMARK                         _______ _______ _______ _____ _____    ______ ____
ROOT
ATOM      1  C   UNL     1      -1.371  -4.879  -0.132  0.00  0.00    +0.255 C 
ATOM      2  O   UNL     1      -2.438  -4.304  -0.190  0.00  0.00    -0.272 OA
ATOM      3  N   UNL     1      -1.335  -6.221  -0.020  0.00  0.00    -0.283 N 
ATOM      4  C   UNL     1      -1.966  -6.819   0.972  0.00  0.00    +0.036 C 
ATOM      5  C   UNL     1      -2.604  -6.018   2.023  0.00  0.00    +0.025 C 
ATOM      6  C   UNL     1      -3.251  -6.620   3.040  0.00  0.00    +0.032 C 
ATOM      7  C   UNL     1      -3.322  -8.084   3.102  0.00  0.00    +0.095 C 
ATOM      8  N   UNL     1      -3.864  -8.944   3.942  0.00  0.00    -0.190 NA
ATOM      9  C   UNL     1      -3.624 -10.194   3.513  0.00  0.00    +0.369 C 
ATOM     10  O   UNL     1      -4.045 -11.313   4.150  0.00  0.00    -0.243 OA
ATOM     11  N   UNL     1      -2.929 -10.195   2.399  0.00  0.00    -0.190 NA
ATOM     12  C   UNL     1      -2.684  -8.899   2.050  0.00  0.00    +0.097 C 
ATOM     13  C   UNL     1      -2.036  -8.295   1.022  0.00  0.00    +0.053 C 
ATOM     14  H   UNL     1      -0.844  -6.749  -0.670  0.00  0.00    +0.155 HD
ENDROOT
BRANCH   1  15
ATOM     15  C   UNL     1      -0.088  -4.091  -0.184  0.00  0.00    +0.328 C 
BRANCH  15  16
ATOM     16  O   UNL     1      -0.387  -2.699  -0.302  0.00  0.00    -0.452 OA
BRANCH  16  17
ATOM     17  C   UNL     1       0.658  -1.851  -0.362  0.00  0.00    +0.341 C 
ATOM     18  O   UNL     1       1.793  -2.282  -0.315  0.00  0.00    -0.245 OA
BRANCH  17  23
ATOM     19  C   UNL     1      -1.090   1.458  -0.655  0.00  0.00    +0.001 A 
ATOM     20  C   UNL     1      -0.014   2.327  -0.716  0.00  0.00    +0.001 A 
ATOM     21  C   UNL     1       1.280   1.841  -0.662  0.00  0.00    +0.016 A 
ATOM     22  C   UNL     1       1.506   0.483  -0.547  0.00  0.00    +0.032 A 
ATOM     23  C   UNL     1       0.425  -0.399  -0.484  0.00  0.00    +0.073 A 
ATOM     24  C   UNL     1      -0.879   0.100  -0.540  0.00  0.00    +0.016 A 
ATOM     25 BR   UNL     1       3.276  -0.180  -0.474  0.00  0.00    -0.049 Br
ENDBRANCH  17  23
ENDBRANCH  16  17
ENDBRANCH  15  16
ENDBRANCH   1  15
TORSDOF 4
