REMARK  Name = ZINC05737588
REMARK  5 active torsions:
REMARK  status: ('A' for Active; 'I' for Inactive)
REMARK    1  A    between atoms: C_1  and  C_2
REMARK    2  A    between atoms: C_5  and  N_9
REMARK    3  A    between atoms: C_6  and  C_8
REMARK    4  A    between atoms: C_20  and  C_21
REMARK    5  A    between atoms: C_24  and  N_27
REMARK                            x       y       z     vdW  Elec       q    Type
REMARK                         _______ _______ _______ _____ _____    ______ ____
ROOT
ATOM      1  N   UNL     1       0.057  -4.172  -0.021  0.00  0.00    -0.204 N 
ATOM      2  C   UNL     1      -1.053  -4.931  -0.025  0.00  0.00    +0.258 C 
ATOM      3  O   UNL     1      -2.186  -4.507   0.116  0.00  0.00    -0.269 OA
ATOM      4  C   UNL     1      -0.722  -6.274  -0.215  0.00  0.00    +0.081 C 
ATOM      5  H   UNL     1       0.287  -9.208  -0.791  0.00  0.00    +0.194 HD
ATOM      6  C   UNL     1       0.764  -6.330   0.167  0.00  0.00    +0.272 C 
ATOM      7  C   UNL     1       1.192  -4.906  -0.031  0.00  0.00    +0.263 C 
ATOM      8  O   UNL     1       2.325  -4.497  -0.169  0.00  0.00    -0.271 OA
ATOM      9  O   UNL     1       1.241  -7.263  -0.813  0.00  0.00    -0.256 OA
ATOM     10  N   UNL     1       0.186  -8.244  -0.750  0.00  0.00    -0.264 N 
ATOM     11  C   UNL     1      -1.003  -7.540  -0.621  0.00  0.00    +0.080 C 
ENDROOT
BRANCH   1  16
ATOM     12  C   UNL     1      -0.018   1.503   0.010  0.00  0.00    +0.044 C 
ATOM     13  C   UNL     1       0.002  -0.004   0.002  0.00  0.00    -0.050 A 
ATOM     14  C   UNL     1       0.006  -0.688  -1.200  0.00  0.00    +0.005 A 
ATOM     15  C   UNL     1       0.024  -2.068  -1.211  0.00  0.00    +0.024 A 
ATOM     16  C   UNL     1       0.039  -2.771  -0.013  0.00  0.00    +0.047 A 
ATOM     17  C   UNL     1       0.036  -2.082   1.192  0.00  0.00    -0.028 A 
ATOM     18  C   UNL     1       0.023  -0.700   1.196  0.00  0.00    +0.008 A 
ATOM     19  C   UNL     1       0.052  -2.840   2.494  0.00  0.00    +0.046 C 
ENDBRANCH   1  16
BRANCH  11  20
ATOM     20  C   UNL     1      -2.353  -8.079  -0.882  0.00  0.00    +0.001 A 
ATOM     21  C   UNL     1      -3.476  -7.266  -0.720  0.00  0.00    +0.012 A 
ATOM     22  C   UNL     1      -4.734  -7.776  -0.966  0.00  0.00    +0.033 A 
ATOM     23  C   UNL     1      -4.884  -9.090  -1.371  0.00  0.00    +0.126 A 
ATOM     24  C   UNL     1      -3.776  -9.902  -1.534  0.00  0.00    +0.033 A 
ATOM     25  C   UNL     1      -2.511  -9.403  -1.298  0.00  0.00    +0.012 A 
BRANCH  23  26
ATOM     26  N   UNL     1      -6.237  -9.631  -1.632  0.00  0.00    +0.056 N 
ATOM     27  O   UNL     1      -7.208  -8.924  -1.490  0.00  0.00    -0.126 OA
ATOM     28  O   UNL     1      -6.372 -10.779  -1.986  0.00  0.00    -0.126 OA
ENDBRANCH  23  26
ENDBRANCH  11  20
TORSDOF 3
