REMARK  Name = ZINC33623392
REMARK  12 active torsions:
REMARK  status: ('A' for Active; 'I' for Inactive)
REMARK    1  A    between atoms: C_1  and  C_2
REMARK    2  A    between atoms: C_2  and  C_3
REMARK    3  A    between atoms: C_7  and  C_36
REMARK    4  A    between atoms: C_8  and  N_9
REMARK    5  A    between atoms: C_14  and  C_27
REMARK    6  A    between atoms: C_17  and  C_22
REMARK    7  A    between atoms: C_17  and  C_24
REMARK    8  A    between atoms: C_22  and  O_23
REMARK    9  A    between atoms: C_30  and  O_35
REMARK   10  A    between atoms: C_31  and  O_33
REMARK   11  A    between atoms: O_33  and  C_34
REMARK   12  A    between atoms: C_36  and  C_37
REMARK                            x       y       z     vdW  Elec       q    Type
REMARK                         _______ _______ _______ _____ _____    ______ ____
ROOT
ATOM      1  N   UNL     1      -1.424   7.108  -3.509  0.00  0.00    -0.209 N 
ATOM      2  C   UNL     1      -1.281   6.060  -2.643  0.00  0.00    +0.229 C 
ATOM      3  O   UNL     1      -1.432   4.883  -2.893  0.00  0.00    -0.275 OA
ATOM      4  C   UNL     1      -0.902   6.659  -1.326  0.00  0.00    +0.077 C 
ATOM      5  C   UNL     1       0.207   6.050  -0.474  0.00  0.00    -0.026 C 
ATOM      6  N   UNL     1       0.830   7.248   0.178  0.00  0.00    +0.397 N 
ATOM      7  C   UNL     1       0.587   8.428  -0.716  0.00  0.00    +0.071 C 
ATOM      8  C   UNL     1      -0.066   7.864  -1.904  0.00  0.00    +0.088 C 
ATOM      9  C   UNL     1      -0.883   8.266  -3.023  0.00  0.00    +0.229 C 
ATOM     10  O   UNL     1      -1.055   9.390  -3.445  0.00  0.00    -0.275 OA
ATOM     11  H   UNL     1       0.368   7.411   1.163  0.00  0.00    -0.083 HD
ATOM     12  H   UNL     1       1.910   7.077   0.303  0.00  0.00    -0.083 HD
ENDROOT
BRANCH   1  18
ATOM     13  C   UNL     1      -1.344   6.677  -5.886  0.00  0.00    -0.026 A 
ATOM     14  C   UNL     1      -1.984   6.574  -7.106  0.00  0.00    +0.005 A 
ATOM     15  C   UNL     1      -3.343   6.811  -7.198  0.00  0.00    +0.001 A 
ATOM     16  C   UNL     1      -4.067   7.146  -6.068  0.00  0.00    +0.005 A 
ATOM     17  C   UNL     1      -3.434   7.245  -4.845  0.00  0.00    -0.026 A 
ATOM     18  C   UNL     1      -2.069   7.008  -4.750  0.00  0.00    +0.050 A 
BRANCH  13  20
ATOM     19  C   UNL     1       0.382   4.968  -5.387  0.00  0.00    +0.009 C 
ATOM     20  C   UNL     1       0.138   6.424  -5.788  0.00  0.00    +0.033 C 
ENDBRANCH  13  20
BRANCH  17  21
ATOM     21  C   UNL     1      -4.224   7.610  -3.614  0.00  0.00    +0.033 C 
ATOM     22  C   UNL     1      -4.127   9.118  -3.375  0.00  0.00    +0.009 C 
ENDBRANCH  17  21
ENDBRANCH   1  18
BRANCH   5  23
ATOM     23  C   UNL     1      -0.368   5.119   0.562  0.00  0.00    -0.057 A 
ATOM     24  C   UNL     1      -1.003   5.634   1.677  0.00  0.00    +0.006 A 
ATOM     25  C   UNL     1      -1.532   4.784   2.629  0.00  0.00    +0.049 A 
ATOM     26  C   UNL     1      -1.432   3.411   2.465  0.00  0.00    +0.158 A 
ATOM     27  C   UNL     1      -0.787   2.893   1.346  0.00  0.00    +0.161 A 
ATOM     28  C   UNL     1      -0.259   3.751   0.395  0.00  0.00    +0.051 A 
BRANCH  27  29
ATOM     29  O   UNL     1      -0.682   1.547   1.184  0.00  0.00    -0.491 OA
ATOM     30  C   UNL     1      -0.013   1.086   0.008  0.00  0.00    +0.277 C 
ENDBRANCH  27  29
BRANCH  26  31
ATOM     31  O   UNL     1      -1.957   2.573   3.399  0.00  0.00    -0.503 OA
ATOM     32  H   UNL     1      -1.876   1.484   3.268  0.00  0.00    +0.292 HD
ENDBRANCH  26  31
ENDBRANCH   5  23
BRANCH   7  33
ATOM     33  C   UNL     1       1.892   9.081  -1.091  0.00  0.00    +0.348 C 
ATOM     34  O   UNL     1       2.040   9.544  -2.197  0.00  0.00    -0.248 OA
ATOM     35  O   UNL     1       2.890   9.149  -0.196  0.00  0.00    -0.248 OA
ENDBRANCH   7  33
BRANCH   7  36
ATOM     36  C   UNL     1      -0.336   9.437  -0.029  0.00  0.00    +0.155 C 
BRANCH  36  37
ATOM     37  O   UNL     1       0.286   9.914   1.166  0.00  0.00    -0.396 OA
ATOM     38  H   UNL     1      -0.230  10.652   1.798  0.00  0.00    +0.209 HD
ENDBRANCH  36  37
ENDBRANCH   7  36
TORSDOF 9
