REMARK  Name = ZINC01217244
REMARK  11 active torsions:
REMARK  status: ('A' for Active; 'I' for Inactive)
REMARK    1  A    between atoms: C_1  and  O_2
REMARK    2  A    between atoms: O_2  and  C_3
REMARK    3  A    between atoms: C_5  and  C_13
REMARK    4  A    between atoms: C_7  and  O_11
REMARK    5  A    between atoms: C_8  and  O_9
REMARK    6  A    between atoms: O_9  and  C_10
REMARK    7  A    between atoms: O_11  and  C_12
REMARK    8  A    between atoms: C_20  and  N_36
REMARK    9  A    between atoms: C_21  and  C_34
REMARK   10  A    between atoms: C_22  and  C_24
REMARK   11  A    between atoms: C_27  and  C_30
REMARK                            x       y       z     vdW  Elec       q    Type
REMARK                         _______ _______ _______ _____ _____    ______ ____
ROOT
ATOM      1  C   UNL     1       2.396   0.359  -4.220  0.00  0.00    +0.074 A 
ATOM      2  C   UNL     1       2.262   0.160  -5.553  0.00  0.00    +0.054 A 
ATOM      3  C   UNL     1       2.996   1.161  -6.220  0.00  0.00    +0.245 A 
ATOM      4  N   UNL     1       3.547   1.930  -5.324  0.00  0.00    -0.135 NA
ATOM      5  N   UNL     1       3.188   1.460  -4.052  0.00  0.00    -0.273 N 
ATOM      6  H   UNL     1       3.456   1.846  -3.203  0.00  0.00    +0.189 HD
ATOM      7  O   UNL     1       3.058   1.226  -7.577  0.00  0.00    -0.421 OA
ATOM      8  C   UNL     1       2.625   0.154  -8.271  0.00  0.00    +0.201 C 
ATOM      9  C   UNL     1       1.905  -0.859  -7.743  0.00  0.00    +0.098 C 
ATOM     10  C   UNL     1       1.493  -0.904  -6.293  0.00  0.00    +0.102 C 
ENDROOT
BRANCH   1  13
ATOM     11  C   UNL     1       0.606  -0.608  -1.056  0.00  0.00    +0.166 A 
ATOM     12  C   UNL     1       1.171   0.160  -2.060  0.00  0.00    +0.059 A 
ATOM     13  C   UNL     1       1.791  -0.460  -3.145  0.00  0.00    +0.007 A 
ATOM     14  C   UNL     1       1.839  -1.852  -3.217  0.00  0.00    +0.059 A 
ATOM     15  C   UNL     1       1.273  -2.616  -2.211  0.00  0.00    +0.166 A 
ATOM     16  C   UNL     1       0.661  -1.996  -1.127  0.00  0.00    +0.204 A 
BRANCH  11  18
ATOM     17  C   UNL     1      -0.017   1.425   0.010  0.00  0.00    +0.277 C 
ATOM     18  O   UNL     1       0.002  -0.004   0.002  0.00  0.00    -0.491 OA
ENDBRANCH  11  18
BRANCH  16  19
ATOM     19  O   UNL     1       0.110  -2.748  -0.136  0.00  0.00    -0.488 OA
ATOM     20  C   UNL     1      -1.262  -3.119  -0.290  0.00  0.00    +0.277 C 
ENDBRANCH  16  19
BRANCH  15  21
ATOM     21  O   UNL     1       1.320  -3.973  -2.280  0.00  0.00    -0.491 OA
ATOM     22  C   UNL     1       1.969  -4.543  -3.419  0.00  0.00    +0.277 C 
ENDBRANCH  15  21
ENDBRANCH   1  13
BRANCH  10  23
ATOM     23  C   UNL     1       0.015  -0.637  -6.176  0.00  0.00    -0.035 A 
ATOM     24  C   UNL     1      -0.515   0.544  -6.661  0.00  0.00    +0.005 A 
ATOM     25  C   UNL     1      -1.871   0.789  -6.554  0.00  0.00    +0.012 A 
ATOM     26  C   UNL     1      -2.698  -0.148  -5.962  0.00  0.00    +0.055 A 
ATOM     27  C   UNL     1      -2.168  -1.330  -5.478  0.00  0.00    +0.012 A 
ATOM     28  C   UNL     1      -0.813  -1.576  -5.589  0.00  0.00    +0.005 A 
BRANCH  26  29
ATOM     29  C   UNL     1      -4.176   0.119  -5.844  0.00  0.00    +0.417 C 
ATOM     30  F   UNL     1      -4.830  -0.367  -6.981  0.00  0.00    -0.166 F 
ATOM     31  F   UNL     1      -4.677  -0.525  -4.707  0.00  0.00    -0.166 F 
ATOM     32  F   UNL     1      -4.394   1.497  -5.733  0.00  0.00    -0.166 F 
ENDBRANCH  26  29
ENDBRANCH  10  23
BRANCH   8  33
ATOM     33  N   UNL     1       2.938   0.088  -9.605  0.00  0.00    -0.328 N 
ATOM     34  H   UNL     1       3.454   0.798 -10.019  0.00  0.00    +0.145 HD
ATOM     35  H   UNL     1       2.643  -0.669 -10.136  0.00  0.00    +0.145 HD
ENDBRANCH   8  33
BRANCH   9  36
ATOM     36  C   UNL     1       1.516  -1.938  -8.599  0.00  0.00    +0.101 C 
ATOM     37  N   UNL     1       1.206  -2.795  -9.278  0.00  0.00    -0.191 NA
ENDBRANCH   9  36
TORSDOF 8
