REMARK  Name = ZINC63572004
REMARK  8 active torsions:
REMARK  status: ('A' for Active; 'I' for Inactive)
REMARK    1  A    between atoms: C_1  and  O_2
REMARK    2  A    between atoms: O_2  and  C_3
REMARK    3  A    between atoms: C_3  and  C_4
REMARK    4  A    between atoms: C_4  and  C_5
REMARK    5  A    between atoms: C_5  and  N_6
REMARK    6  A    between atoms: C_22  and  C_24
REMARK    7  A    between atoms: C_27  and  O_30
REMARK    8  A    between atoms: O_30  and  C_31
REMARK                            x       y       z     vdW  Elec       q    Type
REMARK                         _______ _______ _______ _____ _____    ______ ____
ROOT
ATOM      1  N   UNL     1      -2.582  -4.497   1.311  0.00  0.00    -0.299 N 
ATOM      2  C   UNL     1      -3.638  -5.208   0.868  0.00  0.00    +0.303 C 
ATOM      3  O   UNL     1      -4.753  -4.722   0.896  0.00  0.00    -0.253 OA
ATOM      4  N   UNL     1      -3.459  -6.456   0.394  0.00  0.00    -0.276 N 
ATOM      5  C   UNL     1      -2.137  -7.085   0.485  0.00  0.00    +0.114 C 
ATOM      6  C   UNL     1      -1.661  -7.484  -0.924  0.00  0.00    +0.052 C 
ATOM      7  C   UNL     1      -2.831  -8.153  -1.602  0.00  0.00    -0.035 C 
ATOM      8  C   UNL     1      -2.935  -9.321  -2.224  0.00  0.00    -0.001 A 
ATOM      9  C   UNL     1      -1.930 -10.338  -2.573  0.00  0.00    +0.010 A 
ATOM     10  C   UNL     1      -2.395 -11.448  -3.205  0.00  0.00    +0.001 A 
ATOM     11  C   UNL     1      -3.743 -11.647  -3.519  0.00  0.00    +0.002 A 
ATOM     12  C   UNL     1      -4.733 -10.762  -3.242  0.00  0.00    +0.026 A 
ATOM     13  C   UNL     1      -4.367  -9.551  -2.586  0.00  0.00    +0.043 A 
ATOM     14  N   UNL     1      -5.095  -8.534  -2.228  0.00  0.00    -0.375 N 
ATOM     15  C   UNL     1      -4.215  -7.516  -1.655  0.00  0.00    +0.131 C 
ATOM     16  C   UNL     1      -4.594  -7.177  -0.205  0.00  0.00    +0.134 C 
ATOM     17  H   UNL     1      -1.706  -4.910   1.358  0.00  0.00    +0.150 HD
ATOM     18  H   UNL     1      -6.058  -8.464  -2.325  0.00  0.00    +0.160 HD
ENDROOT
BRANCH  16  19
ATOM     19  C   UNL     1      -5.821  -6.303  -0.186  0.00  0.00    -0.024 A 
ATOM     20  C   UNL     1      -5.864  -5.157  -0.959  0.00  0.00    +0.009 A 
ATOM     21  C   UNL     1      -6.988  -4.354  -0.943  0.00  0.00    +0.046 A 
ATOM     22  C   UNL     1      -8.074  -4.697  -0.151  0.00  0.00    +0.120 A 
ATOM     23  C   UNL     1      -8.028  -5.848   0.623  0.00  0.00    +0.046 A 
ATOM     24  C   UNL     1      -6.904  -6.651   0.600  0.00  0.00    +0.009 A 
BRANCH  22  25
ATOM     25  O   UNL     1      -9.180  -3.909  -0.134  0.00  0.00    -0.495 OA
ATOM     26  C   UNL     1     -10.260  -4.324   0.705  0.00  0.00    +0.277 C 
ENDBRANCH  22  25
ENDBRANCH  16  19
BRANCH   1  27
ATOM     27  C   UNL     1      -2.758  -3.103   1.723  0.00  0.00    +0.108 C 
BRANCH  27  28
ATOM     28  C   UNL     1      -1.414  -2.532   2.180  0.00  0.00    +0.047 C 
BRANCH  28  29
ATOM     29  C   UNL     1      -1.598  -1.075   2.610  0.00  0.00    +0.161 C 
BRANCH  29  31
ATOM     30  C   UNL     1      -0.404   0.821   3.462  0.00  0.00    +0.193 C 
ATOM     31  O   UNL     1      -0.343  -0.542   3.037  0.00  0.00    -0.383 OA
ENDBRANCH  29  31
ENDBRANCH  28  29
ENDBRANCH  27  28
ENDBRANCH   1  27
TORSDOF 6
