REMARK  Name = ZINC66760142
REMARK  6 active torsions:
REMARK  status: ('A' for Active; 'I' for Inactive)
REMARK    1  A    between atoms: C_1  and  C_2
REMARK    2  A    between atoms: C_2  and  C_26
REMARK    3  A    between atoms: C_5  and  C_20
REMARK    4  A    between atoms: C_9  and  C_11
REMARK    5  A    between atoms: C_14  and  S_16
REMARK    6  A    between atoms: S_16  and  N_19
REMARK                            x       y       z     vdW  Elec       q    Type
REMARK                         _______ _______ _______ _____ _____    ______ ____
ROOT
ATOM      1  C   UNL     1       0.026   1.520  -0.030  0.00  0.00    +0.034 C 
ATOM      2  C   UNL     1      -0.003  -0.009   0.008  0.00  0.00    +0.056 C 
ATOM      3  C   UNL     1      -1.447  -0.494   0.182  0.00  0.00    +0.186 C 
ATOM      4  O   UNL     1      -1.446  -1.906   0.402  0.00  0.00    -0.368 OA
ATOM      5  C   UNL     1      -0.768  -2.313   1.593  0.00  0.00    +0.166 C 
ATOM      6  C   UNL     1       0.710  -1.921   1.491  0.00  0.00    +0.145 C 
ATOM      7  N   UNL     1       0.789  -0.492   1.149  0.00  0.00    -0.285 N 
ATOM      8  C   UNL     1       1.565   0.350   1.861  0.00  0.00    +0.283 C 
ATOM      9  O   UNL     1       1.530   1.546   1.637  0.00  0.00    -0.267 OA
ATOM     10  C   UNL     1       0.575  -0.567  -1.294  0.00  0.00    +0.034 C 
ENDROOT
BRANCH   5  11
ATOM     11  C   UNL     1      -0.884  -3.807   1.754  0.00  0.00    -0.017 A 
ATOM     12  C   UNL     1      -0.769  -4.631   0.650  0.00  0.00    +0.006 A 
ATOM     13  C   UNL     1      -0.875  -6.002   0.798  0.00  0.00    +0.000 A 
ATOM     14  C   UNL     1      -1.097  -6.547   2.048  0.00  0.00    +0.000 A 
ATOM     15  C   UNL     1      -1.212  -5.723   3.152  0.00  0.00    +0.000 A 
ATOM     16  C   UNL     1      -1.101  -4.352   3.005  0.00  0.00    +0.006 A 
ENDBRANCH   5  11
BRANCH   8  17
ATOM     17  C   UNL     1       2.450  -0.175   2.906  0.00  0.00    +0.192 A 
ATOM     18  C   UNL     1       3.183   0.570   3.785  0.00  0.00    +0.057 A 
ATOM     19  C   UNL     1       3.877  -0.338   4.601  0.00  0.00    +0.072 A 
ATOM     20  C   UNL     1       3.542  -1.580   4.189  0.00  0.00    +0.258 A 
ATOM     21  O   UNL     1       2.678  -1.478   3.171  0.00  0.00    -0.432 OA
BRANCH  20  22
ATOM     22  S   UNL     1       4.140  -3.086   4.880  0.00  0.00    +0.089 S 
ATOM     23  O   UNL     1       4.017  -4.075   3.868  0.00  0.00    -0.150 OA
ATOM     24  O   UNL     1       5.381  -2.784   5.503  0.00  0.00    -0.150 OA
BRANCH  22  25
ATOM     25  N   UNL     1       3.096  -3.517   6.092  0.00  0.00    -0.201 NA
ATOM     26  H   UNL     1       2.328  -2.959   6.292  0.00  0.00    +0.144 HD
ATOM     27  H   UNL     1       3.252  -4.327   6.602  0.00  0.00    +0.144 HD
ENDBRANCH  22  25
ENDBRANCH  20  22
ENDBRANCH   8  17
TORSDOF 4
