REMARK  Name = ZINC40598851
REMARK  6 active torsions:
REMARK  status: ('A' for Active; 'I' for Inactive)
REMARK    1  A    between atoms: C_2  and  C_3
REMARK    2  A    between atoms: C_3  and  N_4
REMARK    3  A    between atoms: C_6  and  N_22
REMARK    4  A    between atoms: C_7  and  N_11
REMARK    5  A    between atoms: N_11  and  N_12
REMARK    6  A    between atoms: C_13  and  C_15
REMARK                            x       y       z     vdW  Elec       q    Type
REMARK                         _______ _______ _______ _____ _____    ______ ____
ROOT
ATOM      1  N   UNL     1       1.367  -1.676   1.111  0.00  0.00    -0.324 N 
ATOM      2  C   UNL     1       2.488  -2.469   1.304  0.00  0.00    +0.155 A 
ATOM      3  C   UNL     1       2.544  -3.365   2.367  0.00  0.00    +0.206 A 
ATOM      4  C   UNL     1       3.691  -4.139   2.517  0.00  0.00    +0.171 A 
ATOM      5  N   UNL     1       4.686  -3.995   1.643  0.00  0.00    -0.217 NA
ATOM      6  C   UNL     1       4.595  -3.135   0.650  0.00  0.00    +0.225 A 
ATOM      7  N   UNL     1       3.524  -2.388   0.471  0.00  0.00    -0.218 NA
ATOM      8  H   UNL     1       0.617  -1.740   1.722  0.00  0.00    +0.148 HD
ENDROOT
BRANCH   3   9
ATOM      9  N   UNL     1       1.413  -3.492   3.314  0.00  0.00    +0.063 N 
ATOM     10  O   UNL     1       0.529  -4.287   3.096  0.00  0.00    -0.126 OA
ATOM     11  O   UNL     1       1.375  -2.801   4.305  0.00  0.00    -0.126 OA
ENDBRANCH   3   9
BRANCH   4  12
ATOM     12  N   UNL     1       3.796  -5.047   3.559  0.00  0.00    -0.246 N 
ATOM     13  H   UNL     1       3.066  -5.146   4.191  0.00  0.00    +0.172 HD
BRANCH  12  14
ATOM     14  N   UNL     1       4.955  -5.821   3.700  0.00  0.00    -0.231 N 
ATOM     15  C   UNL     1       5.057  -6.703   4.714  0.00  0.00    +0.261 C 
ATOM     16  O   UNL     1       4.143  -6.827   5.506  0.00  0.00    -0.269 OA
ATOM     17  H   UNL     1       5.684  -5.722   3.068  0.00  0.00    +0.173 HD
BRANCH  15  18
ATOM     18  C   UNL     1       6.280  -7.519   4.863  0.00  0.00    +0.052 A 
ATOM     19  C   UNL     1       7.333  -7.375   3.958  0.00  0.00    +0.014 A 
ATOM     20  C   UNL     1       8.472  -8.140   4.103  0.00  0.00    +0.001 A 
ATOM     21  C   UNL     1       8.572  -9.050   5.141  0.00  0.00    +0.001 A 
ATOM     22  C   UNL     1       7.532  -9.198   6.041  0.00  0.00    +0.016 A 
ATOM     23  C   UNL     1       6.389  -8.434   5.912  0.00  0.00    +0.030 A 
ATOM     24 BR   UNL     1       4.972  -8.633   7.148  0.00  0.00    -0.050 Br
ENDBRANCH  15  18
ENDBRANCH  12  14
ENDBRANCH   4  12
BRANCH   1  25
ATOM     25  C   UNL     1       1.317  -0.740  -0.015  0.00  0.00    +0.130 C 
BRANCH  25  27
ATOM     26  C   UNL     1      -0.016   1.306   0.009  0.00  0.00    +0.005 C 
ATOM     27  C   UNL     1       0.002  -0.004   0.002  0.00  0.00    -0.016 C 
ENDBRANCH  25  27
ENDBRANCH   1  25
TORSDOF 6
