REMARK  Name = ZINC14944218
REMARK  6 active torsions:
REMARK  status: ('A' for Active; 'I' for Inactive)
REMARK    1  A    between atoms: C_1  and  C_2
REMARK    2  A    between atoms: C_3  and  C_40
REMARK    3  A    between atoms: N_7  and  S_8
REMARK    4  A    between atoms: S_8  and  C_11
REMARK    5  A    between atoms: C_28  and  C_31
REMARK    6  A    between atoms: C_35  and  C_37
REMARK                            x       y       z     vdW  Elec       q    Type
REMARK                         _______ _______ _______ _____ _____    ______ ____
ROOT
ATOM      1  C   UNL     1       2.082  -5.856  -0.043  0.00  0.00    +0.113 A 
ATOM      2  C   UNL     1       2.596  -6.306  -1.246  0.00  0.00    +0.031 A 
ATOM      3  C   UNL     1       3.628  -7.223  -1.268  0.00  0.00    +0.025 A 
ATOM      4  C   UNL     1       4.158  -7.704  -0.081  0.00  0.00    +0.031 A 
ATOM      5  C   UNL     1       3.618  -7.245   1.136  0.00  0.00    -0.021 A 
ATOM      6  C   UNL     1       2.604  -6.326   1.151  0.00  0.00    +0.034 A 
ATOM      7  C   UNL     1       4.238  -7.853   2.341  0.00  0.00    +0.029 C 
ATOM      8  C   UNL     1       3.484  -7.870   3.675  0.00  0.00    -0.003 C 
ATOM      9  C   UNL     1       2.183  -8.703   3.521  0.00  0.00    +0.004 C 
ATOM     10  C   UNL     1       2.612 -10.190   3.471  0.00  0.00    +0.004 C 
ATOM     11  C   UNL     1       4.181 -10.096   3.334  0.00  0.00    -0.005 C 
ATOM     12  C   UNL     1       4.419  -8.928   4.398  0.00  0.00    +0.008 C 
ATOM     13  C   UNL     1       4.320  -9.367   1.999  0.00  0.00    +0.024 C 
ATOM     14  C   UNL     1       5.422  -9.588   1.017  0.00  0.00    +0.105 C 
ATOM     15  N   UNL     1       5.216  -8.618  -0.085  0.00  0.00    -0.336 N 
ATOM     16  H   UNL     1       5.835  -8.618  -0.833  0.00  0.00    +0.147 HD
ENDROOT
BRANCH  14  17
ATOM     17  C   UNL     1       5.362 -10.996   0.485  0.00  0.00    -0.026 A 
ATOM     18  C   UNL     1       4.465 -11.317  -0.519  0.00  0.00    +0.005 A 
ATOM     19  C   UNL     1       4.403 -12.607  -1.014  0.00  0.00    +0.001 A 
ATOM     20  C   UNL     1       5.237 -13.584  -0.510  0.00  0.00    +0.015 A 
ATOM     21  C   UNL     1       6.145 -13.267   0.503  0.00  0.00    +0.063 A 
ATOM     22  C   UNL     1       6.206 -11.960   0.994  0.00  0.00    +0.020 A 
BRANCH  21  23
ATOM     23  C   UNL     1       7.040 -14.306   1.048  0.00  0.00    +0.387 C 
ATOM     24  O   UNL     1       6.987 -15.448   0.613  0.00  0.00    -0.241 OA
ATOM     25  O   UNL     1       7.833 -14.026   1.935  0.00  0.00    -0.241 OA
ENDBRANCH  21  23
ENDBRANCH  14  17
BRANCH   1  26
ATOM     26  S   UNL     1       0.769  -4.680  -0.030  0.00  0.00    +0.103 S 
ATOM     27  O   UNL     1       0.105  -4.827   1.217  0.00  0.00    -0.146 OA
ATOM     28  O   UNL     1       0.094  -4.811  -1.273  0.00  0.00    -0.146 OA
BRANCH  26  35
ATOM     29  C   UNL     1      -0.018   1.503   0.010  0.00  0.00    +0.067 C 
ATOM     30  C   UNL     1       0.002  -0.004   0.002  0.00  0.00    +0.055 A 
ATOM     31  C   UNL     1      -1.057  -0.799   0.003  0.00  0.00    +0.125 A 
ATOM     32  O   UNL     1      -0.642  -2.088  -0.007  0.00  0.00    -0.427 OA
ATOM     33  C   UNL     1       0.705  -2.110  -0.014  0.00  0.00    +0.319 A 
ATOM     34  N   UNL     1       1.138  -0.809  -0.014  0.00  0.00    -0.309 N 
ATOM     35  N   UNL     1       1.460  -3.175  -0.024  0.00  0.00    -0.073 NA
ATOM     36  C   UNL     1      -2.493  -0.342   0.012  0.00  0.00    +0.088 C 
ATOM     37  H   UNL     1       2.059  -0.506  -0.021  0.00  0.00    +0.170 HD
ENDBRANCH  26  35
ENDBRANCH   1  26
TORSDOF 4
