REMARK  Name = ZINC13660219
REMARK  13 active torsions:
REMARK  status: ('A' for Active; 'I' for Inactive)
REMARK    1  A    between atoms: C_1  and  C_2
REMARK    2  A    between atoms: C_2  and  C_3
REMARK    3  A    between atoms: C_4  and  C_5
REMARK    4  A    between atoms: C_5  and  C_7
REMARK    5  A    between atoms: C_5  and  O_34
REMARK    6  A    between atoms: C_7  and  C_9
REMARK    7  A    between atoms: C_7  and  O_33
REMARK    8  A    between atoms: C_10  and  C_32
REMARK    9  A    between atoms: C_15  and  O_31
REMARK   10  A    between atoms: C_17  and  C_21
REMARK   11  A    between atoms: C_17  and  O_29
REMARK   12  A    between atoms: C_21  and  C_23
REMARK   13  A    between atoms: O_29  and  C_30
REMARK                            x       y       z     vdW  Elec       q    Type
REMARK                         _______ _______ _______ _____ _____    ______ ____
ROOT
ATOM      1  C   UNL     1       0.225  -2.814  -3.810  0.00  0.00    +0.137 C 
ATOM      2  C   UNL     1      -0.209  -3.613  -4.800  0.00  0.00    +0.037 C 
ATOM      3  C   UNL     1       0.898  -4.210  -5.442  0.00  0.00    +0.217 C 
ATOM      4  O   UNL     1       0.887  -4.986  -6.377  0.00  0.00    -0.287 OA
ATOM      5  C   UNL     1       2.095  -3.667  -4.706  0.00  0.00    +0.276 C 
ATOM      6  O   UNL     1       1.565  -2.800  -3.709  0.00  0.00    -0.467 OA
ATOM      7  C   UNL     1       2.923  -4.804  -4.086  0.00  0.00    +0.233 C 
ATOM      8  C   UNL     1       4.026  -5.001  -5.152  0.00  0.00    +0.231 C 
ATOM      9  N   UNL     1       4.123  -3.717  -5.858  0.00  0.00    -0.275 N 
ATOM     10  C   UNL     1       3.038  -2.951  -5.631  0.00  0.00    +0.270 C 
ATOM     11  O   UNL     1       2.850  -1.850  -6.104  0.00  0.00    -0.271 OA
ATOM     12  C   UNL     1      -1.654  -3.837  -5.168  0.00  0.00    +0.051 C 
ATOM     13  H   UNL     1       4.873  -3.453  -6.415  0.00  0.00    +0.152 HD
ENDROOT
BRANCH   8  14
ATOM     14  C   UNL     1       5.338  -5.333  -4.490  0.00  0.00    +0.216 C 
ATOM     15  O   UNL     1       6.299  -4.612  -4.653  0.00  0.00    -0.287 OA
BRANCH  14  16
ATOM     16  C   UNL     1       5.453  -6.533  -3.646  0.00  0.00    +0.022 A 
ATOM     17  C   UNL     1       4.382  -7.427  -3.545  0.00  0.00    +0.011 A 
ATOM     18  C   UNL     1       4.498  -8.550  -2.752  0.00  0.00    +0.001 A 
ATOM     19  C   UNL     1       5.670  -8.792  -2.057  0.00  0.00    +0.000 A 
ATOM     20  C   UNL     1       6.734  -7.912  -2.151  0.00  0.00    +0.001 A 
ATOM     21  C   UNL     1       6.636  -6.788  -2.945  0.00  0.00    +0.011 A 
ENDBRANCH  14  16
ENDBRANCH   8  14
BRANCH   8  22
ATOM     22  O   UNL     1       3.654  -6.038  -6.063  0.00  0.00    -0.350 OA
ATOM     23  C   UNL     1       4.596  -6.253  -7.116  0.00  0.00    +0.197 C 
ENDBRANCH   8  22
BRANCH   7  24
ATOM     24  O   UNL     1       3.485  -4.405  -2.834  0.00  0.00    -0.382 OA
ATOM     25  H   UNL     1       4.016  -5.090  -2.405  0.00  0.00    +0.210 HD
ENDBRANCH   7  24
BRANCH   1  26
ATOM     26  C   UNL     1      -0.689  -2.018  -2.915  0.00  0.00    +0.212 C 
BRANCH  26  27
ATOM     27  O   UNL     1      -0.409  -2.330  -1.549  0.00  0.00    -0.381 OA
ATOM     28  H   UNL     1       0.498  -2.133  -1.278  0.00  0.00    +0.210 HD
ENDBRANCH  26  27
BRANCH  26  29
ATOM     29  C   UNL     1      -0.463  -0.524  -3.154  0.00  0.00    +0.173 C 
BRANCH  29  31
ATOM     30  C   UNL     1      -0.884   1.204  -1.481  0.00  0.00    -0.029 C 
ATOM     31  C   UNL     1      -1.377   0.272  -2.259  0.00  0.00    +0.003 C 
BRANCH  30  33
ATOM     32  C   UNL     1       0.667   3.115  -1.775  0.00  0.00    +0.008 C 
ATOM     33  C   UNL     1       0.565   1.599  -1.603  0.00  0.00    +0.023 C 
ENDBRANCH  30  33
ENDBRANCH  29  31
BRANCH  29  34
ATOM     34  O   UNL     1      -0.743  -0.212  -4.520  0.00  0.00    -0.385 OA
ATOM     35  H   UNL     1      -1.650  -0.410  -4.791  0.00  0.00    +0.210 HD
ENDBRANCH  29  34
ENDBRANCH  26  29
ENDBRANCH   1  26
TORSDOF 10
