REMARK  Name = ZINC42403601
REMARK  3 active torsions:
REMARK  status: ('A' for Active; 'I' for Inactive)
REMARK    1  A    between atoms: C_1  and  C_2
REMARK    2  A    between atoms: C_9  and  C_11
REMARK    3  A    between atoms: C_11  and  C_12
REMARK                            x       y       z     vdW  Elec       q    Type
REMARK                         _______ _______ _______ _____ _____    ______ ____
ROOT
ATOM      1  C   UNL     1       2.232  -0.133   3.120  0.00  0.00    +0.127 C 
ENDROOT
BRANCH   1   9
ATOM      2  C   UNL     1       0.008   1.528  -0.006  0.00  0.00    +0.028 C 
ATOM      3  C   UNL     1       0.016  -0.002  -0.007  0.00  0.00    +0.073 C 
ATOM      4  C   UNL     1       0.633  -0.512  -1.313  0.00  0.00    +0.022 C 
ATOM      5  C   UNL     1       0.765  -2.035  -1.250  0.00  0.00    +0.003 C 
ATOM      6  C   UNL     1       1.692  -2.421  -0.095  0.00  0.00    +0.019 C 
ATOM      7  C   UNL     1       1.087  -1.933   1.225  0.00  0.00    +0.108 C 
ATOM      8  N   UNL     1       0.819  -0.492   1.122  0.00  0.00    -0.299 N 
ATOM      9  C   UNL     1       1.304   0.365   2.042  0.00  0.00    +0.218 C 
ATOM     10  O   UNL     1       0.994   1.537   2.003  0.00  0.00    -0.276 OA
ENDBRANCH   1   9
BRANCH   1  11
ATOM     11  C   UNL     1       2.633   1.033   4.026  0.00  0.00    +0.169 C 
ATOM     12  C   UNL     1       3.596   0.567   5.100  0.00  0.00    +0.241 C 
ATOM     13  O   UNL     1       4.698   0.087   4.937  0.00  0.00    -0.273 OA
ATOM     14  N   UNL     1       2.975   0.797   6.273  0.00  0.00    -0.239 N 
ATOM     15  C   UNL     1       1.765   1.339   6.092  0.00  0.00    +0.307 C 
ATOM     16  O   UNL     1       1.015   1.636   7.001  0.00  0.00    -0.252 OA
ATOM     17  N   UNL     1       1.470   1.520   4.788  0.00  0.00    -0.287 N 
ATOM     18  H   UNL     1       3.357   0.596   7.141  0.00  0.00    +0.159 HD
ATOM     19  H   UNL     1       0.654   1.897   4.423  0.00  0.00    +0.151 HD
ENDBRANCH   1  11
TORSDOF 2
