REMARK  Name = ZINC27265196
REMARK  3 active torsions:
REMARK  status: ('A' for Active; 'I' for Inactive)
REMARK    1  A    between atoms: C_7  and  C_21
REMARK    2  A    between atoms: C_12  and  C_13
REMARK    3  A    between atoms: N_23  and  C_24
REMARK                            x       y       z     vdW  Elec       q    Type
REMARK                         _______ _______ _______ _____ _____    ______ ____
ROOT
ATOM      1  C   UNL     1      10.683   2.711  -6.613  0.00  0.00    +0.001 A 
ATOM      2  C   UNL     1      11.947   3.222  -6.330  0.00  0.00    +0.002 A 
ATOM      3  C   UNL     1      12.097   4.457  -5.777  0.00  0.00    +0.028 A 
ATOM      4  C   UNL     1      10.961   5.234  -5.485  0.00  0.00    +0.072 A 
ATOM      5  C   UNL     1       9.677   4.707  -5.772  0.00  0.00    +0.013 A 
ATOM      6  C   UNL     1       9.559   3.437  -6.345  0.00  0.00    +0.011 A 
ATOM      7  C   UNL     1       8.500   5.524  -5.474  0.00  0.00    +0.051 A 
ATOM      8  C   UNL     1       8.711   6.776  -4.913  0.00  0.00    -0.009 A 
ATOM      9  C   UNL     1      10.027   7.202  -4.656  0.00  0.00    +0.072 A 
ATOM     10  N   UNL     1      11.076   6.446  -4.942  0.00  0.00    -0.247 NA
ATOM     11  C   UNL     1      10.255   8.527  -4.044  0.00  0.00    -0.021 C 
ATOM     12  C   UNL     1      11.467   8.873  -3.560  0.00  0.00    +0.020 C 
ATOM     13  C   UNL     1       9.085   9.484  -3.978  0.00  0.00    +0.037 C 
ATOM     14  C   UNL     1       7.855   8.680  -3.535  0.00  0.00    +0.009 C 
ATOM     15  C   UNL     1       7.521   7.641  -4.603  0.00  0.00    +0.038 C 
ENDROOT
BRANCH  12  16
ATOM     16  C   UNL     1      11.735  10.260  -3.180  0.00  0.00    +0.013 A 
ATOM     17  C   UNL     1      12.854  10.797  -2.563  0.00  0.00    +0.015 A 
ATOM     18  C   UNL     1      12.873  12.146  -2.305  0.00  0.00    +0.008 A 
ATOM     19  C   UNL     1      11.803  12.907  -2.661  0.00  0.00    +0.046 A 
ATOM     20  S   UNL     1      10.709  11.705  -3.398  0.00  0.00    -0.097 S 
ENDBRANCH  12  16
BRANCH   7  21
ATOM     21  C   UNL     1       7.135   5.031  -5.755  0.00  0.00    +0.249 C 
ATOM     22  O   UNL     1       6.619   5.253  -6.833  0.00  0.00    -0.270 OA
ATOM     23  N   UNL     1       6.462   4.337  -4.816  0.00  0.00    -0.280 N 
ATOM     24  H   UNL     1       6.901   4.197  -3.817  0.00  0.00    +0.155 HD
BRANCH  23  25
ATOM     25  C   UNL     1       5.206   3.794  -5.112  0.00  0.00    +0.052 A 
ATOM     26  C   UNL     1       4.341   4.451  -5.987  0.00  0.00    +0.028 A 
ATOM     27  C   UNL     1       3.111   3.880  -6.250  0.00  0.00    +0.045 A 
ATOM     28  C   UNL     1       2.777   2.676  -5.638  0.00  0.00    +0.122 A 
ATOM     29  N   UNL     1       3.621   2.082  -4.809  0.00  0.00    -0.238 NA
ATOM     30  C   UNL     1       4.805   2.597  -4.539  0.00  0.00    +0.136 A 
ATOM     31  N   UNL     1       1.540   2.092  -5.896  0.00  0.00    -0.305 N 
ATOM     32  C   UNL     1       1.449   1.647  -7.296  0.00  0.00    +0.125 C 
ATOM     33  C   UNL     1       0.219   0.750  -7.448  0.00  0.00    +0.123 C 
ATOM     34  N   UNL     1      -0.953   1.407  -6.876  0.00  0.00    -0.313 N 
ATOM     35  C   UNL     1      -0.867   2.428  -6.018  0.00  0.00    +0.230 C 
ATOM     36  O   UNL     1      -1.891   2.896  -5.567  0.00  0.00    -0.274 OA
ATOM     37  C   UNL     1       0.445   3.021  -5.588  0.00  0.00    +0.202 C 
ATOM     38  H   UNL     1      -1.962   1.065  -7.148  0.00  0.00    +0.149 HD
ENDBRANCH  23  25
ENDBRANCH   7  21
TORSDOF 3
