REMARK  Name = ZINC40536387
REMARK  7 active torsions:
REMARK  status: ('A' for Active; 'I' for Inactive)
REMARK    1  A    between atoms: C_2  and  N_10
REMARK    2  A    between atoms: N_13  and  C_14
REMARK    3  A    between atoms: C_14  and  C_15
REMARK    4  A    between atoms: C_15  and  C_16
REMARK    5  A    between atoms: C_16  and  C_17
REMARK    6  A    between atoms: C_17  and  C_18
REMARK    7  A    between atoms: C_18  and  C_19
REMARK                            x       y       z     vdW  Elec       q    Type
REMARK                         _______ _______ _______ _____ _____    ______ ____
ROOT
ATOM      1  N   UNL     1       1.160   3.488   0.009  0.00  0.00    -0.268 N 
ATOM      2  C   UNL     1      -0.011   4.149  -0.078  0.00  0.00    +0.304 C 
ATOM      3  O   UNL     1      -1.059   3.532  -0.072  0.00  0.00    -0.253 OA
ATOM      4  N   UNL     1      -0.021   5.493  -0.173  0.00  0.00    -0.299 N 
ATOM      5  H   UNL     1       1.992   3.982   0.086  0.00  0.00    +0.156 HD
ATOM      6  H   UNL     1       0.815   5.985  -0.178  0.00  0.00    +0.150 HD
ENDROOT
BRANCH   1   8
ATOM      7  C   UNL     1       0.141   1.388  -0.615  0.00  0.00    +0.046 A 
ATOM      8  C   UNL     1       1.178   2.087  -0.011  0.00  0.00    +0.055 A 
ATOM      9  C   UNL     1       2.232   1.396   0.572  0.00  0.00    +0.064 A 
ATOM     10  C   UNL     1       2.247   0.014   0.550  0.00  0.00    +0.043 A 
ATOM     11  C   UNL     1       1.214  -0.681  -0.052  0.00  0.00    +0.061 A 
ATOM     12  C   UNL     1       0.161   0.006  -0.634  0.00  0.00    +0.061 A 
ATOM     13 CL   UNL     1      -1.134  -0.869  -1.388  0.00  0.00    -0.082 Cl
ATOM     14 CL   UNL     1       1.236  -2.417  -0.078  0.00  0.00    -0.082 Cl
ATOM     15 CL   UNL     1       3.530   2.267   1.327  0.00  0.00    -0.082 Cl
ENDBRANCH   1   8
BRANCH   4  16
ATOM     16  C   UNL     1      -1.294   6.211  -0.268  0.00  0.00    +0.106 C 
BRANCH  16  17
ATOM     17  C   UNL     1      -1.026   7.714  -0.364  0.00  0.00    +0.019 C 
BRANCH  17  18
ATOM     18  C   UNL     1      -2.356   8.464  -0.463  0.00  0.00    +0.002 C 
BRANCH  18  19
ATOM     19  C   UNL     1      -2.087   9.968  -0.559  0.00  0.00    +0.011 C 
BRANCH  19  20
ATOM     20  C   UNL     1      -3.417  10.718  -0.659  0.00  0.00    +0.125 C 
BRANCH  20  21
ATOM     21  C   UNL     1      -3.153  12.198  -0.753  0.00  0.00    +0.356 C 
ATOM     22  O   UNL     1      -2.007  12.615  -0.742  0.00  0.00    -0.246 OA
ATOM     23  O   UNL     1      -4.085  12.980  -0.841  0.00  0.00    -0.246 OA
ENDBRANCH  20  21
ENDBRANCH  19  20
ENDBRANCH  18  19
ENDBRANCH  17  18
ENDBRANCH  16  17
ENDBRANCH   4  16
TORSDOF 7
