REMARK  Name = ZINC07734594
REMARK  7 active torsions:
REMARK  status: ('A' for Active; 'I' for Inactive)
REMARK    1  A    between atoms: C_1  and  C_2
REMARK    2  A    between atoms: C_7  and  C_8
REMARK    3  A    between atoms: C_8  and  N_9
REMARK    4  A    between atoms: C_12  and  C_16
REMARK    5  A    between atoms: C_12  and  C_17
REMARK    6  A    between atoms: C_20  and  O_23
REMARK    7  A    between atoms: O_23  and  C_24
REMARK                            x       y       z     vdW  Elec       q    Type
REMARK                         _______ _______ _______ _____ _____    ______ ____
ROOT
ATOM      1  N   UNL     1      -0.855   0.340   3.155  0.00  0.00    -0.220 N 
ATOM      2  C   UNL     1       0.076   1.088   2.532  0.00  0.00    +0.251 C 
ATOM      3  O   UNL     1       1.212   1.299   2.900  0.00  0.00    -0.272 OA
ATOM      4  C   UNL     1      -0.591   1.613   1.277  0.00  0.00    +0.135 C 
ATOM      5  N   UNL     1      -1.949   1.047   1.344  0.00  0.00    -0.281 N 
ATOM      6  C   UNL     1      -2.007   0.319   2.474  0.00  0.00    +0.310 C 
ATOM      7  O   UNL     1      -2.995  -0.288   2.837  0.00  0.00    -0.252 OA
ATOM      8  C   UNL     1       0.139   1.113   0.029  0.00  0.00    +0.047 C 
ATOM      9  H   UNL     1      -2.663   1.173   0.699  0.00  0.00    +0.152 HD
ENDROOT
BRANCH   4  10
ATOM     10  C   UNL     1      -0.641   3.120   1.292  0.00  0.00    -0.015 A 
ATOM     11  C   UNL     1       0.365   3.836   1.914  0.00  0.00    +0.010 A 
ATOM     12  C   UNL     1       0.325   5.217   1.925  0.00  0.00    +0.046 A 
ATOM     13  C   UNL     1      -0.731   5.884   1.322  0.00  0.00    +0.120 A 
ATOM     14  C   UNL     1      -1.742   5.163   0.704  0.00  0.00    +0.046 A 
ATOM     15  C   UNL     1      -1.694   3.782   0.690  0.00  0.00    +0.010 A 
BRANCH  13  16
ATOM     16  O   UNL     1      -0.776   7.243   1.337  0.00  0.00    -0.495 OA
ATOM     17  C   UNL     1       0.299   7.920   1.992  0.00  0.00    +0.277 C 
ENDBRANCH  13  16
ENDBRANCH   4  10
BRANCH   1  18
ATOM     18  C   UNL     1      -0.634  -0.365   4.420  0.00  0.00    +0.153 C 
BRANCH  18  25
ATOM     19  C   UNL     1      -0.093  -1.213   7.128  0.00  0.00    +0.044 C 
ATOM     20  C   UNL     1      -0.638   0.167   6.865  0.00  0.00    -0.046 A 
ATOM     21  C   UNL     1      -0.876   1.029   7.920  0.00  0.00    +0.003 A 
ATOM     22  C   UNL     1      -1.381   2.293   7.680  0.00  0.00    +0.000 A 
ATOM     23  C   UNL     1      -1.644   2.697   6.384  0.00  0.00    +0.000 A 
ATOM     24  C   UNL     1      -1.403   1.837   5.329  0.00  0.00    +0.005 A 
ATOM     25  C   UNL     1      -0.897   0.573   5.570  0.00  0.00    -0.027 A 
ENDBRANCH  18  25
ENDBRANCH   1  18
TORSDOF 4
