REMARK  Name = ZINC43150695
REMARK  10 active torsions:
REMARK  status: ('A' for Active; 'I' for Inactive)
REMARK    1  A    between atoms: C_1  and  C_2
REMARK    2  A    between atoms: C_4  and  C_29
REMARK    3  A    between atoms: C_5  and  N_9
REMARK    4  A    between atoms: C_6  and  C_8
REMARK    5  A    between atoms: N_12  and  C_13
REMARK    6  A    between atoms: C_13  and  C_14
REMARK    7  A    between atoms: C_14  and  C_16
REMARK    8  A    between atoms: C_14  and  N_24
REMARK    9  A    between atoms: C_21  and  O_22
REMARK   10  A    between atoms: O_22  and  C_23
REMARK                            x       y       z     vdW  Elec       q    Type
REMARK                         _______ _______ _______ _____ _____    ______ ____
ROOT
ATOM      1  C   UNL     1       1.208  -7.575   2.748  0.00  0.00    +0.095 C 
ENDROOT
BRANCH   1   5
ATOM      2  N   UNL     1      -1.134  -5.054   4.042  0.00  0.00    -0.269 N 
ATOM      3  C   UNL     1      -0.044  -5.620   3.488  0.00  0.00    +0.304 C 
ATOM      4  O   UNL     1       0.880  -4.924   3.114  0.00  0.00    -0.253 OA
ATOM      5  N   UNL     1       0.023  -6.959   3.350  0.00  0.00    -0.300 N 
ATOM      6  H   UNL     1      -1.903  -5.600   4.269  0.00  0.00    +0.156 HD
ATOM      7  H   UNL     1      -0.714  -7.515   3.648  0.00  0.00    +0.150 HD
BRANCH   2  12
ATOM      8  C   UNL     1      -1.231   0.529   5.045  0.00  0.00    +0.044 C 
ATOM      9  C   UNL     1      -1.205  -0.954   4.778  0.00  0.00    -0.050 A 
ATOM     10  C   UNL     1      -0.989  -1.420   3.495  0.00  0.00    +0.008 A 
ATOM     11  C   UNL     1      -0.964  -2.779   3.247  0.00  0.00    -0.029 A 
ATOM     12  C   UNL     1      -1.158  -3.676   4.289  0.00  0.00    +0.041 A 
ATOM     13  C   UNL     1      -1.375  -3.205   5.577  0.00  0.00    -0.029 A 
ATOM     14  C   UNL     1      -1.393  -1.845   5.819  0.00  0.00    +0.008 A 
ATOM     15  C   UNL     1      -1.586  -4.175   6.710  0.00  0.00    +0.045 C 
ATOM     16  C   UNL     1      -0.729  -3.287   1.848  0.00  0.00    +0.045 C 
ENDBRANCH   2  12
ENDBRANCH   1   5
BRANCH   1  17
ATOM     17  C   UNL     1       0.978  -9.080   2.594  0.00  0.00    -0.017 C 
BRANCH  17  18
ATOM     18  C   UNL     1       0.868  -9.713   3.957  0.00  0.00    -0.018 A 
ATOM     19  C   UNL     1      -0.375 -10.016   4.480  0.00  0.00    +0.005 A 
ATOM     20  C   UNL     1      -0.477 -10.597   5.730  0.00  0.00    +0.000 A 
ATOM     21  C   UNL     1       0.663 -10.876   6.461  0.00  0.00    +0.004 A 
ATOM     22  C   UNL     1       1.908 -10.576   5.942  0.00  0.00    +0.046 A 
ATOM     23  C   UNL     1       2.013  -9.998   4.685  0.00  0.00    +0.122 A 
BRANCH  23  24
ATOM     24  O   UNL     1       3.237  -9.707   4.170  0.00  0.00    -0.495 OA
ATOM     25  C   UNL     1       4.373 -10.028   4.976  0.00  0.00    +0.277 C 
ENDBRANCH  23  24
ENDBRANCH  17  18
BRANCH  17  26
ATOM     26  N   UNL     1      -0.263  -9.312   1.844  0.00  0.00    +0.385 N 
ATOM     27  C   UNL     1      -0.153  -8.735   0.480  0.00  0.00    -0.078 C 
ATOM     28  C   UNL     1      -1.223  -9.517  -0.324  0.00  0.00    -0.020 C 
ATOM     29  C   UNL     1      -1.122 -10.943   0.264  0.00  0.00    -0.020 C 
ATOM     30  C   UNL     1      -0.481 -10.762   1.652  0.00  0.00    -0.078 C 
ATOM     31  H   UNL     1      -1.046  -8.904   2.333  0.00  0.00    -0.081 HD
ENDBRANCH  17  26
ENDBRANCH   1  17
TORSDOF 6
