REMARK  Name = ZINC44768211
REMARK  9 active torsions:
REMARK  status: ('A' for Active; 'I' for Inactive)
REMARK    1  A    between atoms: C_1  and  C_2
REMARK    2  A    between atoms: C_2  and  C_3
REMARK    3  A    between atoms: C_2  and  N_4
REMARK    4  A    between atoms: N_4  and  C_5
REMARK    5  A    between atoms: C_6  and  C_8
REMARK    6  A    between atoms: C_8  and  C_9
REMARK    7  A    between atoms: C_8  and  C_10
REMARK    8  A    between atoms: C_8  and  C_11
REMARK    9  A    between atoms: C_11  and  N_13
REMARK                            x       y       z     vdW  Elec       q    Type
REMARK                         _______ _______ _______ _____ _____    ______ ____
ROOT
ATOM      1  C   UNL     1       2.539  -1.300  -2.175  0.00  0.00    +0.086 C 
ATOM      2  C   UNL     1       3.161  -0.279  -3.128  0.00  0.00    +0.027 C 
ATOM      3  C   UNL     1       3.642  -2.171  -1.570  0.00  0.00    +0.027 C 
ENDROOT
BRANCH   1   6
ATOM      4  N   UNL     1       0.865   0.336  -1.376  0.00  0.00    -0.301 N 
ATOM      5  C   UNL     1       0.469   0.545  -2.771  0.00  0.00    +0.132 C 
ATOM      6  C   UNL     1       1.808  -0.578  -1.073  0.00  0.00    +0.227 C 
ATOM      7  O   UNL     1       2.067  -0.820   0.087  0.00  0.00    -0.275 OA
BRANCH   4   9
ATOM      8  C   UNL     1       0.497   2.608  -0.549  0.00  0.00    +0.028 C 
ATOM      9  C   UNL     1       0.235   1.120  -0.310  0.00  0.00    +0.070 C 
ATOM     10  C   UNL     1      -1.273   0.861  -0.309  0.00  0.00    +0.028 C 
ENDBRANCH   4   9
ENDBRANCH   1   6
BRANCH   1  11
ATOM     11  C   UNL     1       1.571  -2.171  -2.933  0.00  0.00    +0.061 C 
ATOM     12  S   UNL     1       0.068  -2.338  -2.413  0.00  0.00    -0.040 S 
BRANCH  11  13
ATOM     13  N   UNL     1       1.971  -2.809  -4.051  0.00  0.00    -0.355 N 
ATOM     14  H   UNL     1       2.883  -2.707  -4.367  0.00  0.00    +0.143 HD
ATOM     15  H   UNL     1       1.348  -3.369  -4.540  0.00  0.00    +0.143 HD
ENDBRANCH  11  13
ENDBRANCH   1  11
TORSDOF 4
