REMARK  Name = ZINC16293574
REMARK  5 active torsions:
REMARK  status: ('A' for Active; 'I' for Inactive)
REMARK    1  A    between atoms: C_4  and  N_7
REMARK    2  A    between atoms: C_9  and  C_19
REMARK    3  A    between atoms: C_10  and  C_12
REMARK    4  A    between atoms: C_20  and  C_21
REMARK    5  A    between atoms: C_20  and  C_23
REMARK                            x       y       z     vdW  Elec       q    Type
REMARK                         _______ _______ _______ _____ _____    ______ ____
ROOT
ATOM      1  N   UNL     1       6.256  -0.910   0.147  0.00  0.00    -0.239 N 
ATOM      2  C   UNL     1       4.953  -0.593   0.062  0.00  0.00    +0.123 A 
ATOM      3  C   UNL     1       4.854   0.790   0.058  0.00  0.00    +0.022 A 
ATOM      4  C   UNL     1       6.229   1.301   0.159  0.00  0.00    +0.100 A 
ATOM      5  N   UNL     1       7.023   0.256   0.209  0.00  0.00    -0.166 NA
ENDROOT
BRANCH   4   6
ATOM      6  C   UNL     1       6.640   2.724   0.196  0.00  0.00    +0.003 A 
ATOM      7  C   UNL     1       5.941   3.674  -0.546  0.00  0.00    +0.011 A 
ATOM      8  C   UNL     1       6.326   4.998  -0.505  0.00  0.00    +0.016 A 
ATOM      9  C   UNL     1       7.410   5.383   0.265  0.00  0.00    +0.018 A 
ATOM     10  C   UNL     1       8.111   4.442   1.001  0.00  0.00    +0.016 A 
ATOM     11  C   UNL     1       7.732   3.116   0.970  0.00  0.00    +0.011 A 
ATOM     12 BR   UNL     1       7.936   7.199   0.312  0.00  0.00    -0.050 Br
ENDBRANCH   4   6
BRANCH   1  16
ATOM     13  C   UNL     1       7.777  -4.789   0.233  0.00  0.00    +0.000 A 
ATOM     14  C   UNL     1       8.638  -3.709   0.300  0.00  0.00    +0.002 A 
ATOM     15  C   UNL     1       8.137  -2.422   0.272  0.00  0.00    +0.028 A 
ATOM     16  C   UNL     1       6.767  -2.214   0.176  0.00  0.00    +0.065 A 
ATOM     17  C   UNL     1       5.905  -3.301   0.115  0.00  0.00    +0.028 A 
ATOM     18  C   UNL     1       6.413  -4.585   0.137  0.00  0.00    +0.002 A 
ENDBRANCH   1  16
BRANCH   3  19
ATOM     19  C   UNL     1       3.629   1.582  -0.024  0.00  0.00    +0.034 C 
ATOM     20  C   UNL     1       2.455   0.995  -0.453  0.00  0.00    +0.097 C 
BRANCH  20  21
ATOM     21  C   UNL     1       1.194   1.746  -0.394  0.00  0.00    +0.175 A 
ATOM     22  N   UNL     1       0.053   1.138  -0.825  0.00  0.00    -0.226 NA
ATOM     23  C   UNL     1      -1.153   1.814  -0.791  0.00  0.00    +0.079 A 
ATOM     24  C   UNL     1      -2.335   1.223  -1.216  0.00  0.00    +0.028 A 
ATOM     25  C   UNL     1      -3.515   1.936  -1.158  0.00  0.00    +0.002 A 
ATOM     26  C   UNL     1      -3.533   3.235  -0.671  0.00  0.00    +0.001 A 
ATOM     27  C   UNL     1      -2.370   3.836  -0.238  0.00  0.00    +0.015 A 
ATOM     28  C   UNL     1      -1.172   3.128  -0.292  0.00  0.00    +0.067 A 
ATOM     29  C   UNL     1       0.102   3.721   0.157  0.00  0.00    +0.281 A 
ATOM     30  O   UNL     1       0.142   4.859   0.593  0.00  0.00    -0.265 OA
ATOM     31  N   UNL     1       1.216   2.979   0.074  0.00  0.00    -0.188 NA
ENDBRANCH  20  21
BRANCH  20  32
ATOM     32  C   UNL     1       2.467  -0.345  -0.956  0.00  0.00    +0.103 C 
ATOM     33  N   UNL     1       2.477  -1.409  -1.354  0.00  0.00    -0.191 NA
ENDBRANCH  20  32
ENDBRANCH   3  19
TORSDOF 5
