REMARK  Name = ZINC56455107
REMARK  7 active torsions:
REMARK  status: ('A' for Active; 'I' for Inactive)
REMARK    1  A    between atoms: C_1  and  C_2
REMARK    2  A    between atoms: C_2  and  C_3
REMARK    3  A    between atoms: C_2  and  N_4
REMARK    4  A    between atoms: N_4  and  C_5
REMARK    5  A    between atoms: C_5  and  C_6
REMARK    6  A    between atoms: C_12  and  C_14
REMARK    7  A    between atoms: C_18  and  N_24
REMARK                            x       y       z     vdW  Elec       q    Type
REMARK                         _______ _______ _______ _____ _____    ______ ____
ROOT
ATOM      1  N   UNL     1      -1.860  -0.456   0.417  0.00  0.00    -0.289 N 
ATOM      2  C   UNL     1      -2.962  -0.357   1.186  0.00  0.00    +0.263 C 
ATOM      3  O   UNL     1      -2.874   0.065   2.324  0.00  0.00    -0.268 OA
ENDROOT
BRANCH   2   4
ATOM      4  C   UNL     1      -4.272  -0.758   0.650  0.00  0.00    +0.103 A 
ATOM      5  C   UNL     1      -5.476  -0.330   1.111  0.00  0.00    +0.041 A 
ATOM      6  C   UNL     1      -6.481  -0.948   0.329  0.00  0.00    +0.003 A 
ATOM      7  C   UNL     1      -7.881  -0.889   0.340  0.00  0.00    +0.042 A 
ATOM      8  C   UNL     1      -8.598  -1.618  -0.564  0.00  0.00    +0.127 A 
ATOM      9  C   UNL     1      -7.953  -2.421  -1.496  0.00  0.00    +0.035 A 
ATOM     10  C   UNL     1      -6.579  -2.496  -1.527  0.00  0.00    +0.028 A 
ATOM     11  C   UNL     1      -5.825  -1.760  -0.616  0.00  0.00    +0.047 A 
ATOM     12  N   UNL     1      -4.473  -1.625  -0.406  0.00  0.00    -0.351 N 
ATOM     13  H   UNL     1      -3.776  -2.068  -0.914  0.00  0.00    +0.166 HD
BRANCH   8  14
ATOM     14  N   UNL     1     -10.077  -1.554  -0.550  0.00  0.00    +0.056 N 
ATOM     15  O   UNL     1     -10.644  -0.857   0.260  0.00  0.00    -0.126 OA
ATOM     16  O   UNL     1     -10.717  -2.197  -1.348  0.00  0.00    -0.126 OA
ENDBRANCH   8  14
ENDBRANCH   2   4
BRANCH   1  18
ATOM     17  C   UNL     1      -0.450   1.265   1.431  0.00  0.00    +0.028 C 
ATOM     18  C   UNL     1      -0.538  -0.198   0.994  0.00  0.00    +0.071 C 
ATOM     19  C   UNL     1      -0.326  -1.106   2.207  0.00  0.00    +0.028 C 
ENDBRANCH   1  18
BRANCH   1  20
ATOM     20  C   UNL     1      -1.984  -0.823  -0.996  0.00  0.00    +0.143 C 
BRANCH  20  21
ATOM     21  C   UNL     1      -1.347  -2.169  -1.223  0.00  0.00    -0.030 A 
ATOM     22  C   UNL     1      -0.192  -2.269  -1.977  0.00  0.00    +0.005 A 
ATOM     23  C   UNL     1       0.392  -3.504  -2.186  0.00  0.00    +0.000 A 
ATOM     24  C   UNL     1      -0.178  -4.640  -1.640  0.00  0.00    +0.000 A 
ATOM     25  C   UNL     1      -1.332  -4.540  -0.886  0.00  0.00    +0.000 A 
ATOM     26  C   UNL     1      -1.914  -3.304  -0.674  0.00  0.00    +0.005 A 
ENDBRANCH  20  21
ENDBRANCH   1  20
TORSDOF 5
