REMARK  Name = ZINC63351588
REMARK  3 active torsions:
REMARK  status: ('A' for Active; 'I' for Inactive)
REMARK    1  A    between atoms: C_8  and  C_16
REMARK    2  A    between atoms: C_18  and  O_33
REMARK    3  A    between atoms: N_20  and  C_26
REMARK                            x       y       z     vdW  Elec       q    Type
REMARK                         _______ _______ _______ _____ _____    ______ ____
ROOT
ATOM      1  C   UNL     1       5.144  -3.164  -0.986  0.00  0.00    +0.144 C 
ATOM      2  C   UNL     1       5.636  -4.068  -2.124  0.00  0.00    +0.224 C 
ATOM      3  N   UNL     1       5.135  -5.427  -1.861  0.00  0.00    -0.227 N 
ATOM      4  C   UNL     1       5.346  -5.957  -0.621  0.00  0.00    +0.335 C 
ATOM      5  O   UNL     1       5.404  -7.293  -0.464  0.00  0.00    -0.250 OA
ATOM      6  N   UNL     1       5.494  -5.164   0.424  0.00  0.00    -0.127 NA
ATOM      7  C   UNL     1       5.426  -3.839   0.332  0.00  0.00    +0.249 C 
ATOM      8  O   UNL     1       5.596  -3.160   1.325  0.00  0.00    -0.273 OA
ENDROOT
BRANCH   1  15
ATOM      9  C   UNL     1       0.019   1.479  -0.609  0.00  0.00    +0.001 A 
ATOM     10  C   UNL     1       1.204   2.211  -0.767  0.00  0.00    +0.002 A 
ATOM     11  C   UNL     1       2.425   1.638  -0.720  0.00  0.00    +0.026 A 
ATOM     12  C   UNL     1       2.558   0.240  -0.505  0.00  0.00    +0.043 A 
ATOM     13  N   UNL     1       3.615  -0.539  -0.446  0.00  0.00    -0.376 N 
ATOM     14  C   UNL     1       3.177  -1.889  -0.108  0.00  0.00    +0.124 C 
ATOM     15  C   UNL     1       3.638  -2.931  -1.131  0.00  0.00    +0.096 C 
ATOM     16  N   UNL     1       2.915  -4.186  -0.872  0.00  0.00    -0.310 NA
ATOM     17  C   UNL     1       1.477  -4.090  -1.139  0.00  0.00    +0.085 C 
ATOM     18  C   UNL     1       0.821  -3.104  -0.154  0.00  0.00    +0.048 C 
ATOM     19  C   UNL     1       1.658  -1.844  -0.168  0.00  0.00    -0.036 C 
ATOM     20  C   UNL     1       1.318  -0.561  -0.344  0.00  0.00    -0.001 A 
ATOM     21  C   UNL     1       0.031   0.143  -0.404  0.00  0.00    +0.010 A 
ATOM     22  H   UNL     1       3.327  -4.953  -1.381  0.00  0.00    +0.122 HD
ATOM     23  H   UNL     1       4.532  -0.262  -0.600  0.00  0.00    +0.160 HD
ENDBRANCH   1  15
BRANCH   3  24
ATOM     24  C   UNL     1       4.462  -6.152  -2.851  0.00  0.00    +0.040 A 
ATOM     25  C   UNL     1       3.349  -5.608  -3.477  0.00  0.00    +0.025 A 
ATOM     26  C   UNL     1       2.687  -6.326  -4.454  0.00  0.00    +0.022 A 
ATOM     27  C   UNL     1       3.133  -7.587  -4.809  0.00  0.00    +0.041 A 
ATOM     28  C   UNL     1       4.242  -8.132  -4.187  0.00  0.00    +0.022 A 
ATOM     29  C   UNL     1       4.911  -7.416  -3.214  0.00  0.00    +0.025 A 
ATOM     30 CL   UNL     1       2.299  -8.486  -6.038  0.00  0.00    -0.084 Cl
ENDBRANCH   3  24
BRANCH   2  31
ATOM     31  O   UNL     1       5.128  -3.595  -3.373  0.00  0.00    -0.373 OA
ATOM     32  H   UNL     1       5.345  -4.161  -4.126  0.00  0.00    +0.212 HD
ENDBRANCH   2  31
TORSDOF 3
