REMARK  Name = ZINC44784652
REMARK  9 active torsions:
REMARK  status: ('A' for Active; 'I' for Inactive)
REMARK    1  A    between atoms: C_1  and  C_2
REMARK    2  A    between atoms: C_2  and  C_3
REMARK    3  A    between atoms: C_3  and  C_4
REMARK    4  A    between atoms: C_3  and  C_6
REMARK    5  A    between atoms: C_3  and  C_10
REMARK    6  A    between atoms: C_4  and  C_5
REMARK    7  A    between atoms: N_7  and  O_8
REMARK    8  A    between atoms: C_13  and  C_21
REMARK    9  A    between atoms: C_18  and  C_20
REMARK                            x       y       z     vdW  Elec       q    Type
REMARK                         _______ _______ _______ _____ _____    ______ ____
ROOT
ATOM      1  C   UNL     1       0.754  -0.483   1.277  0.00  0.00    +0.105 C 
ENDROOT
BRANCH   1   2
ATOM      2  C   UNL     1       0.066   0.087   2.491  0.00  0.00    +0.229 C 
ATOM      3  O   UNL     1       0.700   0.731   3.300  0.00  0.00    -0.275 OA
ATOM      4  N   UNL     1      -1.252  -0.119   2.677  0.00  0.00    -0.295 N 
ATOM      5  C   UNL     1      -2.011  -0.984   1.764  0.00  0.00    +0.073 C 
ATOM      6  C   UNL     1      -2.742  -2.050   2.587  0.00  0.00    +0.022 C 
ATOM      7  C   UNL     1      -3.595  -1.365   3.658  0.00  0.00    +0.004 C 
ATOM      8  C   UNL     1      -2.690  -0.564   4.598  0.00  0.00    +0.022 C 
ATOM      9  C   UNL     1      -1.958   0.513   3.801  0.00  0.00    +0.073 C 
ATOM     10  C   UNL     1      -0.948   1.221   4.707  0.00  0.00    +0.028 C 
ATOM     11  C   UNL     1      -3.028  -0.144   0.988  0.00  0.00    +0.028 C 
ENDBRANCH   1   2
BRANCH   1  12
ATOM     12  C   UNL     1       2.171   0.026   1.217  0.00  0.00    +0.147 C 
ATOM     13  N   UNL     1       2.543   0.785   0.240  0.00  0.00    -0.076 NA
ATOM     14  N   UNL     1       3.069  -0.317   2.203  0.00  0.00    -0.343 N 
ATOM     15  H   UNL     1       2.811  -0.944   2.897  0.00  0.00    +0.144 HD
ATOM     16  H   UNL     1       3.959   0.069   2.204  0.00  0.00    +0.144 HD
BRANCH  13  17
ATOM     17  O   UNL     1       3.875   1.264   0.183  0.00  0.00    -0.408 OA
ATOM     18  H   UNL     1       4.059   1.824  -0.583  0.00  0.00    +0.328 HD
ENDBRANCH  13  17
ENDBRANCH   1  12
BRANCH   1  20
ATOM     19  C   UNL     1      -0.148   1.470   0.007  0.00  0.00    +0.005 C 
ATOM     20  C   UNL     1       0.003  -0.052   0.016  0.00  0.00    +0.020 C 
ENDBRANCH   1  20
BRANCH   1  21
ATOM     21  C   UNL     1       0.765  -2.011   1.368  0.00  0.00    +0.020 C 
ATOM     22  C   UNL     1       1.563  -2.585   0.196  0.00  0.00    +0.005 C 
ENDBRANCH   1  21
TORSDOF 5
