REMARK  Name = ZINC45109908
REMARK  6 active torsions:
REMARK  status: ('A' for Active; 'I' for Inactive)
REMARK    1  A    between atoms: C_1  and  C_2
REMARK    2  A    between atoms: C_5  and  C_14
REMARK    3  A    between atoms: N_16  and  C_17
REMARK    4  A    between atoms: C_17  and  C_18
REMARK    5  A    between atoms: C_17  and  C_19
REMARK    6  A    between atoms: C_17  and  C_20
REMARK                            x       y       z     vdW  Elec       q    Type
REMARK                         _______ _______ _______ _____ _____    ______ ____
ROOT
ATOM      1  C   UNL     1      -0.094   1.692   0.096  0.00  0.00    +0.028 C 
ATOM      2  C   UNL     1      -0.117   0.186  -0.175  0.00  0.00    +0.068 C 
ATOM      3  C   UNL     1      -1.559  -0.333  -0.107  0.00  0.00    +0.039 C 
ATOM      4  C   UNL     1      -2.150   0.028   1.256  0.00  0.00    +0.108 C 
ATOM      5  C   UNL     1      -1.231  -0.419   2.363  0.00  0.00    -0.015 A 
ATOM      6  C   UNL     1      -1.748  -0.584   3.637  0.00  0.00    +0.006 A 
ATOM      7  C   UNL     1      -0.931  -0.989   4.674  0.00  0.00    +0.000 A 
ATOM      8  C   UNL     1       0.412  -1.233   4.446  0.00  0.00    +0.002 A 
ATOM      9  C   UNL     1       0.935  -1.072   3.179  0.00  0.00    +0.023 A 
ATOM     10  C   UNL     1       0.113  -0.665   2.134  0.00  0.00    +0.031 A 
ATOM     11  N   UNL     1       0.663  -0.516   0.854  0.00  0.00    -0.341 N 
ATOM     12  H   UNL     1       1.542  -0.870   0.650  0.00  0.00    +0.146 HD
ENDROOT
BRANCH   4  13
ATOM     13  C   UNL     1      -3.484  -0.654   1.417  0.00  0.00    +0.221 C 
ATOM     14  O   UNL     1      -3.655  -1.766   0.964  0.00  0.00    -0.275 OA
ATOM     15  N   UNL     1      -4.487  -0.028   2.064  0.00  0.00    -0.301 N 
ATOM     16  H   UNL     1      -4.374   0.888   2.363  0.00  0.00    +0.150 HD
BRANCH  15  17
ATOM     17  C   UNL     1      -5.748  -0.730   2.315  0.00  0.00    +0.105 C 
ATOM     18  C   UNL     1      -6.372  -1.150   0.982  0.00  0.00    +0.041 C 
ATOM     19  C   UNL     1      -5.479  -1.973   3.165  0.00  0.00    +0.041 C 
BRANCH  17  20
ATOM     20  C   UNL     1      -6.695   0.184   3.048  0.00  0.00    +0.233 C 
ATOM     21  O   UNL     1      -7.886   0.129   2.825  0.00  0.00    -0.274 OA
ATOM     22  N   UNL     1      -6.219   1.064   3.951  0.00  0.00    -0.328 N 
ATOM     23  H   UNL     1      -5.267   1.108   4.129  0.00  0.00    +0.145 HD
ATOM     24  H   UNL     1      -6.829   1.653   4.423  0.00  0.00    +0.145 HD
ENDBRANCH  17  20
ENDBRANCH  15  17
ENDBRANCH   4  13
TORSDOF 3
