REMARK  Name = ZINC19534140
REMARK  12 active torsions:
REMARK  status: ('A' for Active; 'I' for Inactive)
REMARK    1  A    between atoms: C_1  and  C_2
REMARK    2  A    between atoms: C_2  and  N_3
REMARK    3  A    between atoms: N_3  and  C_4
REMARK    4  A    between atoms: C_5  and  N_20
REMARK    5  A    between atoms: N_6  and  C_13
REMARK    6  A    between atoms: C_13  and  C_14
REMARK    7  A    between atoms: C_21  and  C_23
REMARK    8  A    between atoms: C_23  and  N_24
REMARK    9  A    between atoms: N_24  and  C_25
REMARK   10  A    between atoms: N_24  and  C_31
REMARK   11  A    between atoms: C_25  and  C_26
REMARK   12  A    between atoms: C_31  and  C_32
REMARK                            x       y       z     vdW  Elec       q    Type
REMARK                         _______ _______ _______ _____ _____    ______ ____
ROOT
ATOM      1  N   UNL     1      -0.031  -0.698  -2.686  0.00  0.00    -0.266 N 
ATOM      2  C   UNL     1       0.881   0.235  -2.343  0.00  0.00    +0.203 C 
ATOM      3  O   UNL     1       2.005  -0.101  -2.033  0.00  0.00    -0.277 OA
ENDROOT
BRANCH   1   4
ATOM      4  C   UNL     1      -1.307  -0.303  -3.141  0.00  0.00    +0.140 A 
ATOM      5  C   UNL     1      -1.685  -0.525  -4.449  0.00  0.00    +0.128 A 
ATOM      6  N   UNL     1      -2.938  -0.134  -4.862  0.00  0.00    -0.276 N 
ATOM      7  C   UNL     1      -3.780   0.469  -4.003  0.00  0.00    +0.331 A 
ATOM      8  O   UNL     1      -4.881   0.812  -4.388  0.00  0.00    -0.246 OA
ATOM      9  N   UNL     1      -3.427   0.698  -2.726  0.00  0.00    -0.273 N 
ATOM     10  H   UNL     1      -4.131   1.191  -2.040  0.00  0.00    +0.173 HD
ATOM     11  C   UNL     1      -2.214   0.329  -2.270  0.00  0.00    +0.277 A 
ATOM     12  O   UNL     1      -1.903   0.542  -1.110  0.00  0.00    -0.266 OA
BRANCH   5  13
ATOM     13  N   UNL     1      -0.823  -1.135  -5.329  0.00  0.00    -0.343 N 
ATOM     14  H   UNL     1      -1.131  -1.309  -6.370  0.00  0.00    +0.144 HD
ATOM     15  H   UNL     1       0.176  -1.449  -4.991  0.00  0.00    +0.144 HD
ENDBRANCH   5  13
BRANCH   6  16
ATOM     16  C   UNL     1      -3.355  -0.369  -6.246  0.00  0.00    +0.163 C 
BRANCH  16  17
ATOM     17  C   UNL     1      -2.922   0.791  -7.105  0.00  0.00    -0.028 A 
ATOM     18  C   UNL     1      -3.712   1.923  -7.186  0.00  0.00    +0.005 A 
ATOM     19  C   UNL     1      -3.312   2.989  -7.970  0.00  0.00    +0.000 A 
ATOM     20  C   UNL     1      -2.129   2.919  -8.681  0.00  0.00    +0.000 A 
ATOM     21  C   UNL     1      -1.343   1.785  -8.605  0.00  0.00    +0.000 A 
ATOM     22  C   UNL     1      -1.739   0.721  -7.817  0.00  0.00    +0.005 A 
ENDBRANCH  16  17
ENDBRANCH   6  16
ENDBRANCH   1   4
BRANCH   1  24
ATOM     23  C   UNL     1      -0.120  -2.649  -1.214  0.00  0.00    +0.025 C 
ATOM     24  C   UNL     1       0.303  -2.121  -2.586  0.00  0.00    +0.110 C 
ENDBRANCH   1  24
BRANCH   2  25
ATOM     25  C   UNL     1       0.504   1.694  -2.345  0.00  0.00    +0.020 C 
BRANCH  25  26
ATOM     26  N   UNL     1       1.702   2.509  -2.100  0.00  0.00    +0.393 N 
ATOM     27  H   UNL     1       2.334   1.972  -1.378  0.00  0.00    -0.080 HD
BRANCH  26  28
ATOM     28  C   UNL     1       1.344   3.806  -1.509  0.00  0.00    -0.002 C 
BRANCH  28  29
ATOM     29  C   UNL     1       2.594   4.509  -1.047  0.00  0.00    +0.089 A 
ATOM     30  C   UNL     1       3.342   5.349  -1.785  0.00  0.00    +0.042 A 
ATOM     31  C   UNL     1       4.411   5.775  -0.963  0.00  0.00    +0.041 A 
ATOM     32  C   UNL     1       4.252   5.170   0.228  0.00  0.00    +0.195 A 
ATOM     33  O   UNL     1       3.147   4.409   0.173  0.00  0.00    -0.470 OA
ENDBRANCH  28  29
ENDBRANCH  26  28
BRANCH  26  34
ATOM     34  C   UNL     1       2.478   2.689  -3.334  0.00  0.00    -0.034 C 
BRANCH  34  35
ATOM     35  C   UNL     1       3.157   1.393  -3.694  0.00  0.00    -0.027 A 
ATOM     36  C   UNL     1       2.749   0.425  -4.550  0.00  0.00    +0.009 A 
ATOM     37  C   UNL     1       3.541  -0.695  -4.723  0.00  0.00    +0.008 A 
ATOM     38  C   UNL     1       4.707  -0.786  -4.039  0.00  0.00    +0.045 A 
ATOM     39  S   UNL     1       4.708   0.735  -3.104  0.00  0.00    -0.103 S 
ENDBRANCH  34  35
ENDBRANCH  26  34
ENDBRANCH  25  26
ENDBRANCH   2  25
TORSDOF 11
