REMARK  Name = ZINC00729460
REMARK  5 active torsions:
REMARK  status: ('A' for Active; 'I' for Inactive)
REMARK    1  A    between atoms: C_1  and  O_2
REMARK    2  A    between atoms: O_2  and  C_3
REMARK    3  A    between atoms: C_7  and  C_10
REMARK    4  A    between atoms: C_8  and  O_9
REMARK    5  A    between atoms: C_15  and  C_20
REMARK                            x       y       z     vdW  Elec       q    Type
REMARK                         _______ _______ _______ _____ _____    ______ ____
ROOT
ATOM      1  C   UNL     1      -1.332   2.117   0.020  0.00  0.00    +0.140 C 
ATOM      2  C   UNL     1      -1.876   2.145  -1.389  0.00  0.00    +0.037 C 
ATOM      3  C   UNL     1      -1.964   3.227  -2.179  0.00  0.00    +0.017 C 
ATOM      4  C   UNL     1      -2.539   3.113  -3.581  0.00  0.00    +0.060 C 
ATOM      5  C   UNL     1      -2.233   1.734  -4.162  0.00  0.00    +0.039 C 
ATOM      6  C   UNL     1      -2.864   0.687  -3.237  0.00  0.00    +0.088 C 
ATOM      7  C   UNL     1      -2.314   0.882  -1.855  0.00  0.00    +0.163 C 
ATOM      8  O   UNL     1      -2.243  -0.076  -1.111  0.00  0.00    -0.292 OA
ATOM      9  N   UNL     1      -1.585   4.482  -1.824  0.00  0.00    -0.316 N 
ATOM     10  C   UNL     1      -0.384   4.806  -1.201  0.00  0.00    +0.052 A 
ATOM     11  C   UNL     1       0.563   5.622  -1.794  0.00  0.00    +0.025 A 
ATOM     12  C   UNL     1       1.698   5.972  -1.082  0.00  0.00    +0.002 A 
ATOM     13  C   UNL     1       1.882   5.506   0.207  0.00  0.00    +0.002 A 
ATOM     14  C   UNL     1       0.947   4.670   0.792  0.00  0.00    +0.025 A 
ATOM     15  C   UNL     1      -0.182   4.303   0.075  0.00  0.00    +0.049 A 
ATOM     16  N   UNL     1      -1.122   3.424   0.606  0.00  0.00    -0.331 N 
ATOM     17  H   UNL     1      -2.198   5.207  -2.020  0.00  0.00    +0.152 HD
ATOM     18  H   UNL     1      -1.644   3.691   1.379  0.00  0.00    +0.147 HD
ENDROOT
BRANCH   1  23
ATOM     19  C   UNL     1       1.682   0.132   1.163  0.00  0.00    +0.162 A 
ATOM     20  C   UNL     1       2.397   0.020  -0.018  0.00  0.00    +0.049 A 
ATOM     21  C   UNL     1       1.906   0.587  -1.180  0.00  0.00    +0.004 A 
ATOM     22  C   UNL     1       0.702   1.266  -1.166  0.00  0.00    +0.009 A 
ATOM     23  C   UNL     1      -0.017   1.381   0.010  0.00  0.00    +0.022 A 
ATOM     24  C   UNL     1       0.470   0.816   1.177  0.00  0.00    +0.164 A 
BRANCH  19  26
ATOM     25  C   UNL     1       3.413  -1.112   2.217  0.00  0.00    +0.277 C 
ATOM     26  O   UNL     1       2.163  -0.425   2.307  0.00  0.00    -0.491 OA
ENDBRANCH  19  26
BRANCH  24  27
ATOM     27  O   UNL     1      -0.236   0.928   2.334  0.00  0.00    -0.503 OA
ATOM     28  H   UNL     1      -0.810   0.173   2.520  0.00  0.00    +0.292 HD
ENDBRANCH  24  27
ENDBRANCH   1  23
BRANCH   5  29
ATOM     29  C   UNL     1      -2.826   1.619  -5.543  0.00  0.00    -0.006 A 
ATOM     30  C   UNL     1      -2.202   1.386  -6.723  0.00  0.00    +0.011 A 
ATOM     31  C   UNL     1      -2.958   1.319  -7.879  0.00  0.00    +0.008 A 
ATOM     32  C   UNL     1      -4.300   1.488  -7.798  0.00  0.00    +0.045 A 
ATOM     33  S   UNL     1      -4.534   1.745  -6.047  0.00  0.00    -0.101 S 
ENDBRANCH   5  29
TORSDOF 4
