REMARK  Name = ZINC12309333
REMARK  10 active torsions:
REMARK  status: ('A' for Active; 'I' for Inactive)
REMARK    1  A    between atoms: C_1  and  C_2
REMARK    2  A    between atoms: C_5  and  C_30
REMARK    3  A    between atoms: C_6  and  N_8
REMARK    4  A    between atoms: C_9  and  C_11
REMARK    5  A    between atoms: C_11  and  O_12
REMARK    6  A    between atoms: O_12  and  N_13
REMARK    7  A    between atoms: N_13  and  C_14
REMARK    8  A    between atoms: C_15  and  C_29
REMARK    9  A    between atoms: N_23  and  C_28
REMARK   10  A    between atoms: N_26  and  C_27
REMARK                            x       y       z     vdW  Elec       q    Type
REMARK                         _______ _______ _______ _____ _____    ______ ____
ROOT
ATOM      1  N   UNL     1      -1.150   2.146  -0.006  0.00  0.00    -0.264 N 
ATOM      2  H   UNL     1      -2.111   1.614  -0.060  0.00  0.00    +0.194 HD
ENDROOT
BRANCH   1   3
ATOM      3  C   UNL     1      -0.023   1.472  -0.039  0.00  0.00    +0.081 A 
ATOM      4  C   UNL     1       0.040   0.048   0.349  0.00  0.00    -0.008 A 
ATOM      5  C   UNL     1       1.246  -0.514   0.530  0.00  0.00    +0.089 A 
ATOM      6  N   UNL     1       2.406   0.197   0.370  0.00  0.00    -0.347 N 
ATOM      7  H   UNL     1       3.357  -0.211   0.743  0.00  0.00    +0.167 HD
ATOM      8  C   UNL     1       2.431   1.409  -0.244  0.00  0.00    +0.129 A 
ATOM      9  C   UNL     1       1.242   2.096  -0.471  0.00  0.00    +0.106 A 
ATOM     10  C   UNL     1       1.277   3.360  -1.104  0.00  0.00    +0.268 A 
ATOM     11  O   UNL     1       0.249   3.980  -1.309  0.00  0.00    -0.267 OA
ATOM     12  N   UNL     1       2.472   3.867  -1.475  0.00  0.00    -0.263 N 
ATOM     13  C   UNL     1       3.608   3.185  -1.251  0.00  0.00    +0.333 A 
ATOM     14  O   UNL     1       4.667   3.670  -1.601  0.00  0.00    -0.246 OA
ATOM     15  N   UNL     1       3.610   1.980  -0.650  0.00  0.00    -0.282 N 
ATOM     16  C   UNL     1       4.875   1.277  -0.429  0.00  0.00    +0.155 C 
ATOM     17  C   UNL     1       2.531   5.176  -2.131  0.00  0.00    +0.157 C 
ATOM     18  C   UNL     1      -1.220  -0.755   0.539  0.00  0.00    +0.047 C 
ENDBRANCH   1   3
BRANCH   1  19
ATOM     19  O   UNL     1      -1.127   3.558   0.098  0.00  0.00    -0.265 OA
BRANCH  19  20
ATOM     20  C   UNL     1      -2.423   4.160   0.122  0.00  0.00    +0.288 C 
BRANCH  20  22
ATOM     21  N   UNL     1      -3.378   6.437   0.275  0.00  0.00    -0.283 N 
ATOM     22  C   UNL     1      -2.280   5.656   0.234  0.00  0.00    +0.246 C 
ATOM     23  O   UNL     1      -1.177   6.158   0.288  0.00  0.00    -0.273 OA
ATOM     24  H   UNL     1      -4.378   5.979   0.299  0.00  0.00    +0.155 HD
BRANCH  21  30
ATOM     25  C   UNL     1      -0.709  10.426   1.342  0.00  0.00    +0.044 C 
ATOM     26  C   UNL     1      -1.963   9.790   0.797  0.00  0.00    -0.049 A 
ATOM     27  C   UNL     1      -2.984  10.584   0.309  0.00  0.00    +0.004 A 
ATOM     28  C   UNL     1      -4.136  10.005  -0.191  0.00  0.00    +0.005 A 
ATOM     29  C   UNL     1      -4.267   8.630  -0.208  0.00  0.00    -0.029 A 
ATOM     30  C   UNL     1      -3.246   7.830   0.286  0.00  0.00    +0.037 A 
ATOM     31  C   UNL     1      -2.090   8.415   0.788  0.00  0.00    +0.027 A 
ATOM     32  C   UNL     1      -5.520   7.999  -0.759  0.00  0.00    +0.045 C 
ENDBRANCH  21  30
ENDBRANCH  20  22
ENDBRANCH  19  20
ENDBRANCH   1  19
TORSDOF 5
