REMARK  Name = ZINC16331173
REMARK  8 active torsions:
REMARK  status: ('A' for Active; 'I' for Inactive)
REMARK    1  A    between atoms: C_1  and  C_2
REMARK    2  A    between atoms: C_7  and  C_27
REMARK    3  A    between atoms: C_8  and  C_9
REMARK    4  A    between atoms: C_9  and  O_11
REMARK    5  A    between atoms: O_11  and  C_12
REMARK    6  A    between atoms: C_12  and  C_14
REMARK    7  A    between atoms: C_12  and  C_15
REMARK    8  A    between atoms: C_15  and  C_17
REMARK                            x       y       z     vdW  Elec       q    Type
REMARK                         _______ _______ _______ _____ _____    ______ ____
ROOT
ATOM      1  C   UNL     1       1.119   1.019   4.361  0.00  0.00    +0.244 C 
ATOM      2  C   UNL     1       1.069   2.528   4.111  0.00  0.00    +0.061 C 
ENDROOT
BRANCH   1   3
ATOM      3  C   UNL     1       2.334   0.687   5.188  0.00  0.00    +0.205 C 
ATOM      4  O   UNL     1       3.333   0.252   4.652  0.00  0.00    -0.288 OA
BRANCH   3   5
ATOM      5  C   UNL     1       2.311   0.883   6.591  0.00  0.00    +0.046 A 
ATOM      6  C   UNL     1       1.261   1.365   7.343  0.00  0.00    +0.095 A 
ATOM      7  N   UNL     1       1.616   1.409   8.641  0.00  0.00    -0.360 N 
ATOM      8  H   UNL     1       1.041   1.715   9.360  0.00  0.00    +0.165 HD
ATOM      9  C   UNL     1       2.910   0.961   8.809  0.00  0.00    +0.047 A 
ATOM     10  C   UNL     1       3.404   0.605   7.544  0.00  0.00    +0.010 A 
ATOM     11  C   UNL     1       4.698   0.109   7.412  0.00  0.00    +0.011 A 
ATOM     12  C   UNL     1       5.490  -0.035   8.531  0.00  0.00    +0.001 A 
ATOM     13  C   UNL     1       5.003   0.312   9.782  0.00  0.00    +0.002 A 
ATOM     14  C   UNL     1       3.727   0.812   9.925  0.00  0.00    +0.026 A 
ENDBRANCH   3   5
ENDBRANCH   1   3
BRANCH   1  15
ATOM     15  O   UNL     1       1.193   0.320   3.090  0.00  0.00    -0.450 OA
BRANCH  15  16
ATOM     16  C   UNL     1       0.025  -0.021   2.511  0.00  0.00    +0.343 C 
ATOM     17  O   UNL     1      -1.026   0.258   3.053  0.00  0.00    -0.245 OA
BRANCH  16  25
ATOM     18  C   UNL     1      -0.018   1.503   0.010  0.00  0.00    +0.045 C 
ATOM     19  C   UNL     1       0.002  -0.004   0.002  0.00  0.00    -0.026 A 
ATOM     20  C   UNL     1      -0.005  -0.689  -1.172  0.00  0.00    +0.096 A 
ATOM     21  C   UNL     1       0.020  -2.097  -1.150  0.00  0.00    +0.337 A 
ATOM     22  O   UNL     1       0.019  -2.719  -2.198  0.00  0.00    -0.245 OA
ATOM     23  O   UNL     1       0.040  -2.761   0.019  0.00  0.00    -0.427 OA
ATOM     24  C   UNL     1       0.042  -2.108   1.186  0.00  0.00    +0.120 A 
ATOM     25  C   UNL     1       0.024  -0.732   1.220  0.00  0.00    +0.100 A 
ATOM     26  C   UNL     1       0.065  -2.887   2.476  0.00  0.00    +0.087 C 
ENDBRANCH  16  25
ENDBRANCH  15  16
ENDBRANCH   1  15
TORSDOF 5
