REMARK  Name = ZINC39344536
REMARK  13 active torsions:
REMARK  status: ('A' for Active; 'I' for Inactive)
REMARK    1  A    between atoms: C_1  and  C_2
REMARK    2  A    between atoms: C_2  and  C_3
REMARK    3  A    between atoms: C_2  and  C_4
REMARK    4  A    between atoms: C_2  and  N_5
REMARK    5  A    between atoms: N_5  and  S_6
REMARK    6  A    between atoms: S_6  and  C_9
REMARK    7  A    between atoms: C_11  and  C_24
REMARK    8  A    between atoms: C_13  and  N_15
REMARK    9  A    between atoms: N_15  and  C_16
REMARK   10  A    between atoms: C_16  and  C_17
REMARK   11  A    between atoms: N_26  and  C_27
REMARK   12  A    between atoms: C_27  and  C_28
REMARK   13  A    between atoms: N_33  and  C_35
REMARK                            x       y       z     vdW  Elec       q    Type
REMARK                         _______ _______ _______ _____ _____    ______ ____
ROOT
ATOM      1  C   UNL     1       2.943  -0.207  -0.015  0.00  0.00    +0.108 A 
ATOM      2  C   UNL     1       2.886   0.505   1.166  0.00  0.00    +0.041 A 
ATOM      3  C   UNL     1       3.685   0.129   2.247  0.00  0.00    +0.040 A 
ATOM      4  C   UNL     1       4.540  -0.967   2.129  0.00  0.00    +0.036 A 
ATOM      5  C   UNL     1       4.590  -1.676   0.939  0.00  0.00    +0.030 A 
ATOM      6  C   UNL     1       3.786  -1.297  -0.130  0.00  0.00    +0.051 A 
ENDROOT
BRANCH   3   7
ATOM      7  C   UNL     1       3.626   0.891   3.513  0.00  0.00    +0.244 C 
ATOM      8  O   UNL     1       2.880   1.846   3.614  0.00  0.00    -0.270 OA
ATOM      9  N   UNL     1       4.399   0.527   4.556  0.00  0.00    -0.311 N 
ATOM     10  H   UNL     1       4.993  -0.235   4.476  0.00  0.00    +0.149 HD
BRANCH   9  11
ATOM     11  C   UNL     1       4.340   1.282   5.810  0.00  0.00    +0.106 C 
BRANCH  11  12
ATOM     12  C   UNL     1       5.308   0.665   6.822  0.00  0.00    -0.011 C 
ATOM     13  C   UNL     1       6.745   0.829   6.320  0.00  0.00    +0.001 C 
ATOM     14  C   UNL     1       7.710   0.280   7.375  0.00  0.00    -0.018 C 
ATOM     15  C   UNL     1       7.473   1.004   8.702  0.00  0.00    -0.079 C 
ATOM     16  N   UNL     1       6.089   0.788   9.141  0.00  0.00    +0.378 N 
ATOM     17  C   UNL     1       5.159   1.375   8.169  0.00  0.00    -0.074 C 
ATOM     18  C   UNL     1       5.888   1.420  10.452  0.00  0.00    -0.096 C 
ATOM     19  H   UNL     1       5.912  -0.203   9.217  0.00  0.00    -0.082 HD
ENDBRANCH  11  12
ENDBRANCH   9  11
ENDBRANCH   3   7
BRANCH   1  20
ATOM     20  S   UNL     1       1.933   0.269  -1.377  0.00  0.00    +0.059 S 
ATOM     21  O   UNL     1       2.439  -0.414  -2.516  0.00  0.00    -0.153 OA
ATOM     22  O   UNL     1       1.822   1.685  -1.325  0.00  0.00    -0.153 OA
BRANCH  20  23
ATOM     23  N   UNL     1       0.417  -0.335  -1.097  0.00  0.00    -0.185 NA
ATOM     24  H   UNL     1      -0.319   0.269  -0.911  0.00  0.00    +0.149 HD
BRANCH  23  26
ATOM     25  C   UNL     1       1.203  -2.481  -0.226  0.00  0.00    +0.029 C 
ATOM     26  C   UNL     1       0.187  -1.781  -1.131  0.00  0.00    +0.032 C 
ATOM     27  C   UNL     1       0.346  -2.290  -2.565  0.00  0.00    +0.029 C 
ATOM     28  C   UNL     1      -1.230  -2.084  -0.638  0.00  0.00    +0.029 C 
ENDBRANCH  23  26
ENDBRANCH  20  23
ENDBRANCH   1  20
BRANCH   5  29
ATOM     29  N   UNL     1       5.445  -2.774   0.816  0.00  0.00    -0.343 N 
ATOM     30  H   UNL     1       5.480  -3.270  -0.017  0.00  0.00    +0.146 HD
BRANCH  29  31
ATOM     31  C   UNL     1       6.288  -3.176   1.944  0.00  0.00    +0.105 C 
BRANCH  31  32
ATOM     32  C   UNL     1       7.122  -4.396   1.548  0.00  0.00    +0.010 C 
ATOM     33  C   UNL     1       8.089  -4.751   2.685  0.00  0.00    +0.009 C 
ATOM     34  C   UNL     1       9.027  -5.856   2.195  0.00  0.00    +0.027 C 
ATOM     35  C   UNL     1       8.235  -6.967   1.569  0.00  0.00    -0.031 C 
ATOM     36  C   UNL     1       7.007  -6.851   1.179  0.00  0.00    -0.031 C 
ATOM     37  C   UNL     1       6.199  -5.591   1.301  0.00  0.00    +0.032 C 
ENDBRANCH  31  32
ENDBRANCH  29  31
ENDBRANCH   5  29
TORSDOF 9
