REMARK  Name = ZINC41023697
REMARK  6 active torsions:
REMARK  status: ('A' for Active; 'I' for Inactive)
REMARK    1  A    between atoms: C_1  and  C_2
REMARK    2  A    between atoms: C_2  and  C_3
REMARK    3  A    between atoms: C_7  and  C_21
REMARK    4  A    between atoms: C_9  and  S_12
REMARK    5  A    between atoms: S_12  and  C_13
REMARK    6  A    between atoms: C_17  and  N_19
REMARK                            x       y       z     vdW  Elec       q    Type
REMARK                         _______ _______ _______ _____ _____    ______ ____
ROOT
ATOM      1  C   UNL     1      -0.520  -4.781   0.069  0.00  0.00    +0.192 A 
ATOM      2  N   UNL     1      -1.374  -3.771   0.151  0.00  0.00    -0.207 NA
ATOM      3  C   UNL     1      -2.673  -3.990   0.336  0.00  0.00    +0.122 A 
ATOM      4  C   UNL     1      -3.130  -5.300   0.445  0.00  0.00    +0.086 A 
ATOM      5  C   UNL     1      -2.204  -6.335   0.354  0.00  0.00    +0.122 A 
ATOM      6  N   UNL     1      -0.920  -6.040   0.163  0.00  0.00    -0.207 NA
ATOM      7  N   UNL     1      -3.560  -2.928   0.421  0.00  0.00    -0.343 N 
ATOM      8  H   UNL     1      -3.234  -2.017   0.345  0.00  0.00    +0.144 HD
ATOM      9  H   UNL     1      -4.506  -3.095   0.556  0.00  0.00    +0.144 HD
ENDROOT
BRANCH   5  10
ATOM     10  N   UNL     1      -2.614  -7.655   0.457  0.00  0.00    -0.343 N 
ATOM     11  H   UNL     1      -3.551  -7.863   0.593  0.00  0.00    +0.144 HD
ATOM     12  H   UNL     1      -1.963  -8.371   0.393  0.00  0.00    +0.144 HD
ENDBRANCH   5  10
BRANCH   1  13
ATOM     13  S   UNL     1       1.191  -4.440  -0.177  0.00  0.00    -0.081 S 
BRANCH  13  18
ATOM     14  C   UNL     1       0.641  -0.754  -1.922  0.00  0.00    -0.010 C 
ATOM     15  C   UNL     1       2.100  -0.291  -1.933  0.00  0.00    +0.005 C 
ATOM     16  C   UNL     1       2.763  -0.661  -0.605  0.00  0.00    +0.020 C 
ATOM     17  C   UNL     1       2.711  -2.178  -0.414  0.00  0.00    +0.105 C 
ATOM     18  C   UNL     1       1.253  -2.641  -0.403  0.00  0.00    +0.071 C 
ATOM     19  C   UNL     1       0.590  -2.271  -1.731  0.00  0.00    +0.019 C 
BRANCH  14  21
ATOM     20  C   UNL     1      -0.158   1.438  -1.027  0.00  0.00    +0.004 C 
ATOM     21  C   UNL     1      -0.102  -0.070  -0.773  0.00  0.00    +0.000 C 
ENDBRANCH  14  21
BRANCH  17  22
ATOM     22  C   UNL     1       3.349  -2.534   0.864  0.00  0.00    +0.067 C 
ATOM     23  N   UNL     1       3.841  -2.809   1.850  0.00  0.00    -0.196 NA
ENDBRANCH  17  22
ENDBRANCH  13  18
ENDBRANCH   1  13
TORSDOF 5
