REMARK  Name = ZINC05347844
REMARK  7 active torsions:
REMARK  status: ('A' for Active; 'I' for Inactive)
REMARK    1  A    between atoms: C_1  and  C_2
REMARK    2  A    between atoms: C_2  and  C_3
REMARK    3  A    between atoms: C_3  and  C_4
REMARK    4  A    between atoms: C_4  and  N_5
REMARK    5  A    between atoms: C_24  and  C_26
REMARK    6  A    between atoms: C_26  and  C_28
REMARK    7  A    between atoms: C_26  and  O_29
REMARK                            x       y       z     vdW  Elec       q    Type
REMARK                         _______ _______ _______ _____ _____    ______ ____
ROOT
ATOM      1  N   UNL     1      -0.041  -2.452   2.264  0.00  0.00    -0.242 N 
ATOM      2  C   UNL     1      -0.197  -1.124   2.217  0.00  0.00    +0.224 C 
ATOM      3  O   UNL     1      -0.996  -0.489   2.872  0.00  0.00    -0.275 OA
ATOM      4  C   UNL     1       0.778  -0.537   1.225  0.00  0.00    +0.075 C 
ATOM      5  C   UNL     1       1.544  -1.784   0.695  0.00  0.00    +0.088 C 
ATOM      6  C   UNL     1       0.907  -2.929   1.449  0.00  0.00    +0.225 C 
ATOM      7  O   UNL     1       1.209  -4.097   1.333  0.00  0.00    -0.275 OA
ATOM      8  C   UNL     1       1.171  -1.866  -0.789  0.00  0.00    +0.050 C 
ATOM      9  C   UNL     1       2.324  -2.350  -1.622  0.00  0.00    -0.028 A 
ATOM     10  C   UNL     1       3.603  -1.886  -1.830  0.00  0.00    +0.004 A 
ATOM     11  C   UNL     1       4.458  -2.568  -2.679  0.00  0.00    +0.000 A 
ATOM     12  C   UNL     1       4.022  -3.715  -3.317  0.00  0.00    +0.002 A 
ATOM     13  C   UNL     1       2.741  -4.183  -3.112  0.00  0.00    +0.023 A 
ATOM     14  C   UNL     1       1.875  -3.504  -2.258  0.00  0.00    +0.036 A 
ATOM     15  N   UNL     1       0.555  -3.775  -1.891  0.00  0.00    -0.286 N 
ATOM     16  C   UNL     1       0.070  -2.863  -1.028  0.00  0.00    +0.211 C 
ATOM     17  O   UNL     1      -1.040  -2.847  -0.538  0.00  0.00    -0.277 OA
ATOM     18  C   UNL     1       0.002  -0.004   0.002  0.00  0.00    -0.028 C 
ATOM     19  H   UNL     1       0.047  -4.533  -2.220  0.00  0.00    +0.155 HD
ATOM     20  N   UNL     1       0.749  -0.522  -1.146  0.00  0.00    +0.396 N 
ATOM     21  H   UNL     1       0.148  -0.548  -1.978  0.00  0.00    -0.083 HD
ATOM     22  H   UNL     1       1.567   0.069  -1.334  0.00  0.00    -0.083 HD
ENDROOT
BRANCH  18  23
ATOM     23  C   UNL     1      -0.019   1.526   0.010  0.00  0.00    +0.098 C 
ATOM     24  C   UNL     1      -0.759   2.033  -1.229  0.00  0.00    +0.036 C 
BRANCH  23  25
ATOM     25  O   UNL     1      -0.688   1.987   1.186  0.00  0.00    -0.394 OA
ATOM     26  H   UNL     1      -1.605   1.688   1.259  0.00  0.00    +0.210 HD
ENDBRANCH  23  25
ENDBRANCH  18  23
BRANCH   1  27
ATOM     27  C   UNL     1      -0.843  -3.314   3.136  0.00  0.00    +0.116 C 
BRANCH  27  28
ATOM     28  C   UNL     1      -0.143  -3.461   4.489  0.00  0.00    +0.019 C 
BRANCH  28  30
ATOM     29  C   UNL     1      -0.281  -4.509   6.753  0.00  0.00    +0.004 C 
ATOM     30  C   UNL     1      -0.981  -4.361   5.400  0.00  0.00    -0.002 C 
ENDBRANCH  28  30
ENDBRANCH  27  28
ENDBRANCH   1  27
TORSDOF 5
