REMARK  Name = ZINC18243446
REMARK  11 active torsions:
REMARK  status: ('A' for Active; 'I' for Inactive)
REMARK    1  A    between atoms: C_1  and  C_2
REMARK    2  A    between atoms: C_2  and  C_3
REMARK    3  A    between atoms: C_2  and  C_4
REMARK    4  A    between atoms: C_4  and  C_6
REMARK    5  A    between atoms: C_4  and  N_21
REMARK    6  A    between atoms: C_6  and  O_8
REMARK    7  A    between atoms: O_8  and  C_9
REMARK    8  A    between atoms: C_9  and  C_10
REMARK    9  A    between atoms: N_12  and  C_13
REMARK   10  A    between atoms: C_14  and  C_18
REMARK   11  A    between atoms: C_22  and  C_24
REMARK                            x       y       z     vdW  Elec       q    Type
REMARK                         _______ _______ _______ _____ _____    ______ ____
ROOT
ATOM      1  C   UNL     1      -2.264  -4.230   0.601  0.00  0.00    +0.328 C 
ATOM      2  O   UNL     1      -1.159  -4.543   0.977  0.00  0.00    -0.249 OA
ENDROOT
BRANCH   1   3
ATOM      3  C   UNL     1      -2.500  -2.864   0.010  0.00  0.00    +0.185 C 
BRANCH   3   4
ATOM      4  N   UNL     1      -1.244  -2.111   0.002  0.00  0.00    -0.298 N 
ATOM      5  C   UNL     1      -1.265  -0.764   0.010  0.00  0.00    +0.246 C 
ATOM      6  O   UNL     1      -2.328  -0.173   0.022  0.00  0.00    -0.270 OA
ATOM      7  H   UNL     1      -0.396  -2.583  -0.008  0.00  0.00    +0.150 HD
BRANCH   5   8
ATOM      8  C   UNL     1       0.002  -0.004   0.002  0.00  0.00    +0.055 A 
ATOM      9  C   UNL     1       1.224  -0.679  -0.013  0.00  0.00    +0.014 A 
ATOM     10  C   UNL     1       2.403   0.036  -0.021  0.00  0.00    +0.001 A 
ATOM     11  C   UNL     1       2.378   1.420  -0.013  0.00  0.00    +0.001 A 
ATOM     12  C   UNL     1       1.172   2.096   0.002  0.00  0.00    +0.021 A 
ATOM     13  C   UNL     1      -0.017   1.393   0.010  0.00  0.00    +0.053 A 
ATOM     14 CL   UNL     1      -1.530   2.243   0.021  0.00  0.00    -0.083 Cl
ENDBRANCH   5   8
ENDBRANCH   3   4
BRANCH   3  16
ATOM     15  C   UNL     1      -4.328  -3.797  -1.416  0.00  0.00    +0.009 C 
ATOM     16  C   UNL     1      -3.015  -3.011  -1.424  0.00  0.00    +0.014 C 
ATOM     17  C   UNL     1      -3.255  -1.624  -2.024  0.00  0.00    +0.009 C 
ENDBRANCH   3  16
ENDBRANCH   1   3
BRANCH   1  18
ATOM     18  O   UNL     1      -3.280  -5.100   0.709  0.00  0.00    -0.454 OA
BRANCH  18  19
ATOM     19  C   UNL     1      -2.979  -6.397   1.288  0.00  0.00    +0.328 C 
BRANCH  19  20
ATOM     20  C   UNL     1      -4.233  -7.232   1.328  0.00  0.00    +0.255 C 
ATOM     21  O   UNL     1      -5.277  -6.779   0.910  0.00  0.00    -0.272 OA
ATOM     22  N   UNL     1      -4.194  -8.483   1.828  0.00  0.00    -0.277 N 
ATOM     23  H   UNL     1      -3.359  -8.846   2.163  0.00  0.00    +0.155 HD
BRANCH  22  24
ATOM     24  C   UNL     1      -5.348  -9.252   1.865  0.00  0.00    +0.084 A 
ATOM     25  C   UNL     1      -5.505 -10.551   2.334  0.00  0.00    +0.065 A 
ATOM     26  C   UNL     1      -6.832 -11.113   2.255  0.00  0.00    +0.022 A 
ATOM     27  C   UNL     1      -7.797 -10.337   1.729  0.00  0.00    +0.048 A 
ATOM     28  S   UNL     1      -6.940  -8.828   1.333  0.00  0.00    -0.081 S 
BRANCH  25  29
ATOM     29  C   UNL     1      -4.379 -11.312   2.883  0.00  0.00    +0.244 C 
ATOM     30  O   UNL     1      -3.272 -10.807   2.938  0.00  0.00    -0.270 OA
ATOM     31  N   UNL     1      -4.569 -12.570   3.328  0.00  0.00    -0.325 N 
ATOM     32  H   UNL     1      -5.450 -12.972   3.284  0.00  0.00    +0.145 HD
ATOM     33  H   UNL     1      -3.823 -13.073   3.692  0.00  0.00    +0.145 HD
ENDBRANCH  25  29
ENDBRANCH  22  24
ENDBRANCH  19  20
ENDBRANCH  18  19
ENDBRANCH   1  18
TORSDOF 9
