REMARK  Name = ZINC61914050
REMARK  2 active torsions:
REMARK  status: ('A' for Active; 'I' for Inactive)
REMARK    1  A    between atoms: C_6  and  N_7
REMARK    2  A    between atoms: C_9  and  C_11
REMARK                            x       y       z     vdW  Elec       q    Type
REMARK                         _______ _______ _______ _____ _____    ______ ____
ROOT
ATOM      1  C   UNL     1      -0.016   1.366  -0.243  0.00  0.00    +0.026 A 
ATOM      2  C   UNL     1       1.159   2.074  -0.365  0.00  0.00    +0.048 A 
ATOM      3  C   UNL     1       2.381   1.428  -0.213  0.00  0.00    +0.136 A 
ATOM      4  C   UNL     1       2.402   0.049   0.065  0.00  0.00    +0.023 A 
ATOM      5  C   UNL     1       1.206  -0.662   0.188  0.00  0.00    +0.034 A 
ATOM      6  C   UNL     1       0.002  -0.000   0.033  0.00  0.00    +0.025 A 
ATOM      7  C   UNL     1       3.816  -0.315   0.163  0.00  0.00    +0.063 A 
ATOM      8  C   UNL     1       4.514   0.830  -0.056  0.00  0.00    +0.191 A 
ATOM      9  O   UNL     1       3.660   1.850  -0.276  0.00  0.00    -0.450 OA
ENDROOT
BRANCH   8  10
ATOM     10  C   UNL     1       5.980   0.939  -0.053  0.00  0.00    +0.282 C 
ATOM     11  O   UNL     1       6.665  -0.062   0.042  0.00  0.00    -0.267 OA
ATOM     12  N   UNL     1       6.565   2.149  -0.154  0.00  0.00    -0.293 N 
ATOM     13  C   UNL     1       8.033   2.219  -0.284  0.00  0.00    +0.110 C 
ATOM     14  C   UNL     1       8.445   3.274  -1.320  0.00  0.00    +0.047 C 
ATOM     15  C   UNL     1       7.500   3.220  -2.503  0.00  0.00    +0.161 C 
ATOM     16  O   UNL     1       6.431   4.129  -2.276  0.00  0.00    -0.378 OA
ATOM     17  C   UNL     1       5.318   3.707  -1.577  0.00  0.00    +0.178 C 
ATOM     18  C   UNL     1       5.727   3.334  -0.137  0.00  0.00    +0.136 C 
ENDBRANCH   8  10
BRANCH   6  19
ATOM     19  N   UNL     1      -1.202  -0.704   0.153  0.00  0.00    -0.358 N 
ATOM     20  H   UNL     1      -2.047  -0.241   0.045  0.00  0.00    +0.142 HD
ATOM     21  H   UNL     1      -1.190  -1.655   0.345  0.00  0.00    +0.142 HD
ENDBRANCH   6  19
TORSDOF 2
