REMARK  Name = ZINC44667436
REMARK  3 active torsions:
REMARK  status: ('A' for Active; 'I' for Inactive)
REMARK    1  A    between atoms: C_8  and  N_9
REMARK    2  A    between atoms: N_9  and  N_10
REMARK    3  A    between atoms: N_19  and  C_22
REMARK                            x       y       z     vdW  Elec       q    Type
REMARK                         _______ _______ _______ _____ _____    ______ ____
ROOT
ATOM      1  C   UNL     1       0.090   1.374  -0.206  0.00  0.00    +0.001 A 
ATOM      2  C   UNL     1       1.265   2.076   0.019  0.00  0.00    +0.001 A 
ATOM      3  C   UNL     1       2.439   1.412   0.301  0.00  0.00    +0.014 A 
ATOM      4  C   UNL     1       2.446   0.018   0.360  0.00  0.00    +0.046 A 
ATOM      5  C   UNL     1       1.249  -0.692   0.130  0.00  0.00    +0.000 A 
ATOM      6  C   UNL     1       0.075  -0.004  -0.152  0.00  0.00    +0.009 A 
ATOM      7  C   UNL     1       1.289  -2.168   0.199  0.00  0.00    +0.060 C 
ATOM      8  C   UNL     1       0.154  -2.919  -0.015  0.00  0.00    +0.101 C 
ATOM      9  C   UNL     1       2.573  -2.810   0.503  0.00  0.00    +0.259 C 
ATOM     10  O   UNL     1       2.640  -4.024   0.567  0.00  0.00    -0.269 OA
ATOM     11  N   UNL     1       3.675  -2.071   0.710  0.00  0.00    -0.201 N 
ATOM     12  C   UNL     1       3.675  -0.730   0.656  0.00  0.00    +0.258 C 
ATOM     13  O   UNL     1       4.711  -0.123   0.855  0.00  0.00    -0.269 OA
ENDROOT
BRANCH  11  14
ATOM     14  C   UNL     1       4.879  -2.730   0.997  0.00  0.00    +0.063 A 
ATOM     15  C   UNL     1       5.732  -3.100  -0.034  0.00  0.00    +0.025 A 
ATOM     16  C   UNL     1       6.918  -3.749   0.252  0.00  0.00    +0.002 A 
ATOM     17  C   UNL     1       7.255  -4.030   1.563  0.00  0.00    +0.002 A 
ATOM     18  C   UNL     1       6.408  -3.663   2.593  0.00  0.00    +0.022 A 
ATOM     19  C   UNL     1       5.223  -3.009   2.314  0.00  0.00    +0.063 A 
ATOM     20 CL   UNL     1       4.163  -2.542   3.607  0.00  0.00    -0.082 Cl
ENDBRANCH  11  14
BRANCH   8  21
ATOM     21  N   UNL     1       0.245  -4.270  -0.127  0.00  0.00    -0.271 N 
ATOM     22  H   UNL     1       1.115  -4.699  -0.138  0.00  0.00    +0.169 HD
BRANCH  21  23
ATOM     23  N   UNL     1      -0.919  -5.044  -0.225  0.00  0.00    -0.235 N 
ATOM     24  C   UNL     1      -0.827  -6.420  -0.338  0.00  0.00    +0.232 A 
ATOM     25  N   UNL     1       0.369  -6.990  -0.346  0.00  0.00    -0.222 NA
ATOM     26  C   UNL     1       0.492  -8.303  -0.453  0.00  0.00    +0.116 A 
ATOM     27  C   UNL     1      -0.649  -9.083  -0.556  0.00  0.00    +0.039 A 
ATOM     28  C   UNL     1      -1.884  -8.454  -0.545  0.00  0.00    +0.116 A 
ATOM     29  N   UNL     1      -1.937  -7.137  -0.431  0.00  0.00    -0.222 NA
ATOM     30  H   UNL     1      -1.789  -4.615  -0.214  0.00  0.00    +0.173 HD
ENDBRANCH  21  23
ENDBRANCH   8  21
TORSDOF 3
