REMARK  Name = ZINC52841504
REMARK  5 active torsions:
REMARK  status: ('A' for Active; 'I' for Inactive)
REMARK    1  A    between atoms: C_8  and  C_11
REMARK    2  A    between atoms: C_11  and  N_12
REMARK    3  A    between atoms: N_12  and  C_13
REMARK    4  A    between atoms: C_16  and  N_20
REMARK    5  A    between atoms: C_18  and  N_19
REMARK                            x       y       z     vdW  Elec       q    Type
REMARK                         _______ _______ _______ _____ _____    ______ ____
ROOT
ATOM      1  N   UNL     1       5.218  -3.192  -0.157  0.00  0.00    -0.339 N 
ATOM      2  H   UNL     1       5.515  -2.521  -0.791  0.00  0.00    +0.146 HD
ENDROOT
BRANCH   1   3
ATOM      3  C   UNL     1       6.132  -4.116   0.365  0.00  0.00    +0.048 A 
ATOM      4  C   UNL     1       5.708  -5.080   1.266  0.00  0.00    +0.027 A 
ATOM      5  C   UNL     1       6.612  -5.991   1.780  0.00  0.00    +0.034 A 
ATOM      6  C   UNL     1       7.939  -5.945   1.398  0.00  0.00    +0.128 A 
ATOM      7  C   UNL     1       8.371  -4.986   0.499  0.00  0.00    +0.057 A 
ATOM      8  C   UNL     1       7.470  -4.072  -0.025  0.00  0.00    +0.048 A 
BRANCH   8   9
ATOM      9  N   UNL     1       7.904  -3.105  -0.940  0.00  0.00    -0.356 N 
ATOM     10  H   UNL     1       7.273  -2.463  -1.303  0.00  0.00    +0.142 HD
ATOM     11  H   UNL     1       8.835  -3.076  -1.210  0.00  0.00    +0.142 HD
ENDBRANCH   8   9
BRANCH   6  12
ATOM     12  N   UNL     1       8.902  -6.923   1.952  0.00  0.00    +0.056 N 
ATOM     13  O   UNL     1       8.526  -7.761   2.738  0.00  0.00    -0.126 OA
ATOM     14  O   UNL     1      10.063  -6.884   1.619  0.00  0.00    -0.126 OA
ENDBRANCH   6  12
ENDBRANCH   1   3
BRANCH   1  15
ATOM     15  C   UNL     1       3.813  -3.240   0.254  0.00  0.00    +0.146 C 
BRANCH  15  23
ATOM     16  C   UNL     1      -0.017   1.379   0.010  0.00  0.00    +0.000 A 
ATOM     17  C   UNL     1       1.174   2.082   0.002  0.00  0.00    +0.004 A 
ATOM     18  C   UNL     1       2.379   1.411  -0.009  0.00  0.00    +0.046 A 
ATOM     19  C   UNL     1       2.407   0.019  -0.013  0.00  0.00    +0.124 A 
ATOM     20  C   UNL     1       1.204  -0.676  -0.013  0.00  0.00    -0.002 A 
ATOM     21  C   UNL     1       0.002  -0.004   0.002  0.00  0.00    +0.007 A 
ATOM     22  C   UNL     1       1.545  -2.154  -0.043  0.00  0.00    +0.085 C 
ATOM     23  C   UNL     1       3.035  -2.130  -0.457  0.00  0.00    +0.195 C 
ATOM     24  O   UNL     1       3.469  -0.834  -0.012  0.00  0.00    -0.487 OA
ENDBRANCH  15  23
ENDBRANCH   1  15
TORSDOF 5
