REMARK  Name = ZINC51173434
REMARK  6 active torsions:
REMARK  status: ('A' for Active; 'I' for Inactive)
REMARK    1  A    between atoms: C_1  and  N_2
REMARK    2  A    between atoms: N_2  and  C_3
REMARK    3  A    between atoms: C_3  and  C_4
REMARK    4  A    between atoms: C_6  and  C_9
REMARK    5  A    between atoms: C_10  and  C_11
REMARK    6  A    between atoms: C_14  and  C_16
REMARK                            x       y       z     vdW  Elec       q    Type
REMARK                         _______ _______ _______ _____ _____    ______ ____
ROOT
ATOM      1  C   UNL     1       0.130  -0.738   1.261  0.00  0.00    +0.150 C 
ENDROOT
BRANCH   1   2
ATOM      2  C   UNL     1      -1.233  -1.048   1.826  0.00  0.00    +0.008 A 
ATOM      3  C   UNL     1      -2.000  -2.135   1.612  0.00  0.00    +0.020 A 
ATOM      4  C   UNL     1      -3.271  -2.152   2.299  0.00  0.00    -0.017 A 
ATOM      5  C   UNL     1      -3.561  -1.060   3.095  0.00  0.00    +0.053 A 
ATOM      6  S   UNL     1      -2.215  -0.071   2.943  0.00  0.00    -0.099 S 
BRANCH   4   7
ATOM      7  C   UNL     1      -4.205  -3.270   2.158  0.00  0.00    +0.015 C 
ATOM      8  C   UNL     1      -5.390  -3.252   2.818  0.00  0.00    +0.096 C 
BRANCH   8   9
ATOM      9  C   UNL     1      -6.290  -4.328   2.683  0.00  0.00    +0.380 C 
ATOM     10  O   UNL     1      -6.002  -5.281   1.968  0.00  0.00    -0.241 OA
ATOM     11  O   UNL     1      -7.361  -4.311   3.279  0.00  0.00    -0.241 OA
ENDBRANCH   8   9
ENDBRANCH   4   7
ENDBRANCH   1   2
BRANCH   1  13
ATOM     12  C   UNL     1      -0.078   1.461   0.013  0.00  0.00    +0.132 C 
ATOM     13  N   UNL     1      -0.019  -0.003   0.003  0.00  0.00    -0.295 N 
ATOM     14  C   UNL     1      -0.102  -0.673  -1.163  0.00  0.00    +0.253 C 
ATOM     15  O   UNL     1      -0.158  -1.889  -1.164  0.00  0.00    -0.269 OA
BRANCH  14  16
ATOM     16  C   UNL     1      -0.124   0.062  -2.430  0.00  0.00    +0.075 A 
ATOM     17  C   UNL     1      -0.322  -0.419  -3.716  0.00  0.00    +0.022 A 
ATOM     18  C   UNL     1      -0.288   0.522  -4.717  0.00  0.00    +0.028 A 
ATOM     19  C   UNL     1      -0.069   1.822  -4.392  0.00  0.00    +0.079 A 
ATOM     20  S   UNL     1       0.089   1.808  -2.720  0.00  0.00    -0.072 S 
ATOM     21 CL   UNL     1       0.019   3.188  -5.461  0.00  0.00    -0.076 Cl
ENDBRANCH  14  16
ENDBRANCH   1  13
TORSDOF 5
