REMARK  Name = ZINC33810568
REMARK  7 active torsions:
REMARK  status: ('A' for Active; 'I' for Inactive)
REMARK    1  A    between atoms: C_1  and  C_2
REMARK    2  A    between atoms: C_5  and  C_8
REMARK    3  A    between atoms: C_8  and  S_9
REMARK    4  A    between atoms: S_9  and  C_10
REMARK    5  A    between atoms: C_17  and  C_29
REMARK    6  A    between atoms: C_23  and  C_27
REMARK    7  A    between atoms: C_23  and  C_28
REMARK                            x       y       z     vdW  Elec       q    Type
REMARK                         _______ _______ _______ _____ _____    ______ ____
ROOT
ATOM      1  C   UNL     1      -1.558  -3.020  -3.551  0.00  0.00    +0.171 A 
ATOM      2  N   UNL     1      -1.234  -3.648  -2.387  0.00  0.00    -0.208 NA
ATOM      3  C   UNL     1      -1.147  -2.933  -1.221  0.00  0.00    +0.135 A 
ATOM      4  C   UNL     1      -1.385  -1.595  -1.242  0.00  0.00    +0.069 A 
ATOM      5  C   UNL     1      -1.721  -0.982  -2.469  0.00  0.00    +0.258 A 
ATOM      6  O   UNL     1      -1.946   0.219  -2.515  0.00  0.00    -0.267 OA
ATOM      7  N   UNL     1      -1.793  -1.725  -3.584  0.00  0.00    -0.302 N 
ATOM      8  C   UNL     1      -1.293  -0.775   0.011  0.00  0.00    +0.092 C 
ATOM      9  C   UNL     1      -1.340  -1.646   1.240  0.00  0.00    +0.024 C 
ATOM     10  C   UNL     1      -1.099  -2.972   1.162  0.00  0.00    +0.017 C 
ATOM     11  N   UNL     1      -0.821  -3.561  -0.042  0.00  0.00    -0.302 N 
ATOM     12  C   UNL     1      -1.124  -3.841   2.396  0.00  0.00    +0.058 C 
ATOM     13  C   UNL     1      -2.127  -3.274   3.404  0.00  0.00    -0.023 C 
ATOM     14  C   UNL     1      -1.716  -1.837   3.741  0.00  0.00    +0.086 C 
ATOM     15  C   UNL     1      -1.644  -1.037   2.470  0.00  0.00    +0.162 C 
ATOM     16  O   UNL     1      -1.851   0.160   2.507  0.00  0.00    -0.292 OA
ATOM     17  C   UNL     1      -3.529  -3.278   2.792  0.00  0.00    +0.011 C 
ATOM     18  C   UNL     1      -2.117  -4.128   4.673  0.00  0.00    +0.011 C 
ATOM     19  H   UNL     1      -0.332  -4.546  -0.059  0.00  0.00    +0.153 HD
ATOM     20  H   UNL     1      -2.054  -1.237  -4.534  0.00  0.00    +0.171 HD
ENDROOT
BRANCH   8  21
ATOM     21  C   UNL     1       0.002  -0.004   0.002  0.00  0.00    -0.032 A 
ATOM     22  C   UNL     1      -0.017   1.378   0.010  0.00  0.00    +0.005 A 
ATOM     23  C   UNL     1       1.170   2.087   0.002  0.00  0.00    +0.003 A 
ATOM     24  C   UNL     1       2.377   1.414  -0.013  0.00  0.00    +0.038 A 
ATOM     25  C   UNL     1       2.397   0.029  -0.021  0.00  0.00    +0.124 A 
ATOM     26  C   UNL     1       1.208  -0.679  -0.013  0.00  0.00    +0.043 A 
ATOM     27  F   UNL     1       3.577  -0.629  -0.036  0.00  0.00    -0.205 F 
ENDBRANCH   8  21
BRANCH   1  28
ATOM     28  S   UNL     1      -1.663  -3.957  -5.040  0.00  0.00    -0.083 S 
BRANCH  28  29
ATOM     29  C   UNL     1      -2.108  -2.645  -6.205  0.00  0.00    +0.112 C 
BRANCH  29  34
ATOM     30  C   UNL     1      -2.677  -4.885 -11.502  0.00  0.00    +0.044 C 
ATOM     31  C   UNL     1      -2.529  -4.301 -10.121  0.00  0.00    -0.050 A 
ATOM     32  C   UNL     1      -3.621  -4.239  -9.275  0.00  0.00    +0.003 A 
ATOM     33  C   UNL     1      -3.485  -3.704  -8.008  0.00  0.00    +0.005 A 
ATOM     34  C   UNL     1      -2.257  -3.230  -7.587  0.00  0.00    -0.037 A 
ATOM     35  C   UNL     1      -1.166  -3.287  -8.434  0.00  0.00    +0.005 A 
ATOM     36  C   UNL     1      -1.301  -3.826  -9.699  0.00  0.00    +0.003 A 
ENDBRANCH  29  34
ENDBRANCH  28  29
ENDBRANCH   1  28
TORSDOF 4
