REMARK  Name = ZINC40868671
REMARK  4 active torsions:
REMARK  status: ('A' for Active; 'I' for Inactive)
REMARK    1  A    between atoms: N_9  and  C_12
REMARK    2  A    between atoms: C_16  and  C_18
REMARK    3  A    between atoms: N_20  and  C_21
REMARK    4  A    between atoms: C_22  and  C_29
REMARK                            x       y       z     vdW  Elec       q    Type
REMARK                         _______ _______ _______ _____ _____    ______ ____
ROOT
ATOM      1  C   UNL     1       3.676  -3.374  -0.051  0.00  0.00    +0.045 A 
ATOM      2  C   UNL     1       3.007  -4.592  -0.056  0.00  0.00    +0.024 A 
ATOM      3  C   UNL     1       3.719  -5.777  -0.069  0.00  0.00    +0.003 A 
ATOM      4  C   UNL     1       5.099  -5.758  -0.076  0.00  0.00    +0.013 A 
ATOM      5  C   UNL     1       5.780  -4.539  -0.071  0.00  0.00    +0.039 A 
ATOM      6  C   UNL     1       5.061  -3.344  -0.064  0.00  0.00    +0.037 A 
ENDROOT
BRANCH   1  15
ATOM      7  C   UNL     1      -0.017   1.382   0.010  0.00  0.00    +0.001 A 
ATOM      8  C   UNL     1       1.165   2.099   0.002  0.00  0.00    +0.001 A 
ATOM      9  C   UNL     1       2.385   1.442  -0.013  0.00  0.00    +0.014 A 
ATOM     10  C   UNL     1       2.420   0.057  -0.021  0.00  0.00    +0.050 A 
ATOM     11  C   UNL     1       1.215  -0.674  -0.013  0.00  0.00    +0.050 A 
ATOM     12  C   UNL     1       0.002  -0.004   0.002  0.00  0.00    +0.014 A 
ATOM     13  C   UNL     1       1.606  -2.100  -0.024  0.00  0.00    +0.258 C 
ATOM     14  O   UNL     1       0.843  -3.045  -0.022  0.00  0.00    -0.269 OA
ATOM     15  N   UNL     1       2.949  -2.175  -0.038  0.00  0.00    -0.202 N 
ATOM     16  C   UNL     1       3.503  -0.949  -0.036  0.00  0.00    +0.258 C 
ATOM     17  O   UNL     1       4.693  -0.709  -0.047  0.00  0.00    -0.269 OA
ENDBRANCH   1  15
BRANCH   5  18
ATOM     18  C   UNL     1       7.258  -4.516  -0.080  0.00  0.00    +0.249 C 
ATOM     19  O   UNL     1       7.849  -3.453  -0.075  0.00  0.00    -0.270 OA
ATOM     20  N   UNL     1       7.951  -5.672  -0.092  0.00  0.00    -0.275 N 
ATOM     21  H   UNL     1       7.479  -6.519  -0.096  0.00  0.00    +0.156 HD
BRANCH  20  22
ATOM     22  C   UNL     1       9.336  -5.650  -0.100  0.00  0.00    +0.085 A 
ATOM     23  C   UNL     1      10.204  -6.726  -0.118  0.00  0.00    +0.068 A 
ATOM     24  C   UNL     1      11.636  -6.433  -0.123  0.00  0.00    -0.023 A 
ATOM     25  C   UNL     1      11.926  -5.119  -0.107  0.00  0.00    -0.004 A 
ATOM     26  S   UNL     1      10.346  -4.311  -0.097  0.00  0.00    -0.077 S 
ATOM     27  C   UNL     1      13.411  -4.873  -0.108  0.00  0.00    +0.043 C 
ATOM     28  C   UNL     1      14.031  -6.226   0.306  0.00  0.00    +0.010 C 
ATOM     29  C   UNL     1      12.943  -7.222  -0.144  0.00  0.00    +0.037 C 
BRANCH  23  30
ATOM     30  C   UNL     1       9.708  -8.106  -0.132  0.00  0.00    +0.244 C 
ATOM     31  O   UNL     1       9.496  -8.666  -1.192  0.00  0.00    -0.270 OA
ATOM     32  N   UNL     1       9.486  -8.754   1.029  0.00  0.00    -0.325 N 
ATOM     33  H   UNL     1       9.655  -8.308   1.873  0.00  0.00    +0.145 HD
ATOM     34  H   UNL     1       9.158  -9.667   1.020  0.00  0.00    +0.145 HD
ENDBRANCH  23  30
ENDBRANCH  20  22
ENDBRANCH   5  18
TORSDOF 4
