REMARK  Name = ZINC39666384
REMARK  9 active torsions:
REMARK  status: ('A' for Active; 'I' for Inactive)
REMARK    1  A    between atoms: C_1  and  C_2
REMARK    2  A    between atoms: C_2  and  C_4
REMARK    3  A    between atoms: C_2  and  O_29
REMARK    4  A    between atoms: C_4  and  N_5
REMARK    5  A    between atoms: C_6  and  C_8
REMARK    6  A    between atoms: C_19  and  C_21
REMARK    7  A    between atoms: C_21  and  C_22
REMARK    8  A    between atoms: C_22  and  C_23
REMARK    9  A    between atoms: O_29  and  C_30
REMARK                            x       y       z     vdW  Elec       q    Type
REMARK                         _______ _______ _______ _____ _____    ______ ____
ROOT
ATOM      1  C   UNL     1       0.519  -3.682  -1.923  0.00  0.00    +0.100 C 
ATOM      2  C   UNL     1      -1.002  -3.944  -2.001  0.00  0.00    +0.121 C 
ATOM      3  N   UNL     1      -1.260  -4.228  -3.432  0.00  0.00    -0.300 N 
ATOM      4  C   UNL     1      -0.099  -5.044  -3.862  0.00  0.00    +0.115 C 
ATOM      5  C   UNL     1       1.108  -4.409  -3.144  0.00  0.00    -0.004 C 
ATOM      6  C   UNL     1       2.085  -5.491  -2.694  0.00  0.00    -0.010 C 
ATOM      7  C   UNL     1       2.701  -6.159  -3.926  0.00  0.00    -0.082 C 
ATOM      8  N   UNL     1       3.395  -5.151  -4.737  0.00  0.00    +0.379 N 
ATOM      9  C   UNL     1       2.432  -4.165  -5.242  0.00  0.00    -0.082 C 
ATOM     10  C   UNL     1       1.805  -3.412  -4.066  0.00  0.00    -0.010 C 
ATOM     11  C   UNL     1      -2.313  -3.833  -4.176  0.00  0.00    +0.216 C 
ATOM     12  O   UNL     1      -2.382  -4.148  -5.345  0.00  0.00    -0.276 OA
ATOM     13  H   UNL     1       4.087  -4.684  -4.170  0.00  0.00    -0.086 HD
ATOM     14  H   UNL     1       3.852  -5.603  -5.515  0.00  0.00    -0.086 HD
ENDROOT
BRANCH   1  16
ATOM     15  N   UNL     1       1.902  -1.695  -1.417  0.00  0.00    -0.312 N 
ATOM     16  C   UNL     1       0.801  -2.204  -2.005  0.00  0.00    +0.218 C 
ATOM     17  O   UNL     1       0.039  -1.473  -2.600  0.00  0.00    -0.275 OA
ATOM     18  H   UNL     1       2.512  -2.279  -0.940  0.00  0.00    +0.149 HD
BRANCH  15  19
ATOM     19  C   UNL     1       2.176  -0.258  -1.496  0.00  0.00    +0.148 C 
BRANCH  19  21
ATOM     20  C   UNL     1       3.762   1.556  -0.835  0.00  0.00    +0.053 C 
ATOM     21  C   UNL     1       3.475   0.055  -0.751  0.00  0.00    +0.187 C 
BRANCH  21  22
ATOM     22  O   UNL     1       3.344  -0.329   0.619  0.00  0.00    -0.486 OA
BRANCH  22  23
ATOM     23  C   UNL     1       4.489  -0.621   1.290  0.00  0.00    +0.139 A 
ATOM     24  C   UNL     1       5.720  -0.435   0.679  0.00  0.00    +0.047 A 
ATOM     25  C   UNL     1       6.882  -0.732   1.364  0.00  0.00    +0.004 A 
ATOM     26  C   UNL     1       6.820  -1.215   2.658  0.00  0.00    +0.002 A 
ATOM     27  C   UNL     1       5.594  -1.402   3.271  0.00  0.00    +0.023 A 
ATOM     28  C   UNL     1       4.428  -1.101   2.592  0.00  0.00    +0.083 A 
ATOM     29 CL   UNL     1       2.890  -1.329   3.363  0.00  0.00    -0.080 Cl
ENDBRANCH  22  23
ENDBRANCH  21  22
ENDBRANCH  19  21
ENDBRANCH  15  19
ENDBRANCH   1  16
BRANCH  11  30
ATOM     30  C   UNL     1      -3.404  -2.999  -3.554  0.00  0.00    +0.100 C 
BRANCH  30  31
ATOM     31  C   UNL     1      -4.471  -2.690  -4.606  0.00  0.00    +0.044 C 
BRANCH  31  32
ATOM     32  C   UNL     1      -5.562  -1.857  -3.985  0.00  0.00    -0.047 A 
ATOM     33  C   UNL     1      -6.648  -2.471  -3.391  0.00  0.00    +0.003 A 
ATOM     34  C   UNL     1      -7.649  -1.707  -2.821  0.00  0.00    +0.000 A 
ATOM     35  C   UNL     1      -7.563  -0.328  -2.844  0.00  0.00    +0.000 A 
ATOM     36  C   UNL     1      -6.477   0.287  -3.437  0.00  0.00    +0.000 A 
ATOM     37  C   UNL     1      -5.474  -0.477  -4.004  0.00  0.00    +0.003 A 
ENDBRANCH  31  32
ENDBRANCH  30  31
ENDBRANCH  11  30
TORSDOF 8
