REMARK  Name = ZINC36964077
REMARK  6 active torsions:
REMARK  status: ('A' for Active; 'I' for Inactive)
REMARK    1  A    between atoms: C_1  and  C_2
REMARK    2  A    between atoms: C_3  and  C_19
REMARK    3  A    between atoms: N_4  and  C_10
REMARK    4  A    between atoms: C_5  and  N_9
REMARK    5  A    between atoms: C_6  and  C_7
REMARK    6  A    between atoms: C_13  and  C_17
REMARK                            x       y       z     vdW  Elec       q    Type
REMARK                         _______ _______ _______ _____ _____    ______ ____
ROOT
ATOM      1  C   UNL     1      -0.018   1.503   0.010  0.00  0.00    +0.047 C 
ATOM      2  C   UNL     1       0.002  -0.004   0.002  0.00  0.00    -0.010 A 
ATOM      3  C   UNL     1       0.008  -0.798  -1.079  0.00  0.00    +0.027 A 
ATOM      4  N   UNL     1       0.028  -2.112  -0.678  0.00  0.00    -0.301 N 
ATOM      5  C   UNL     1       0.035  -2.184   0.681  0.00  0.00    +0.119 A 
ATOM      6  C   UNL     1       0.026  -0.887   1.177  0.00  0.00    +0.094 A 
ATOM      7  C   UNL     1      -0.006  -0.324  -2.510  0.00  0.00    +0.064 C 
ENDROOT
BRANCH   4   8
ATOM      8  C   UNL     1       0.039  -3.213  -1.540  0.00  0.00    +0.049 A 
ATOM      9  C   UNL     1      -1.053  -3.457  -2.367  0.00  0.00    +0.027 A 
ATOM     10  C   UNL     1      -1.047  -4.540  -3.217  0.00  0.00    +0.022 A 
ATOM     11  C   UNL     1       0.058  -5.396  -3.249  0.00  0.00    +0.070 A 
ATOM     12  C   UNL     1       1.154  -5.147  -2.416  0.00  0.00    +0.060 A 
ATOM     13  C   UNL     1       1.142  -4.058  -1.571  0.00  0.00    +0.047 A 
ATOM     14 CL   UNL     1       2.530  -6.206  -2.450  0.00  0.00    -0.082 Cl
BRANCH  11  15
ATOM     15  C   UNL     1       0.068  -6.523  -4.132  0.00  0.00    +0.101 C 
ATOM     16  N   UNL     1       0.076  -7.418  -4.832  0.00  0.00    -0.191 NA
ENDBRANCH  11  15
ENDBRANCH   4   8
BRANCH   5  17
ATOM     17  N   UNL     1       0.055  -3.343   1.435  0.00  0.00    -0.343 N 
ATOM     18  H   UNL     1       0.065  -4.208   0.995  0.00  0.00    +0.144 HD
ATOM     19  H   UNL     1       0.059  -3.292   2.403  0.00  0.00    +0.144 HD
ENDBRANCH   5  17
BRANCH   6  20
ATOM     20  C   UNL     1       0.034  -0.490   2.553  0.00  0.00    +0.103 C 
ATOM     21  N   UNL     1       0.040  -0.175   3.644  0.00  0.00    -0.191 NA
ENDBRANCH   6  20
TORSDOF 4
