REMARK  Name = ZINC03764599
REMARK  9 active torsions:
REMARK  status: ('A' for Active; 'I' for Inactive)
REMARK    1  A    between atoms: C_1  and  C_2
REMARK    2  A    between atoms: C_6  and  C_8
REMARK    3  A    between atoms: C_8  and  C_9
REMARK    4  A    between atoms: C_8  and  C_16
REMARK    5  A    between atoms: C_8  and  O_34
REMARK    6  A    between atoms: C_13  and  C_15
REMARK    7  A    between atoms: N_18  and  N_19
REMARK    8  A    between atoms: C_20  and  C_22
REMARK    9  A    between atoms: C_22  and  C_24
REMARK                            x       y       z     vdW  Elec       q    Type
REMARK                         _______ _______ _______ _____ _____    ______ ____
ROOT
ATOM      1  C   UNL     1      -3.554   8.474   1.409  0.00  0.00    +0.270 C 
ATOM      2  O   UNL     1      -3.923   9.572   1.766  0.00  0.00    -0.270 OA
ATOM      3  N   UNL     1      -3.726   7.409   2.218  0.00  0.00    -0.231 N 
ATOM      4  H   UNL     1      -3.392   6.413   1.894  0.00  0.00    +0.173 HD
ENDROOT
BRANCH   3   5
ATOM      5  N   UNL     1      -4.331   7.572   3.471  0.00  0.00    -0.228 N 
ATOM      6  C   UNL     1      -4.503   6.508   4.280  0.00  0.00    +0.301 C 
ATOM      7  O   UNL     1      -4.134   5.408   3.923  0.00  0.00    -0.265 OA
ATOM      8  H   UNL     1      -4.666   8.569   3.795  0.00  0.00    +0.173 HD
BRANCH   6   9
ATOM      9  C   UNL     1      -5.148   6.681   5.614  0.00  0.00    +0.251 C 
ATOM     10  O   UNL     1      -5.518   7.782   5.972  0.00  0.00    -0.282 OA
BRANCH   9  11
ATOM     11  C   UNL     1      -5.334   5.527   6.491  0.00  0.00    +0.052 A 
ATOM     12  C   UNL     1      -4.976   4.218   6.229  0.00  0.00    +0.095 A 
ATOM     13  N   UNL     1      -5.314   3.440   7.273  0.00  0.00    -0.360 N 
ATOM     14  H   UNL     1      -5.105   2.360   7.245  0.00  0.00    +0.165 HD
ATOM     15  C   UNL     1      -5.907   4.189   8.270  0.00  0.00    +0.047 A 
ATOM     16  C   UNL     1      -5.949   5.523   7.833  0.00  0.00    +0.011 A 
ATOM     17  C   UNL     1      -6.501   6.508   8.646  0.00  0.00    +0.011 A 
ATOM     18  C   UNL     1      -7.006   6.168   9.883  0.00  0.00    +0.001 A 
ATOM     19  C   UNL     1      -6.966   4.851  10.317  0.00  0.00    +0.002 A 
ATOM     20  C   UNL     1      -6.422   3.866   9.521  0.00  0.00    +0.026 A 
ENDBRANCH   9  11
ENDBRANCH   6   9
ENDBRANCH   3   5
BRANCH   1  21
ATOM     21  C   UNL     1      -2.903   8.299   0.062  0.00  0.00    +0.194 C 
BRANCH  21  27
ATOM     22  C   UNL     1      -3.058  13.153  -1.143  0.00  0.00    +0.044 C 
ATOM     23  C   UNL     1      -3.430  11.723  -1.438  0.00  0.00    -0.050 A 
ATOM     24  C   UNL     1      -4.185  11.421  -2.556  0.00  0.00    +0.003 A 
ATOM     25  C   UNL     1      -4.525  10.109  -2.827  0.00  0.00    +0.001 A 
ATOM     26  C   UNL     1      -4.107   9.098  -1.982  0.00  0.00    +0.007 A 
ATOM     27  C   UNL     1      -3.356   9.400  -0.862  0.00  0.00    -0.002 A 
ATOM     28  C   UNL     1      -3.015  10.712  -0.591  0.00  0.00    +0.010 A 
ENDBRANCH  21  27
BRANCH  21  29
ATOM     29  C   UNL     1      -1.405   8.356   0.216  0.00  0.00    -0.002 A 
ATOM     30  C   UNL     1      -0.834   9.275   1.076  0.00  0.00    +0.007 A 
ATOM     31  C   UNL     1       0.540   9.325   1.220  0.00  0.00    +0.001 A 
ATOM     32  C   UNL     1       1.343   8.461   0.498  0.00  0.00    +0.003 A 
ATOM     33  C   UNL     1       0.771   7.546  -0.365  0.00  0.00    -0.050 A 
ATOM     34  C   UNL     1      -0.603   7.493  -0.507  0.00  0.00    +0.010 A 
ATOM     35  C   UNL     1       1.647   6.605  -1.153  0.00  0.00    +0.044 C 
ENDBRANCH  21  29
BRANCH  21  36
ATOM     36  O   UNL     1      -3.278   7.033  -0.487  0.00  0.00    -0.371 OA
ATOM     37  H   UNL     1      -3.030   6.106   0.050  0.00  0.00    +0.212 HD
ENDBRANCH  21  36
ENDBRANCH   1  21
TORSDOF 7
