REMARK  Name = ZINC59817544
REMARK  10 active torsions:
REMARK  status: ('A' for Active; 'I' for Inactive)
REMARK    1  A    between atoms: C_1  and  C_2
REMARK    2  A    between atoms: C_2  and  C_25
REMARK    3  A    between atoms: N_3  and  N_4
REMARK    4  A    between atoms: C_7  and  S_10
REMARK    5  A    between atoms: S_10  and  C_11
REMARK    6  A    between atoms: C_11  and  C_12
REMARK    7  A    between atoms: N_14  and  C_15
REMARK    8  A    between atoms: C_18  and  N_21
REMARK    9  A    between atoms: C_22  and  C_24
REMARK   10  A    between atoms: C_28  and  N_31
REMARK                            x       y       z     vdW  Elec       q    Type
REMARK                         _______ _______ _______ _____ _____    ______ ____
ROOT
ATOM      1  N   UNL     1      -0.001  -0.013   2.288  0.00  0.00    -0.205 N 
ATOM      2  C   UNL     1       0.023  -0.705   3.485  0.00  0.00    +0.232 A 
ATOM      3  N   UNL     1       0.039  -2.014   3.622  0.00  0.00    -0.186 NA
ATOM      4  C   UNL     1       0.061  -2.330   4.921  0.00  0.00    +0.211 A 
ATOM      5  N   UNL     1       0.060  -1.226   5.629  0.00  0.00    -0.144 NA
ATOM      6  N   UNL     1       0.041  -0.157   4.719  0.00  0.00    -0.245 N 
ATOM      7  H   UNL     1      -0.007   0.957   2.289  0.00  0.00    +0.177 HD
ATOM      8  H   UNL     1       0.039   0.789   4.934  0.00  0.00    +0.192 HD
ENDROOT
BRANCH   1  11
ATOM      9  C   UNL     1      -0.049   1.444  -0.048  0.00  0.00    +0.068 C 
ATOM     10  C   UNL     1      -0.041  -0.063  -0.049  0.00  0.00    +0.063 C 
ATOM     11  N   UNL     1      -0.018  -0.713   1.075  0.00  0.00    -0.184 NA
BRANCH  10  12
ATOM     12  C   UNL     1      -0.058  -0.800  -1.326  0.00  0.00    -0.002 A 
ATOM     13  C   UNL     1      -0.077  -0.104  -2.538  0.00  0.00    +0.012 A 
ATOM     14  C   UNL     1      -0.093  -0.800  -3.728  0.00  0.00    +0.033 A 
ATOM     15  C   UNL     1      -0.092  -2.184  -3.725  0.00  0.00    +0.126 A 
ATOM     16  C   UNL     1      -0.074  -2.880  -2.529  0.00  0.00    +0.033 A 
ATOM     17  C   UNL     1      -0.050  -2.197  -1.331  0.00  0.00    +0.012 A 
BRANCH  15  18
ATOM     18  N   UNL     1      -0.110  -2.924  -5.008  0.00  0.00    +0.056 N 
ATOM     19  O   UNL     1      -0.126  -2.319  -6.054  0.00  0.00    -0.126 OA
ATOM     20  O   UNL     1      -0.108  -4.133  -5.008  0.00  0.00    -0.126 OA
ENDBRANCH  15  18
ENDBRANCH  10  12
ENDBRANCH   1  11
BRANCH   4  21
ATOM     21  S   UNL     1       0.087  -3.966   5.577  0.00  0.00    -0.075 S 
BRANCH  21  22
ATOM     22  C   UNL     1       0.111  -3.718   7.374  0.00  0.00    +0.173 C 
BRANCH  22  23
ATOM     23  C   UNL     1       0.134  -5.057   8.065  0.00  0.00    +0.227 C 
ATOM     24  O   UNL     1       0.135  -6.078   7.410  0.00  0.00    -0.275 OA
ATOM     25  N   UNL     1       0.155  -5.120   9.411  0.00  0.00    -0.285 N 
ATOM     26  H   UNL     1       0.222  -4.306   9.934  0.00  0.00    +0.155 HD
BRANCH  25  27
ATOM     27  C   UNL     1       0.079  -6.362  10.055  0.00  0.00    +0.034 A 
ATOM     28  C   UNL     1      -0.605  -6.479  11.258  0.00  0.00    +0.025 A 
ATOM     29  C   UNL     1      -0.680  -7.702  11.893  0.00  0.00    +0.025 A 
ATOM     30  C   UNL     1      -0.071  -8.816  11.329  0.00  0.00    +0.033 A 
ATOM     31  C   UNL     1       0.613  -8.698  10.126  0.00  0.00    +0.025 A 
ATOM     32  C   UNL     1       0.683  -7.476   9.488  0.00  0.00    +0.025 A 
BRANCH  30  33
ATOM     33  N   UNL     1      -0.146 -10.057  11.973  0.00  0.00    -0.286 N 
ATOM     34  C   UNL     1       0.895 -10.911  11.916  0.00  0.00    +0.214 C 
ATOM     35  O   UNL     1       1.864 -10.640  11.239  0.00  0.00    -0.276 OA
ATOM     36  C   UNL     1       0.856 -12.200  12.694  0.00  0.00    +0.109 C 
ATOM     37  H   UNL     1      -0.948 -10.303  12.461  0.00  0.00    +0.155 HD
ENDBRANCH  30  33
ENDBRANCH  25  27
ENDBRANCH  22  23
ENDBRANCH  21  22
ENDBRANCH   4  21
TORSDOF 8
