REMARK  Name = ZINC39327351
REMARK  9 active torsions:
REMARK  status: ('A' for Active; 'I' for Inactive)
REMARK    1  A    between atoms: N_11  and  C_12
REMARK    2  A    between atoms: C_12  and  C_13
REMARK    3  A    between atoms: C_13  and  C_14
REMARK    4  A    between atoms: C_14  and  S_15
REMARK    5  A    between atoms: S_15  and  C_16
REMARK    6  A    between atoms: C_17  and  C_32
REMARK    7  A    between atoms: C_18  and  C_25
REMARK    8  A    between atoms: C_19  and  C_23
REMARK    9  A    between atoms: C_20  and  N_22
REMARK                            x       y       z     vdW  Elec       q    Type
REMARK                         _______ _______ _______ _____ _____    ______ ____
ROOT
ATOM      1  C   UNL     1       9.205   0.317   2.903  0.00  0.00    +0.117 A 
ATOM      2  C   UNL     1      10.007   0.474   4.049  0.00  0.00    +0.093 A 
ATOM      3  C   UNL     1      11.375   0.767   3.889  0.00  0.00    +0.023 A 
ATOM      4  C   UNL     1      11.878   0.890   2.579  0.00  0.00    +0.100 A 
ATOM      5  C   UNL     1      11.000   0.716   1.493  0.00  0.00    +0.136 A 
ATOM      6  N   UNL     1       9.722   0.436   1.689  0.00  0.00    -0.224 NA
ENDROOT
BRANCH   3   7
ATOM      7  C   UNL     1      12.258   0.942   5.063  0.00  0.00    -0.015 A 
ATOM      8  C   UNL     1      12.050   2.004   5.945  0.00  0.00    +0.010 A 
ATOM      9  C   UNL     1      12.877   2.162   7.037  0.00  0.00    +0.020 A 
ATOM     10  C   UNL     1      13.912   1.269   7.261  0.00  0.00    +0.041 A 
ATOM     11  C   UNL     1      14.123   0.213   6.390  0.00  0.00    +0.020 A 
ATOM     12  C   UNL     1      13.300   0.043   5.296  0.00  0.00    +0.010 A 
ATOM     13 CL   UNL     1      14.948   1.474   8.638  0.00  0.00    -0.084 Cl
ENDBRANCH   3   7
BRANCH   5  14
ATOM     14  N   UNL     1      11.481   0.833   0.204  0.00  0.00    -0.342 N 
ATOM     15  H   UNL     1      12.418   1.034   0.052  0.00  0.00    +0.144 HD
ATOM     16  H   UNL     1      10.882   0.714  -0.550  0.00  0.00    +0.144 HD
ENDBRANCH   5  14
BRANCH   4  17
ATOM     17  C   UNL     1      13.261   1.187   2.355  0.00  0.00    +0.103 C 
ATOM     18  N   UNL     1      14.358   1.423   2.178  0.00  0.00    -0.191 NA
ENDBRANCH   4  17
BRANCH   2  19
ATOM     19  C   UNL     1       9.440   0.339   5.357  0.00  0.00    +0.102 C 
ATOM     20  N   UNL     1       8.990   0.232   6.395  0.00  0.00    -0.191 NA
ENDBRANCH   2  19
BRANCH   1  21
ATOM     21  S   UNL     1       7.491  -0.050   3.085  0.00  0.00    -0.105 S 
BRANCH  21  22
ATOM     22  C   UNL     1       6.884  -0.168   1.380  0.00  0.00    +0.077 C 
BRANCH  22  23
ATOM     23  C   UNL     1       5.388  -0.487   1.392  0.00  0.00    +0.033 C 
BRANCH  23  24
ATOM     24  C   UNL     1       4.875  -0.586  -0.046  0.00  0.00    +0.128 C 
BRANCH  24  35
ATOM     25  C   UNL     1      -0.017   1.377   0.010  0.00  0.00    +0.002 A 
ATOM     26  C   UNL     1       1.169   2.091   0.002  0.00  0.00    +0.002 A 
ATOM     27  C   UNL     1       2.381   1.429  -0.013  0.00  0.00    +0.028 A 
ATOM     28  C   UNL     1       2.410   0.043  -0.021  0.00  0.00    +0.070 A 
ATOM     29  C   UNL     1       1.214  -0.678  -0.013  0.00  0.00    +0.067 A 
ATOM     30  C   UNL     1       0.002  -0.004   0.002  0.00  0.00    +0.028 A 
ATOM     31  N   UNL     1       1.557  -2.028  -0.023  0.00  0.00    -0.306 N 
ATOM     32  H   UNL     1       0.934  -2.772  -0.021  0.00  0.00    +0.170 HD
ATOM     33  C   UNL     1       2.900  -2.124  -0.036  0.00  0.00    +0.328 A 
ATOM     34  O   UNL     1       3.528  -3.166  -0.047  0.00  0.00    -0.247 OA
ATOM     35  N   UNL     1       3.443  -0.892  -0.035  0.00  0.00    -0.292 N 
ENDBRANCH  24  35
ENDBRANCH  23  24
ENDBRANCH  22  23
ENDBRANCH  21  22
ENDBRANCH   1  21
TORSDOF 9
