REMARK  Name = ZINC04969797
REMARK  8 active torsions:
REMARK  status: ('A' for Active; 'I' for Inactive)
REMARK    1  A    between atoms: C_1  and  C_2
REMARK    2  A    between atoms: C_4  and  N_26
REMARK    3  A    between atoms: C_8  and  N_11
REMARK    4  A    between atoms: N_11  and  C_12
REMARK    5  A    between atoms: C_12  and  N_14
REMARK    6  A    between atoms: N_14  and  C_15
REMARK    7  A    between atoms: C_20  and  C_25
REMARK    8  A    between atoms: C_22  and  C_24
REMARK                            x       y       z     vdW  Elec       q    Type
REMARK                         _______ _______ _______ _____ _____    ______ ____
ROOT
ATOM      1  C   UNL     1      -3.377   2.377  -7.996  0.00  0.00    +0.044 C 
ATOM      2  C   UNL     1      -2.616   1.081  -8.091  0.00  0.00    -0.038 A 
ATOM      3  C   UNL     1      -2.568   0.382  -9.260  0.00  0.00    +0.045 A 
ATOM      4  C   UNL     1      -1.854  -0.822  -9.326  0.00  0.00    +0.100 A 
ATOM      5  C   UNL     1      -1.230  -0.663  -7.103  0.00  0.00    +0.048 A 
ATOM      6  C   UNL     1      -1.934   0.558  -6.973  0.00  0.00    +0.003 A 
ATOM      7  C   UNL     1      -1.948   1.225  -5.738  0.00  0.00    +0.033 A 
ATOM      8  C   UNL     1      -1.266   0.686  -4.669  0.00  0.00    +0.033 A 
ATOM      9  C   UNL     1      -0.571  -0.521  -4.804  0.00  0.00    +0.025 A 
ATOM     10  C   UNL     1      -0.549  -1.187  -5.990  0.00  0.00    +0.028 A 
ATOM     11  N   UNL     1      -1.181  -1.371  -8.284  0.00  0.00    -0.343 N 
ATOM     12  H   UNL     1      -0.668  -2.257  -8.370  0.00  0.00    +0.167 HD
ENDROOT
BRANCH   4  13
ATOM     13  N   UNL     1      -1.814  -1.522 -10.523  0.00  0.00    -0.312 N 
ATOM     14  C   UNL     1      -3.170  -1.828 -11.000  0.00  0.00    +0.134 C 
ATOM     15  C   UNL     1      -3.081  -2.546 -12.349  0.00  0.00    +0.178 C 
ATOM     16  O   UNL     1      -2.279  -3.721 -12.206  0.00  0.00    -0.377 OA
ATOM     17  C   UNL     1      -0.951  -3.460 -11.744  0.00  0.00    +0.178 C 
ATOM     18  C   UNL     1      -1.019  -2.751 -10.389  0.00  0.00    +0.134 C 
ENDBRANCH   4  13
BRANCH   8  19
ATOM     19  N   UNL     1      -1.272   1.349  -3.436  0.00  0.00    -0.297 N 
ATOM     20  H   UNL     1      -1.381   0.844  -2.615  0.00  0.00    +0.154 HD
BRANCH  19  21
ATOM     21  C   UNL     1      -1.127   2.688  -3.390  0.00  0.00    +0.135 C 
ATOM     22  S   UNL     1      -0.793   3.562  -4.824  0.00  0.00    -0.019 S 
BRANCH  21  23
ATOM     23  N   UNL     1      -1.244   3.338  -2.216  0.00  0.00    -0.323 N 
ATOM     24  H   UNL     1      -1.433   2.843  -1.404  0.00  0.00    +0.148 HD
BRANCH  23  25
ATOM     25  C   UNL     1      -1.086   4.794  -2.166  0.00  0.00    +0.075 C 
ATOM     26  C   UNL     1      -2.420   5.463  -2.503  0.00  0.00    +0.022 C 
ATOM     27  C   UNL     1      -2.255   6.984  -2.450  0.00  0.00    +0.002 C 
ATOM     28  C   UNL     1      -1.815   7.401  -1.046  0.00  0.00    +0.003 C 
ATOM     29  C   UNL     1      -0.481   6.731  -0.709  0.00  0.00    -0.009 C 
ATOM     30  C   UNL     1      -0.646   5.211  -0.761  0.00  0.00    +0.009 C 
ATOM     31  C   UNL     1       0.688   4.542  -0.425  0.00  0.00    +0.009 C 
ATOM     32  C   UNL     1       0.578   7.165  -1.725  0.00  0.00    +0.008 C 
ENDBRANCH  23  25
ENDBRANCH  21  23
ENDBRANCH  19  21
ENDBRANCH   8  19
TORSDOF 5
