REMARK  Name = ZINC62789194
REMARK  4 active torsions:
REMARK  status: ('A' for Active; 'I' for Inactive)
REMARK    1  A    between atoms: C_3  and  C_19
REMARK    2  A    between atoms: C_4  and  O_8
REMARK    3  A    between atoms: O_8  and  C_9
REMARK    4  A    between atoms: C_14  and  N_15
REMARK                            x       y       z     vdW  Elec       q    Type
REMARK                         _______ _______ _______ _____ _____    ______ ____
ROOT
ATOM      1  C   UNL     1      -0.007   1.381  -0.125  0.00  0.00    +0.021 A 
ATOM      2  C   UNL     1       1.163   2.105  -0.048  0.00  0.00    +0.016 A 
ATOM      3  C   UNL     1       2.386   1.442   0.075  0.00  0.00    +0.054 A 
ATOM      4  C   UNL     1       2.414   0.041   0.119  0.00  0.00    +0.140 A 
ATOM      5  C   UNL     1       1.228  -0.673   0.041  0.00  0.00    +0.067 A 
ATOM      6  C   UNL     1       0.024  -0.005  -0.081  0.00  0.00    +0.044 A 
ATOM      7 CL   UNL     1      -1.457  -0.905  -0.179  0.00  0.00    -0.083 Cl
ENDROOT
BRANCH   3   8
ATOM      8  C   UNL     1       3.643   2.212   0.158  0.00  0.00    +0.098 C 
ATOM      9  N   UNL     1       4.621   1.986  -0.718  0.00  0.00    -0.387 N 
ATOM     10  N   UNL     1       3.798   3.133   1.108  0.00  0.00    -0.344 N 
ATOM     11  H   UNL     1       5.474   2.439  -0.620  0.00  0.00    +0.157 HD
ATOM     12  H   UNL     1       3.086   3.297   1.746  0.00  0.00    +0.144 HD
ATOM     13  H   UNL     1       4.624   3.639   1.163  0.00  0.00    +0.144 HD
ATOM     14  H   UNL     1       4.481   1.370  -1.454  0.00  0.00    +0.157 HD
ENDBRANCH   3   8
BRANCH   4  15
ATOM     15  O   UNL     1       3.596  -0.613   0.238  0.00  0.00    -0.453 OA
BRANCH  15  16
ATOM     16  C   UNL     1       4.095  -0.808   1.487  0.00  0.00    +0.160 A 
ATOM     17  C   UNL     1       3.348  -0.442   2.598  0.00  0.00    +0.068 A 
ATOM     18  C   UNL     1       3.857  -0.642   3.868  0.00  0.00    +0.045 A 
ATOM     19  C   UNL     1       5.110  -1.207   4.030  0.00  0.00    +0.022 A 
ATOM     20  C   UNL     1       5.855  -1.572   2.925  0.00  0.00    +0.038 A 
ATOM     21  C   UNL     1       5.348  -1.379   1.654  0.00  0.00    +0.168 A 
ATOM     22 CL   UNL     1       2.925  -0.185   5.258  0.00  0.00    -0.083 Cl
BRANCH  21  23
ATOM     23  N   UNL     1       6.144  -1.776   0.471  0.00  0.00    +0.060 N 
ATOM     24  O   UNL     1       7.274  -2.184   0.611  0.00  0.00    -0.126 OA
ATOM     25  O   UNL     1       5.665  -1.692  -0.636  0.00  0.00    -0.126 OA
ENDBRANCH  21  23
ENDBRANCH  15  16
ENDBRANCH   4  15
TORSDOF 4
