REMARK  Name = ZINC20674707
REMARK  4 active torsions:
REMARK  status: ('A' for Active; 'I' for Inactive)
REMARK    1  A    between atoms: C_1  and  N_2
REMARK    2  A    between atoms: C_4  and  C_7
REMARK    3  A    between atoms: C_8  and  C_9
REMARK    4  A    between atoms: N_11  and  C_12
REMARK                            x       y       z     vdW  Elec       q    Type
REMARK                         _______ _______ _______ _____ _____    ______ ____
ROOT
ATOM      1  C   UNL     1       2.409  -2.734  -0.138  0.00  0.00    +0.241 C 
ATOM      2  O   UNL     1       3.456  -2.112  -0.144  0.00  0.00    -0.270 OA
ATOM      3  N   UNL     1       1.237  -2.079  -0.021  0.00  0.00    -0.282 N 
ATOM      4  H   UNL     1       0.298  -2.644   0.072  0.00  0.00    +0.155 HD
ENDROOT
BRANCH   3   5
ATOM      5  C   UNL     1       1.214  -0.681  -0.019  0.00  0.00    +0.034 A 
ATOM      6  C   UNL     1       2.137   0.032  -0.774  0.00  0.00    +0.024 A 
ATOM      7  C   UNL     1       2.112   1.412  -0.769  0.00  0.00    +0.016 A 
ATOM      8  C   UNL     1       1.170   2.086  -0.013  0.00  0.00    +0.013 A 
ATOM      9  C   UNL     1       0.250   1.379   0.740  0.00  0.00    +0.016 A 
ATOM     10  C   UNL     1       0.269  -0.001   0.739  0.00  0.00    +0.024 A 
ATOM     11  I   UNL     1       1.137   4.181  -0.009  0.00  0.00    -0.044 I 
ENDBRANCH   3   5
BRANCH   1  13
ATOM     12  C   UNL     1       3.599  -4.803  -0.369  0.00  0.00    +0.016 C 
ATOM     13  C   UNL     1       2.424  -4.147  -0.253  0.00  0.00    +0.068 C 
BRANCH  12  17
ATOM     14  C   UNL     1       5.162  -9.524  -0.835  0.00  0.00    +0.172 C 
ATOM     15  N   UNL     1       4.307  -8.342  -0.693  0.00  0.00    -0.274 N 
ATOM     16  C   UNL     1       4.733  -7.070  -0.614  0.00  0.00    +0.116 A 
ATOM     17  C   UNL     1       3.614  -6.268  -0.489  0.00  0.00    +0.013 A 
ATOM     18  C   UNL     1       2.487  -7.122  -0.490  0.00  0.00    +0.142 A 
ATOM     19  N   UNL     1       2.910  -8.349  -0.618  0.00  0.00    -0.179 NA
ENDBRANCH  12  17
ENDBRANCH   1  13
TORSDOF 3
