REMARK  Name = ZINC05174319
REMARK  5 active torsions:
REMARK  status: ('A' for Active; 'I' for Inactive)
REMARK    1  A    between atoms: C_1  and  C_2
REMARK    2  A    between atoms: C_2  and  C_20
REMARK    3  A    between atoms: C_4  and  N_9
REMARK    4  A    between atoms: N_9  and  C_10
REMARK    5  A    between atoms: C_13  and  N_17
REMARK                            x       y       z     vdW  Elec       q    Type
REMARK                         _______ _______ _______ _____ _____    ______ ____
ROOT
ATOM      1  N   UNL     1      -0.884   4.243  -2.346  0.00  0.00    -0.317 N 
ATOM      2  H   UNL     1      -0.297   5.004  -2.473  0.00  0.00    +0.152 HD
ENDROOT
BRANCH   1   6
ATOM      3  C   UNL     1       0.507   0.124  -0.015  0.00  0.00    +0.011 C 
ATOM      4  C   UNL     1       0.232   1.628   0.021  0.00  0.00    -0.023 C 
ATOM      5  C   UNL     1      -0.488   2.049  -1.263  0.00  0.00    +0.057 C 
ATOM      6  C   UNL     1      -0.820   3.516  -1.194  0.00  0.00    +0.012 C 
ATOM      7  C   UNL     1      -1.054   4.125  -0.012  0.00  0.00    +0.065 C 
ATOM      8  C   UNL     1      -0.994   3.428   1.199  0.00  0.00    +0.158 C 
ATOM      9  O   UNL     1      -1.212   4.012   2.242  0.00  0.00    -0.293 OA
ATOM     10  C   UNL     1      -0.659   1.958   1.223  0.00  0.00    +0.085 C 
ATOM     11  C   UNL     1       1.554   2.388   0.140  0.00  0.00    +0.011 C 
ENDBRANCH   1   6
BRANCH   1  12
ATOM     12  C   UNL     1      -1.797   3.890  -3.345  0.00  0.00    +0.045 A 
ATOM     13  C   UNL     1      -2.729   2.887  -3.113  0.00  0.00    +0.026 A 
ATOM     14  C   UNL     1      -3.631   2.544  -4.101  0.00  0.00    +0.034 A 
ATOM     15  C   UNL     1      -3.603   3.191  -5.322  0.00  0.00    +0.127 A 
ATOM     16  C   UNL     1      -2.673   4.188  -5.558  0.00  0.00    +0.049 A 
ATOM     17  C   UNL     1      -1.770   4.539  -4.574  0.00  0.00    +0.041 A 
ATOM     18 BR   UNL     1      -0.498   5.901  -4.898  0.00  0.00    -0.048 Br
BRANCH  15  19
ATOM     19  N   UNL     1      -4.569   2.817  -6.379  0.00  0.00    +0.056 N 
ATOM     20  O   UNL     1      -4.544   3.386  -7.456  0.00  0.00    -0.126 OA
ATOM     21  O   UNL     1      -5.388   1.940  -6.173  0.00  0.00    -0.126 OA
ENDBRANCH  15  19
ENDBRANCH   1  12
TORSDOF 3
