REMARK  Name = ZINC36764332
REMARK  7 active torsions:
REMARK  status: ('A' for Active; 'I' for Inactive)
REMARK    1  A    between atoms: C_1  and  C_2
REMARK    2  A    between atoms: C_3  and  C_9
REMARK    3  A    between atoms: C_4  and  C_8
REMARK    4  A    between atoms: N_5  and  C_7
REMARK    5  A    between atoms: C_9  and  C_11
REMARK    6  A    between atoms: C_9  and  N_19
REMARK    7  A    between atoms: C_13  and  C_16
REMARK                            x       y       z     vdW  Elec       q    Type
REMARK                         _______ _______ _______ _____ _____    ______ ____
ROOT
ATOM      1  C   UNL     1       0.218  -0.346  -2.559  0.00  0.00    +0.032 C 
ENDROOT
BRANCH   1   4
ATOM      2  C   UNL     1      -0.222  -3.359  -1.682  0.00  0.00    +0.068 C 
ATOM      3  C   UNL     1      -0.120  -2.174  -0.756  0.00  0.00    +0.062 A 
ATOM      4  C   UNL     1       0.073  -0.845  -1.144  0.00  0.00    -0.011 A 
ATOM      5  C   UNL     1       0.109  -0.085  -0.025  0.00  0.00    +0.038 A 
ATOM      6  N   UNL     1      -0.057  -0.905   1.034  0.00  0.00    -0.271 N 
ATOM      7  N   UNL     1      -0.203  -2.211   0.549  0.00  0.00    -0.176 NA
ATOM      8  C   UNL     1      -0.083  -0.500   2.442  0.00  0.00    +0.172 C 
ATOM      9  C   UNL     1       0.299   1.409   0.029  0.00  0.00    +0.065 C 
ENDBRANCH   1   4
BRANCH   1  10
ATOM     10  C   UNL     1       1.659   0.004  -2.824  0.00  0.00    +0.162 A 
ATOM     11  N   UNL     1       2.513  -0.720  -3.556  0.00  0.00    -0.197 NA
ATOM     12  C   UNL     1       3.681  -0.140  -3.587  0.00  0.00    +0.230 A 
ATOM     13  O   UNL     1       3.608   0.987  -2.866  0.00  0.00    -0.338 OA
ATOM     14  N   UNL     1       2.275   1.062  -2.382  0.00  0.00    -0.063 NA
BRANCH  12  15
ATOM     15  C   UNL     1       4.902  -0.649  -4.308  0.00  0.00    +0.078 C 
ATOM     16  C   UNL     1       6.226   0.075  -4.054  0.00  0.00    +0.014 C 
ATOM     17  C   UNL     1       5.505   0.246  -5.393  0.00  0.00    +0.014 C 
ENDBRANCH  12  15
ENDBRANCH   1  10
BRANCH   1  18
ATOM     18  N   UNL     1      -0.618   0.848  -2.745  0.00  0.00    +0.388 N 
ATOM     19  H   UNL     1      -0.609   1.117  -3.718  0.00  0.00    -0.089 HD
ATOM     20  H   UNL     1      -1.564   0.644  -2.461  0.00  0.00    -0.089 HD
ATOM     21  H   UNL     1      -0.254   1.604  -2.184  0.00  0.00    -0.089 HD
ENDBRANCH   1  18
TORSDOF 4
