REMARK  Name = ZINC64636563
REMARK  4 active torsions:
REMARK  status: ('A' for Active; 'I' for Inactive)
REMARK    1  A    between atoms: C_6  and  C_11
REMARK    2  A    between atoms: C_11  and  N_12
REMARK    3  A    between atoms: C_15  and  N_18
REMARK    4  A    between atoms: C_20  and  C_23
REMARK                            x       y       z     vdW  Elec       q    Type
REMARK                         _______ _______ _______ _____ _____    ______ ____
ROOT
ATOM      1  N   UNL     1       5.134  -2.712   1.363  0.00  0.00    -0.300 NA
ATOM      2  C   UNL     1       5.498  -1.347   1.766  0.00  0.00    +0.086 C 
ATOM      3  C   UNL     1       7.022  -1.216   1.808  0.00  0.00    +0.039 C 
ATOM      4  C   UNL     1       7.590  -2.231   2.804  0.00  0.00    +0.094 C 
ATOM      5  C   UNL     1       7.156  -3.639   2.388  0.00  0.00    +0.039 C 
ATOM      6  C   UNL     1       5.628  -3.701   2.329  0.00  0.00    +0.086 C 
ENDROOT
BRANCH   4   7
ATOM      7  N   UNL     1       9.052  -2.150   2.806  0.00  0.00    -0.253 N 
ATOM      8  C   UNL     1       9.835  -1.849   3.893  0.00  0.00    +0.119 C 
ATOM      9  C   UNL     1      11.129  -1.869   3.506  0.00  0.00    +0.120 C 
ATOM     10  N   UNL     1      11.157  -2.194   2.132  0.00  0.00    -0.259 N 
ATOM     11  N   UNL     1       9.862  -2.366   1.728  0.00  0.00    -0.160 NA
ATOM     12  H   UNL     1      11.948  -2.282   1.578  0.00  0.00    +0.168 HD
ATOM     13  H   UNL     1       9.720  -3.290   1.349  0.00  0.00    +0.168 HD
BRANCH   9  14
ATOM     14  C   UNL     1      12.289  -1.604   4.355  0.00  0.00    +0.263 C 
ATOM     15  O   UNL     1      12.180  -0.875   5.324  0.00  0.00    -0.269 OA
ATOM     16  N   UNL     1      13.478  -2.168   4.066  0.00  0.00    -0.292 N 
ATOM     17  C   UNL     1      14.686  -1.824   4.833  0.00  0.00    +0.136 C 
ATOM     18  C   UNL     1      15.359  -3.126   5.284  0.00  0.00    +0.179 C 
ATOM     19  O   UNL     1      15.548  -3.975   4.150  0.00  0.00    -0.377 OA
ATOM     20  C   UNL     1      14.333  -4.382   3.515  0.00  0.00    +0.179 C 
ATOM     21  C   UNL     1      13.607  -3.149   2.977  0.00  0.00    +0.136 C 
ENDBRANCH   9  14
ENDBRANCH   4   7
BRANCH   1  22
ATOM     22  C   UNL     1       3.682  -2.837   1.177  0.00  0.00    +0.113 C 
BRANCH  22  28
ATOM     23  C   UNL     1       0.981  -3.944  -3.665  0.00  0.00    +0.001 A 
ATOM     24  C   UNL     1       2.290  -3.862  -4.159  0.00  0.00    +0.002 A 
ATOM     25  C   UNL     1       3.374  -3.860  -3.354  0.00  0.00    +0.026 A 
ATOM     26  C   UNL     1       3.222  -3.943  -1.943  0.00  0.00    +0.043 A 
ATOM     27  N   UNL     1       4.100  -3.959  -0.969  0.00  0.00    -0.377 N 
ATOM     28  C   UNL     1       3.382  -4.059   0.307  0.00  0.00    +0.117 C 
ATOM     29  C   UNL     1       1.912  -4.101  -0.046  0.00  0.00    +0.008 C 
ATOM     30  C   UNL     1       1.849  -4.030  -1.396  0.00  0.00    -0.004 A 
ATOM     31  C   UNL     1       0.725  -4.026  -2.339  0.00  0.00    +0.010 A 
ATOM     32  H   UNL     1       5.063  -3.913  -1.075  0.00  0.00    +0.160 HD
ENDBRANCH  22  28
ENDBRANCH   1  22
TORSDOF 4
