REMARK  Name = ZINC23873258
REMARK  7 active torsions:
REMARK  status: ('A' for Active; 'I' for Inactive)
REMARK    1  A    between atoms: C_1  and  C_2
REMARK    2  A    between atoms: C_2  and  C_3
REMARK    3  A    between atoms: C_2  and  C_4
REMARK    4  A    between atoms: C_4  and  C_6
REMARK    5  A    between atoms: C_4  and  N_17
REMARK    6  A    between atoms: C_18  and  C_20
REMARK    7  A    between atoms: C_20  and  N_21
REMARK                            x       y       z     vdW  Elec       q    Type
REMARK                         _______ _______ _______ _____ _____    ______ ____
ROOT
ATOM      1  N   UNL     1       0.390   1.769   6.907  0.00  0.00    -0.307 N 
ATOM      2  C   UNL     1      -0.001   1.887   5.623  0.00  0.00    +0.231 C 
ATOM      3  O   UNL     1      -1.174   2.045   5.358  0.00  0.00    -0.274 OA
ATOM      4  H   UNL     1       1.454   1.626   7.147  0.00  0.00    +0.149 HD
ENDROOT
BRANCH   1   5
ATOM      5  C   UNL     1      -0.602   1.829   7.983  0.00  0.00    +0.106 C 
BRANCH   5   6
ATOM      6  C   UNL     1      -0.079   1.093   9.190  0.00  0.00    -0.023 A 
ATOM      7  C   UNL     1       1.254   1.204   9.541  0.00  0.00    +0.009 A 
ATOM      8  C   UNL     1       1.739   0.535  10.650  0.00  0.00    +0.050 A 
ATOM      9  C   UNL     1       0.887  -0.255  11.403  0.00  0.00    +0.162 A 
ATOM     10  C   UNL     1      -0.449  -0.371  11.047  0.00  0.00    +0.162 A 
ATOM     11  C   UNL     1      -0.933   0.304   9.939  0.00  0.00    +0.055 A 
ATOM     12  O   UNL     1      -1.281  -1.152  11.796  0.00  0.00    -0.488 OA
ATOM     13  C   UNL     1      -1.036  -2.558  11.740  0.00  0.00    +0.232 C 
ATOM     14  C   UNL     1       0.048  -2.957  12.730  0.00  0.00    +0.082 C 
ATOM     15  C   UNL     1       1.398  -2.348  12.387  0.00  0.00    +0.232 C 
ATOM     16  O   UNL     1       1.354  -0.924  12.497  0.00  0.00    -0.488 OA
ENDBRANCH   5   6
BRANCH   5  18
ATOM     17  C   UNL     1      -1.395   4.038   7.127  0.00  0.00    +0.009 C 
ATOM     18  C   UNL     1      -0.865   3.291   8.352  0.00  0.00    +0.008 C 
ATOM     19  C   UNL     1      -1.901   3.354   9.476  0.00  0.00    +0.009 C 
ENDBRANCH   5  18
ENDBRANCH   1   5
BRANCH   2  20
ATOM     20  C   UNL     1       1.020   1.825   4.515  0.00  0.00    +0.213 C 
BRANCH  20  21
ATOM     21  N   UNL     1       0.347   1.978   3.223  0.00  0.00    -0.215 N 
ATOM     22  C   UNL     1      -0.135   0.952   2.493  0.00  0.00    +0.251 C 
ATOM     23  O   UNL     1      -0.096  -0.228   2.770  0.00  0.00    -0.272 OA
ATOM     24  C   UNL     1      -0.734   1.581   1.255  0.00  0.00    +0.138 C 
ATOM     25  C   UNL     1      -0.013   1.086   0.008  0.00  0.00    +0.040 C 
ATOM     26  C   UNL     1      -0.763   1.598  -1.228  0.00  0.00    +0.008 C 
ATOM     27  C   UNL     1      -2.107   0.877  -1.311  0.00  0.00    +0.035 C 
ATOM     28  C   UNL     1      -2.844   0.972  -0.001  0.00  0.00    -0.042 A 
ATOM     29  C   UNL     1      -2.212   1.293   1.181  0.00  0.00    -0.012 A 
ATOM     30  C   UNL     1      -2.948   1.360   2.357  0.00  0.00    +0.006 A 
ATOM     31  C   UNL     1      -4.305   1.111   2.350  0.00  0.00    +0.000 A 
ATOM     32  C   UNL     1      -4.939   0.790   1.164  0.00  0.00    +0.000 A 
ATOM     33  C   UNL     1      -4.209   0.722  -0.005  0.00  0.00    +0.004 A 
ATOM     34  N   UNL     1      -0.504   3.021   1.442  0.00  0.00    -0.281 N 
ATOM     35  C   UNL     1       0.135   3.155   2.620  0.00  0.00    +0.310 C 
ATOM     36  O   UNL     1       0.480   4.224   3.084  0.00  0.00    -0.252 OA
ATOM     37  H   UNL     1      -0.844   3.736   0.679  0.00  0.00    +0.152 HD
ENDBRANCH  20  21
ENDBRANCH   2  20
TORSDOF 5
