REMARK  Name = ZINC11614909
REMARK  11 active torsions:
REMARK  status: ('A' for Active; 'I' for Inactive)
REMARK    1  A    between atoms: C_1  and  N_51
REMARK    2  A    between atoms: C_2  and  N_51
REMARK    3  A    between atoms: C_3  and  C_4
REMARK    4  A    between atoms: C_3  and  N_51
REMARK    5  A    between atoms: C_4  and  N_5
REMARK    6  A    between atoms: C_6  and  C_23
REMARK    7  A    between atoms: C_8  and  C_13
REMARK    8  A    between atoms: C_9  and  O_12
REMARK    9  A    between atoms: C_13  and  C_15
REMARK   10  A    between atoms: C_20  and  O_21
REMARK   11  A    between atoms: C_26  and  N_29
REMARK                            x       y       z     vdW  Elec       q    Type
REMARK                         _______ _______ _______ _____ _____    ______ ____
ROOT
ATOM      1  N   UNL     1      -3.079   3.460   0.142  0.00  0.00    -0.285 N 
ATOM      2  C   UNL     1      -1.622   3.332   0.022  0.00  0.00    +0.144 C 
ATOM      3  C   UNL     1      -1.323   1.852   0.078  0.00  0.00    +0.071 C 
ATOM      4  C   UNL     1      -2.511   1.218   0.211  0.00  0.00    +0.188 C 
ATOM      5  C   UNL     1      -3.595   2.222   0.255  0.00  0.00    +0.282 C 
ATOM      6  O   UNL     1      -4.777   1.967   0.372  0.00  0.00    -0.267 OA
ENDROOT
BRANCH   2   7
ATOM      7  C   UNL     1      -0.943   4.041   1.165  0.00  0.00    -0.022 A 
ATOM      8  C   UNL     1      -1.442   3.921   2.448  0.00  0.00    +0.008 A 
ATOM      9  C   UNL     1      -0.816   4.567   3.497  0.00  0.00    +0.033 A 
ATOM     10  C   UNL     1       0.303   5.343   3.262  0.00  0.00    +0.126 A 
ATOM     11  C   UNL     1       0.799   5.469   1.978  0.00  0.00    +0.033 A 
ATOM     12  C   UNL     1       0.176   4.818   0.929  0.00  0.00    +0.008 A 
BRANCH  10  13
ATOM     13  N   UNL     1       0.971   6.040   4.384  0.00  0.00    +0.056 N 
ATOM     14  O   UNL     1       1.957   6.723   4.177  0.00  0.00    -0.126 OA
ATOM     15  O   UNL     1       0.534   5.929   5.516  0.00  0.00    -0.126 OA
ENDBRANCH  10  13
ENDBRANCH   2   7
BRANCH   4  16
ATOM     16  O   UNL     1      -2.680  -0.122   0.293  0.00  0.00    -0.502 OA
ATOM     17  H   UNL     1      -3.653  -0.330   0.386  0.00  0.00    +0.292 HD
ENDBRANCH   4  16
BRANCH   3  18
ATOM     18  C   UNL     1      -0.000   1.224  -0.003  0.00  0.00    +0.198 C 
ATOM     19  O   UNL     1       0.448   0.624   0.956  0.00  0.00    -0.287 OA
BRANCH  18  20
ATOM     20  C   UNL     1       0.784   1.313  -1.250  0.00  0.00    +0.065 A 
ATOM     21  C   UNL     1       0.241   1.932  -2.379  0.00  0.00    +0.035 A 
ATOM     22  C   UNL     1       0.979   2.012  -3.541  0.00  0.00    +0.042 A 
ATOM     23  C   UNL     1       2.259   1.482  -3.594  0.00  0.00    +0.023 A 
ATOM     24  C   UNL     1       2.808   0.868  -2.485  0.00  0.00    +0.047 A 
ATOM     25  C   UNL     1       2.081   0.783  -1.306  0.00  0.00    +0.128 A 
ATOM     26 CL   UNL     1       0.303   2.780  -4.943  0.00  0.00    -0.084 Cl
BRANCH  25  27
ATOM     27  O   UNL     1       2.622   0.186  -0.215  0.00  0.00    -0.506 OA
ATOM     28  H   UNL     1       2.449  -0.764  -0.161  0.00  0.00    +0.292 HD
ENDBRANCH  25  27
ENDBRANCH  18  20
ENDBRANCH   3  18
BRANCH   1  29
ATOM     29  C   UNL     1      -3.838   4.713   0.138  0.00  0.00    +0.090 C 
BRANCH  29  30
ATOM     30  C   UNL     1      -4.228   5.069  -1.298  0.00  0.00    -0.060 C 
BRANCH  30  33
ATOM     31  C   UNL     1      -5.176   6.824  -2.671  0.00  0.00    -0.097 C 
ATOM     32  C   UNL     1      -6.279   6.161  -0.620  0.00  0.00    -0.097 C 
ATOM     33  N   UNL     1      -4.973   6.345  -1.287  0.00  0.00    +0.377 N 
ATOM     34  H   UNL     1      -4.430   7.045  -0.768  0.00  0.00    -0.083 HD
ENDBRANCH  30  33
ENDBRANCH  29  30
ENDBRANCH   1  29
TORSDOF 9
