REMARK  Name = ZINC44977781
REMARK  4 active torsions:
REMARK  status: ('A' for Active; 'I' for Inactive)
REMARK    1  A    between atoms: C_1  and  C_2
REMARK    2  A    between atoms: C_7  and  C_10
REMARK    3  A    between atoms: C_12  and  C_15
REMARK    4  A    between atoms: C_20  and  N_21
REMARK                            x       y       z     vdW  Elec       q    Type
REMARK                         _______ _______ _______ _____ _____    ______ ____
ROOT
ATOM      1  C   UNL     1       0.763  -0.583   3.732  0.00  0.00    +0.175 A 
ATOM      2  N   UNL     1       1.349   0.199   4.641  0.00  0.00    -0.191 NA
ATOM      3  C   UNL     1       1.824  -0.533   5.625  0.00  0.00    +0.260 A 
ATOM      4  O   UNL     1       1.544  -1.821   5.356  0.00  0.00    -0.333 OA
ATOM      5  N   UNL     1       0.847  -1.825   4.119  0.00  0.00    -0.061 NA
ENDROOT
BRANCH   1  11
ATOM      6  C   UNL     1       0.241   1.266  -0.121  0.00  0.00    +0.007 C 
ATOM      7  C   UNL     1       0.130  -0.258  -0.030  0.00  0.00    -0.013 C 
ATOM      8  C   UNL     1      -1.346  -0.661  -0.021  0.00  0.00    +0.003 C 
ATOM      9  C   UNL     1      -2.041  -0.026   1.185  0.00  0.00    +0.001 C 
ATOM     10  C   UNL     1      -1.371  -0.510   2.473  0.00  0.00    +0.011 C 
ATOM     11  C   UNL     1       0.104  -0.106   2.463  0.00  0.00    +0.061 C 
ATOM     12  C   UNL     1       0.799  -0.742   1.258  0.00  0.00    +0.014 C 
ENDBRANCH   1  11
BRANCH   3  13
ATOM     13  C   UNL     1       2.538  -0.031   6.814  0.00  0.00    +0.063 A 
ATOM     14  C   UNL     1       2.031   1.055   7.531  0.00  0.00    +0.053 A 
ATOM     15  C   UNL     1       2.704   1.520   8.643  0.00  0.00    +0.124 A 
ATOM     16  C   UNL     1       3.883   0.914   9.051  0.00  0.00    +0.040 A 
ATOM     17  C   UNL     1       4.395  -0.160   8.351  0.00  0.00    +0.026 A 
ATOM     18  C   UNL     1       3.728  -0.644   7.234  0.00  0.00    +0.037 A 
ATOM     19  F   UNL     1       2.212   2.571   9.336  0.00  0.00    -0.205 F 
BRANCH  18  20
ATOM     20  N   UNL     1       4.240  -1.731   6.530  0.00  0.00    -0.357 N 
ATOM     21  H   UNL     1       3.826  -2.009   5.698  0.00  0.00    +0.142 HD
ATOM     22  H   UNL     1       5.010  -2.211   6.873  0.00  0.00    +0.142 HD
ENDBRANCH  18  20
ENDBRANCH   3  13
TORSDOF 3
