REMARK  Name = ZINC22747077
REMARK  9 active torsions:
REMARK  status: ('A' for Active; 'I' for Inactive)
REMARK    1  A    between atoms: C_1  and  C_2
REMARK    2  A    between atoms: C_3  and  C_14
REMARK    3  A    between atoms: N_5  and  C_7
REMARK    4  A    between atoms: N_15  and  N_16
REMARK    5  A    between atoms: C_17  and  C_19
REMARK    6  A    between atoms: C_19  and  C_37
REMARK    7  A    between atoms: C_22  and  C_27
REMARK    8  A    between atoms: C_24  and  C_25
REMARK    9  A    between atoms: C_24  and  C_26
REMARK                            x       y       z     vdW  Elec       q    Type
REMARK                         _______ _______ _______ _____ _____    ______ ____
ROOT
ATOM      1  N   UNL     1      -8.116   1.882  -2.523  0.00  0.00    -0.207 N 
ATOM      2  C   UNL     1      -7.930   2.379  -1.284  0.00  0.00    +0.239 C 
ATOM      3  O   UNL     1      -8.736   2.140  -0.409  0.00  0.00    -0.273 OA
ATOM      4  H   UNL     1      -7.347   2.031  -3.296  0.00  0.00    +0.177 HD
ENDROOT
BRANCH   2   5
ATOM      5  C   UNL     1      -6.723   3.230  -0.987  0.00  0.00    +0.052 C 
ATOM      6  C   UNL     1      -6.800   3.772   0.455  0.00  0.00    +0.017 C 
ATOM      7  C   UNL     1      -5.333   3.741   0.952  0.00  0.00    +0.013 C 
ATOM      8  C   UNL     1      -4.789   2.433   0.327  0.00  0.00    +0.062 C 
ATOM      9  C   UNL     1      -5.444   2.378  -1.068  0.00  0.00    -0.012 C 
ATOM     10  C   UNL     1      -4.494   2.959  -2.117  0.00  0.00    +0.012 C 
ATOM     11  C   UNL     1      -5.799   0.933  -1.425  0.00  0.00    +0.012 C 
ATOM     12  C   UNL     1      -6.643   4.391  -1.980  0.00  0.00    +0.021 C 
BRANCH   8  13
ATOM     13  C   UNL     1      -3.288   2.492   0.203  0.00  0.00    +0.112 A 
ATOM     14  N   UNL     1      -2.565   3.631   0.033  0.00  0.00    -0.342 N 
ATOM     15  H   UNL     1      -3.075   4.604  -0.021  0.00  0.00    +0.167 HD
ATOM     16  C   UNL     1      -1.235   3.267  -0.038  0.00  0.00    +0.066 A 
ATOM     17  C   UNL     1      -0.049   3.966  -0.215  0.00  0.00    +0.028 A 
ATOM     18  C   UNL     1       1.149   3.284  -0.240  0.00  0.00    +0.002 A 
ATOM     19  C   UNL     1       1.176   1.904  -0.089  0.00  0.00    +0.002 A 
ATOM     20  C   UNL     1       0.018   1.200   0.086  0.00  0.00    +0.030 A 
ATOM     21  C   UNL     1      -1.208   1.869   0.108  0.00  0.00    +0.089 A 
ATOM     22  N   UNL     1      -2.495   1.462   0.255  0.00  0.00    -0.232 NA
ENDBRANCH   8  13
ENDBRANCH   2   5
BRANCH   1  24
ATOM     23  C   UNL     1      -9.466   0.698  -4.020  0.00  0.00    +0.143 C 
ATOM     24  N   UNL     1      -9.287   1.176  -2.827  0.00  0.00    -0.188 NA
BRANCH  23  27
ATOM     25  C   UNL     1     -10.188  -0.572  -6.835  0.00  0.00    +0.068 C 
ATOM     26  C   UNL     1     -11.034  -0.615  -5.588  0.00  0.00    +0.070 A 
ATOM     27  C   UNL     1     -10.699  -0.045  -4.340  0.00  0.00    +0.054 A 
ATOM     28  C   UNL     1     -11.744  -0.307  -3.477  0.00  0.00    +0.142 A 
ATOM     29  N   UNL     1     -12.668  -1.010  -4.167  0.00  0.00    -0.221 N 
ATOM     30  N   UNL     1     -12.201  -1.190  -5.473  0.00  0.00    -0.170 NA
ATOM     31 CL   UNL     1     -11.850   0.176  -1.813  0.00  0.00    -0.061 Cl
BRANCH  29  32
ATOM     32  C   UNL     1     -13.888  -1.479  -3.660  0.00  0.00    +0.067 A 
ATOM     33  C   UNL     1     -13.974  -1.912  -2.344  0.00  0.00    +0.028 A 
ATOM     34  C   UNL     1     -15.179  -2.369  -1.846  0.00  0.00    +0.002 A 
ATOM     35  C   UNL     1     -16.296  -2.406  -2.661  0.00  0.00    +0.000 A 
ATOM     36  C   UNL     1     -16.212  -1.980  -3.974  0.00  0.00    +0.002 A 
ATOM     37  C   UNL     1     -15.011  -1.517  -4.476  0.00  0.00    +0.028 A 
ENDBRANCH  29  32
ENDBRANCH  23  27
ENDBRANCH   1  24
TORSDOF 5
