REMARK  Name = ZINC66626724
REMARK  5 active torsions:
REMARK  status: ('A' for Active; 'I' for Inactive)
REMARK    1  A    between atoms: C_3  and  C_11
REMARK    2  A    between atoms: C_5  and  N_7
REMARK    3  A    between atoms: C_11  and  N_12
REMARK    4  A    between atoms: C_13  and  C_15
REMARK    5  A    between atoms: C_17  and  N_25
REMARK                            x       y       z     vdW  Elec       q    Type
REMARK                         _______ _______ _______ _____ _____    ______ ____
ROOT
ATOM      1  N   UNL     1       4.278   2.440   0.892  0.00  0.00    -0.307 N 
ATOM      2  C   UNL     1       5.439   3.121   0.957  0.00  0.00    +0.248 C 
ATOM      3  O   UNL     1       5.965   3.526  -0.063  0.00  0.00    -0.270 OA
ATOM      4  H   UNL     1       3.859   2.117   1.705  0.00  0.00    +0.149 HD
ENDROOT
BRANCH   2   5
ATOM      5  C   UNL     1       6.073   3.376   2.264  0.00  0.00    +0.084 A 
ATOM      6  C   UNL     1       5.475   2.907   3.437  0.00  0.00    +0.049 A 
ATOM      7  C   UNL     1       6.071   3.147   4.656  0.00  0.00    +0.131 A 
ATOM      8  C   UNL     1       7.260   3.852   4.727  0.00  0.00    +0.082 A 
ATOM      9  C   UNL     1       7.866   4.324   3.573  0.00  0.00    +0.165 A 
ATOM     10  C   UNL     1       7.280   4.083   2.335  0.00  0.00    +0.174 A 
ATOM     11  O   UNL     1       7.863   4.526   1.191  0.00  0.00    -0.484 OA
ATOM     12  C   UNL     1       8.862   5.543   1.328  0.00  0.00    +0.270 C 
ATOM     13  C   UNL     1       9.808   5.136   2.466  0.00  0.00    +0.270 C 
ATOM     14  O   UNL     1       9.033   5.018   3.667  0.00  0.00    -0.485 OA
BRANCH   7  15
ATOM     15  N   UNL     1       5.435   2.648   5.897  0.00  0.00    +0.057 N 
ATOM     16  O   UNL     1       4.396   2.033   5.839  0.00  0.00    -0.126 OA
ATOM     17  O   UNL     1       5.955   2.857   6.968  0.00  0.00    -0.126 OA
ENDBRANCH   7  15
ENDBRANCH   2   5
BRANCH   1  18
ATOM     18  C   UNL     1       3.649   2.187  -0.407  0.00  0.00    +0.140 C 
BRANCH  18  21
ATOM     19  C   UNL     1       0.005   1.379   0.170  0.00  0.00    +0.002 A 
ATOM     20  C   UNL     1       1.179   2.086  -0.016  0.00  0.00    +0.005 A 
ATOM     21  C   UNL     1       2.372   1.413  -0.204  0.00  0.00    -0.029 A 
ATOM     22  C   UNL     1       2.395   0.032  -0.206  0.00  0.00    +0.028 A 
ATOM     23  C   UNL     1       1.218  -0.680  -0.019  0.00  0.00    +0.035 A 
ATOM     24  C   UNL     1       0.021  -0.002   0.169  0.00  0.00    +0.023 A 
BRANCH  23  25
ATOM     25  N   UNL     1       1.237  -2.080  -0.021  0.00  0.00    -0.270 N 
ATOM     26  C   UNL     1       2.311  -2.739   0.458  0.00  0.00    +0.301 C 
ATOM     27  O   UNL     1       3.220  -2.123   0.980  0.00  0.00    -0.253 OA
ATOM     28  N   UNL     1       2.376  -4.082   0.358  0.00  0.00    -0.313 N 
ATOM     29  H   UNL     1       0.479  -2.575  -0.367  0.00  0.00    +0.156 HD
ATOM     30  H   UNL     1       1.651  -4.573  -0.058  0.00  0.00    +0.146 HD
ATOM     31  H   UNL     1       3.149  -4.557   0.703  0.00  0.00    +0.146 HD
ENDBRANCH  23  25
ENDBRANCH  18  21
ENDBRANCH   1  18
TORSDOF 5
