REMARK  Name = ZINC54084712
REMARK  7 active torsions:
REMARK  status: ('A' for Active; 'I' for Inactive)
REMARK    1  A    between atoms: C_1  and  C_2
REMARK    2  A    between atoms: C_2  and  C_3
REMARK    3  A    between atoms: C_3  and  C_5
REMARK    4  A    between atoms: C_3  and  N_10
REMARK    5  A    between atoms: N_10  and  C_11
REMARK    6  A    between atoms: C_15  and  C_17
REMARK    7  A    between atoms: N_21  and  C_22
REMARK                            x       y       z     vdW  Elec       q    Type
REMARK                         _______ _______ _______ _____ _____    ______ ____
ROOT
ATOM      1  C   UNL     1      -0.225   1.599   2.433  0.00  0.00    +0.028 A 
ATOM      2  C   UNL     1       0.403   2.595   1.694  0.00  0.00    +0.023 A 
ATOM      3  C   UNL     1       0.531   3.869   2.212  0.00  0.00    +0.002 A 
ATOM      4  C   UNL     1       0.035   4.162   3.467  0.00  0.00    +0.012 A 
ATOM      5  C   UNL     1      -0.597   3.170   4.216  0.00  0.00    +0.022 A 
ATOM      6  C   UNL     1      -0.731   1.885   3.692  0.00  0.00    +0.034 A 
ENDROOT
BRANCH   5   7
ATOM      7  C   UNL     1      -1.129   3.482   5.562  0.00  0.00    +0.182 A 
ATOM      8  N   UNL     1      -2.001   2.769   6.243  0.00  0.00    -0.108 NA
ATOM      9  N   UNL     1      -2.247   3.322   7.376  0.00  0.00    -0.023 NA
ATOM     10  N   UNL     1      -1.565   4.408   7.503  0.00  0.00    -0.044 NA
ATOM     11  N   UNL     1      -0.805   4.552   6.329  0.00  0.00    -0.228 N 
ATOM     12  C   UNL     1       0.132   5.630   6.002  0.00  0.00    +0.176 C 
ENDBRANCH   5   7
BRANCH   1  13
ATOM     13  N   UNL     1      -0.351   0.312   1.906  0.00  0.00    -0.334 N 
ATOM     14  H   UNL     1      -0.713  -0.403   2.453  0.00  0.00    +0.147 HD
BRANCH  13  15
ATOM     15  C   UNL     1       0.063   0.041   0.527  0.00  0.00    +0.136 C 
BRANCH  15  16
ATOM     16  C   UNL     1       1.542  -0.250   0.494  0.00  0.00    +0.125 A 
ATOM     17  C   UNL     1       2.407   0.178  -0.442  0.00  0.00    +0.046 A 
ATOM     18  C   UNL     1       3.679  -0.325  -0.084  0.00  0.00    +0.041 A 
ATOM     19  C   UNL     1       3.515  -1.030   1.050  0.00  0.00    +0.195 A 
ATOM     20  O   UNL     1       2.219  -0.977   1.399  0.00  0.00    -0.466 OA
ENDBRANCH  15  16
BRANCH  15  22
ATOM     21  C   UNL     1      -2.200  -0.838  -0.064  0.00  0.00    +0.006 C 
ATOM     22  C   UNL     1      -0.707  -1.168  -0.009  0.00  0.00    +0.027 C 
ENDBRANCH  15  22
ENDBRANCH  13  15
ENDBRANCH   1  13
TORSDOF 5
