REMARK  Name = ZINC02745395
REMARK  10 active torsions:
REMARK  status: ('A' for Active; 'I' for Inactive)
REMARK    1  A    between atoms: C_1  and  C_2
REMARK    2  A    between atoms: C_9  and  N_17
REMARK    3  A    between atoms: C_10  and  C_11
REMARK    4  A    between atoms: C_11  and  O_13
REMARK    5  A    between atoms: O_13  and  C_14
REMARK    6  A    between atoms: C_14  and  C_15
REMARK    7  A    between atoms: C_14  and  C_16
REMARK    8  A    between atoms: C_18  and  C_20
REMARK    9  A    between atoms: C_22  and  S_28
REMARK   10  A    between atoms: S_28  and  N_31
REMARK                            x       y       z     vdW  Elec       q    Type
REMARK                         _______ _______ _______ _____ _____    ______ ____
ROOT
ATOM      1  N   UNL     1      -2.307  -5.915   0.762  0.00  0.00    -0.275 N 
ATOM      2  C   UNL     1      -3.571  -6.202   0.396  0.00  0.00    +0.250 C 
ATOM      3  O   UNL     1      -4.301  -5.320  -0.014  0.00  0.00    -0.270 OA
ATOM      4  H   UNL     1      -1.725  -6.619   1.089  0.00  0.00    +0.156 HD
ENDROOT
BRANCH   1  12
ATOM      5  C   UNL     1      -0.019   1.526   0.010  0.00  0.00    +0.008 C 
ATOM      6  C   UNL     1       0.002  -0.004   0.002  0.00  0.00    -0.009 C 
ATOM      7  C   UNL     1       0.742  -0.514   1.242  0.00  0.00    +0.008 C 
ATOM      8  C   UNL     1       0.984  -2.020   1.120  0.00  0.00    +0.037 C 
ATOM      9  C   UNL     1      -0.341  -2.706   0.809  0.00  0.00    -0.021 A 
ATOM     10  C   UNL     1      -1.390  -2.006   0.327  0.00  0.00    -0.004 A 
ATOM     11  S   UNL     1      -2.678  -3.203   0.124  0.00  0.00    -0.077 S 
ATOM     12  C   UNL     1      -1.838  -4.615   0.672  0.00  0.00    +0.087 A 
ATOM     13  C   UNL     1      -0.579  -4.127   0.999  0.00  0.00    +0.091 A 
ATOM     14  C   UNL     1      -1.437  -0.538   0.031  0.00  0.00    +0.046 C 
BRANCH  13  15
ATOM     15  C   UNL     1       0.468  -5.011   1.516  0.00  0.00    +0.342 C 
ATOM     16  O   UNL     1       0.575  -5.191   2.714  0.00  0.00    -0.245 OA
BRANCH  15  17
ATOM     17  O   UNL     1       1.314  -5.624   0.663  0.00  0.00    -0.458 OA
BRANCH  17  18
ATOM     18  C   UNL     1       2.327  -6.486   1.246  0.00  0.00    +0.171 C 
ATOM     19  C   UNL     1       2.667  -7.609   0.265  0.00  0.00    +0.052 C 
ATOM     20  C   UNL     1       3.586  -5.667   1.539  0.00  0.00    +0.052 C 
ENDBRANCH  17  18
ENDBRANCH  15  17
ENDBRANCH  13  15
ENDBRANCH   1  12
BRANCH   2  21
ATOM     21  C   UNL     1      -4.071  -7.588   0.492  0.00  0.00    +0.057 A 
ATOM     22  C   UNL     1      -3.234  -8.605   0.957  0.00  0.00    +0.044 A 
ATOM     23  C   UNL     1      -3.708  -9.896   1.049  0.00  0.00    +0.124 A 
ATOM     24  C   UNL     1      -5.009 -10.189   0.672  0.00  0.00    +0.069 A 
ATOM     25  C   UNL     1      -5.843  -9.188   0.205  0.00  0.00    +0.042 A 
ATOM     26  C   UNL     1      -5.382  -7.889   0.113  0.00  0.00    +0.055 A 
ATOM     27 CL   UNL     1      -6.429  -6.634  -0.473  0.00  0.00    -0.083 Cl
ATOM     28 CL   UNL     1      -5.595 -11.819   0.785  0.00  0.00    -0.081 Cl
BRANCH  23  29
ATOM     29  S   UNL     1      -2.655 -11.179   1.641  0.00  0.00    +0.057 S 
ATOM     30  O   UNL     1      -2.756 -12.249   0.711  0.00  0.00    -0.153 OA
ATOM     31  O   UNL     1      -1.414 -10.568   1.967  0.00  0.00    -0.153 OA
BRANCH  29  32
ATOM     32  N   UNL     1      -3.301 -11.725   3.064  0.00  0.00    -0.203 NA
ATOM     33  H   UNL     1      -3.174 -12.649   3.332  0.00  0.00    +0.144 HD
ATOM     34  H   UNL     1      -3.808 -11.122   3.630  0.00  0.00    +0.144 HD
ENDBRANCH  29  32
ENDBRANCH  23  29
ENDBRANCH   2  21
TORSDOF 7
