REMARK  Name = ZINC31811945
REMARK  6 active torsions:
REMARK  status: ('A' for Active; 'I' for Inactive)
REMARK    1  A    between atoms: C_1  and  O_2
REMARK    2  A    between atoms: O_2  and  C_3
REMARK    3  A    between atoms: C_3  and  C_5
REMARK    4  A    between atoms: C_5  and  C_6
REMARK    5  A    between atoms: C_6  and  N_7
REMARK    6  A    between atoms: C_19  and  C_21
REMARK                            x       y       z     vdW  Elec       q    Type
REMARK                         _______ _______ _______ _____ _____    ______ ____
ROOT
ATOM      1  N   UNL     1       2.470  -3.878  -4.240  0.00  0.00    -0.299 N 
ATOM      2  C   UNL     1       1.907  -4.736  -3.366  0.00  0.00    +0.303 C 
ATOM      3  O   UNL     1       1.382  -4.314  -2.353  0.00  0.00    -0.253 OA
ATOM      4  N   UNL     1       1.925  -6.060  -3.615  0.00  0.00    -0.273 N 
ATOM      5  C   UNL     1       1.216  -7.001  -2.735  0.00  0.00    +0.116 C 
ATOM      6  C   UNL     1       0.092  -7.680  -3.528  0.00  0.00    +0.074 C 
ATOM      7  C   UNL     1       0.631  -8.102  -4.870  0.00  0.00    +0.040 A 
ATOM      8  C   UNL     1       1.763  -7.625  -5.431  0.00  0.00    +0.062 A 
ATOM      9  N   UNL     1       1.921  -8.220  -6.615  0.00  0.00    -0.348 N 
ATOM     10  C   UNL     1       0.932  -9.052  -6.812  0.00  0.00    +0.171 A 
ATOM     11  N   UNL     1       0.105  -9.006  -5.742  0.00  0.00    -0.349 N 
ATOM     12  H   UNL     1      -0.708  -9.520  -5.620  0.00  0.00    +0.166 HD
ATOM     13  C   UNL     1       2.652  -6.599  -4.778  0.00  0.00    +0.159 C 
ATOM     14  H   UNL     1       2.952  -4.217  -5.010  0.00  0.00    +0.150 HD
ATOM     15  H   UNL     1       2.654  -8.061  -7.231  0.00  0.00    +0.167 HD
ENDROOT
BRANCH  13  16
ATOM     16  C   UNL     1       3.933  -7.251  -4.326  0.00  0.00    +0.017 A 
ATOM     17  C   UNL     1       4.022  -8.629  -4.259  0.00  0.00    +0.047 A 
ATOM     18  C   UNL     1       5.199  -9.227  -3.844  0.00  0.00    +0.124 A 
ATOM     19  C   UNL     1       6.288  -8.446  -3.496  0.00  0.00    +0.041 A 
ATOM     20  C   UNL     1       6.199  -7.069  -3.562  0.00  0.00    +0.041 A 
ATOM     21  C   UNL     1       5.023  -6.470  -3.982  0.00  0.00    +0.129 A 
ATOM     22  F   UNL     1       4.938  -5.123  -4.052  0.00  0.00    -0.205 F 
ATOM     23  F   UNL     1       5.285 -10.574  -3.779  0.00  0.00    -0.205 F 
ENDBRANCH  13  16
BRANCH   1  24
ATOM     24  C   UNL     1       2.353  -2.433  -4.027  0.00  0.00    +0.117 C 
BRANCH  24  25
ATOM     25  C   UNL     1       3.074  -1.692  -5.154  0.00  0.00    +0.139 C 
BRANCH  25  26
ATOM     26  C   UNL     1       2.954  -0.205  -4.935  0.00  0.00    +0.308 C 
ATOM     27  O   UNL     1       2.354   0.217  -3.976  0.00  0.00    -0.251 OA
BRANCH  26  29
ATOM     28  C   UNL     1       3.362   2.044  -5.535  0.00  0.00    +0.280 C 
ATOM     29  O   UNL     1       3.515   0.649  -5.805  0.00  0.00    -0.468 OA
ENDBRANCH  26  29
ENDBRANCH  25  26
ENDBRANCH  24  25
ENDBRANCH   1  24
TORSDOF 5
