REMARK  Name = ZINC04622443
REMARK  8 active torsions:
REMARK  status: ('A' for Active; 'I' for Inactive)
REMARK    1  A    between atoms: C_1  and  O_2
REMARK    2  A    between atoms: O_2  and  C_3
REMARK    3  A    between atoms: C_3  and  C_5
REMARK    4  A    between atoms: C_5  and  C_6
REMARK    5  A    between atoms: C_5  and  C_22
REMARK    6  A    between atoms: C_5  and  O_26
REMARK    7  A    between atoms: C_7  and  N_21
REMARK    8  A    between atoms: N_8  and  C_15
REMARK                            x       y       z     vdW  Elec       q    Type
REMARK                         _______ _______ _______ _____ _____    ______ ____
ROOT
ATOM      1  C   UNL     1      -0.130   1.521  -0.592  0.00  0.00    +0.106 A 
ATOM      2  C   UNL     1      -0.275   0.162  -0.603  0.00  0.00    +0.115 A 
ATOM      3  N   UNL     1       0.845  -0.637  -0.581  0.00  0.00    -0.277 N 
ATOM      4  C   UNL     1       2.072  -0.086  -0.549  0.00  0.00    +0.166 A 
ATOM      5  S   UNL     1       3.451  -1.101  -0.522  0.00  0.00    -0.012 S 
ATOM      6  N   UNL     1       2.232   1.250  -0.537  0.00  0.00    -0.302 N 
ATOM      7  H   UNL     1       3.153   1.638  -0.512  0.00  0.00    +0.171 HD
ATOM      8  C   UNL     1       1.162   2.069  -0.558  0.00  0.00    +0.261 A 
ATOM      9  O   UNL     1       1.316   3.278  -0.547  0.00  0.00    -0.267 OA
ENDROOT
BRANCH   3  10
ATOM     10  C   UNL     1       0.707  -2.031  -0.593  0.00  0.00    +0.050 A 
ATOM     11  C   UNL     1       0.251  -2.675  -1.735  0.00  0.00    +0.026 A 
ATOM     12  C   UNL     1       0.122  -4.050  -1.746  0.00  0.00    +0.002 A 
ATOM     13  C   UNL     1       0.434  -4.784  -0.616  0.00  0.00    +0.000 A 
ATOM     14  C   UNL     1       0.883  -4.145   0.525  0.00  0.00    +0.002 A 
ATOM     15  C   UNL     1       1.020  -2.770   0.540  0.00  0.00    +0.026 A 
ENDBRANCH   3  10
BRANCH   2  16
ATOM     16  N   UNL     1      -1.526  -0.401  -0.635  0.00  0.00    -0.344 N 
ATOM     17  H   UNL     1      -2.194  -0.062  -1.252  0.00  0.00    +0.144 HD
ATOM     18  H   UNL     1      -1.742  -1.137  -0.042  0.00  0.00    +0.144 HD
ENDBRANCH   2  16
BRANCH   1  19
ATOM     19  C   UNL     1      -1.340   2.419  -0.622  0.00  0.00    +0.291 C 
BRANCH  19  20
ATOM     20  C   UNL     1      -1.336   3.238  -1.914  0.00  0.00    +0.433 C 
ATOM     21  F   UNL     1      -1.369   2.374  -3.014  0.00  0.00    -0.167 F 
ATOM     22  F   UNL     1      -2.459   4.071  -1.942  0.00  0.00    -0.167 F 
ATOM     23  F   UNL     1      -0.175   4.017  -1.968  0.00  0.00    -0.167 F 
ENDBRANCH  19  20
BRANCH  19  24
ATOM     24  C   UNL     1      -1.304   3.349   0.563  0.00  0.00    +0.353 C 
ATOM     25  O   UNL     1      -0.249   3.626   1.082  0.00  0.00    -0.247 OA
BRANCH  24  27
ATOM     26  C   UNL     1      -2.335   4.759   2.185  0.00  0.00    +0.280 C 
ATOM     27  O   UNL     1      -2.445   3.871   1.042  0.00  0.00    -0.465 OA
ENDBRANCH  24  27
ENDBRANCH  19  24
BRANCH  19  28
ATOM     28  O   UNL     1      -2.525   1.622  -0.566  0.00  0.00    -0.367 OA
ATOM     29  H   UNL     1      -2.643   1.149   0.269  0.00  0.00    +0.212 HD
ENDBRANCH  19  28
ENDBRANCH   1  19
TORSDOF 7
