REMARK  Name = ZINC12568608
REMARK  15 active torsions:
REMARK  status: ('A' for Active; 'I' for Inactive)
REMARK    1  A    between atoms: C_1  and  C_2
REMARK    2  A    between atoms: C_2  and  N_3
REMARK    3  A    between atoms: N_3  and  C_4
REMARK    4  A    between atoms: N_3  and  C_6
REMARK    5  A    between atoms: C_4  and  C_5
REMARK    6  A    between atoms: C_9  and  C_12
REMARK    7  A    between atoms: N_14  and  N_15
REMARK    8  A    between atoms: C_16  and  C_18
REMARK    9  A    between atoms: C_18  and  O_19
REMARK   10  A    between atoms: O_19  and  C_20
REMARK   11  A    between atoms: C_20  and  C_22
REMARK   12  A    between atoms: C_22  and  N_23
REMARK   13  A    between atoms: C_28  and  C_35
REMARK   14  A    between atoms: C_31  and  C_33
REMARK   15  A    between atoms: C_31  and  C_34
REMARK                            x       y       z     vdW  Elec       q    Type
REMARK                         _______ _______ _______ _____ _____    ______ ____
ROOT
ATOM      1  C   UNL     1       1.280   1.980   0.001  0.00  0.00    +0.329 C 
ENDROOT
BRANCH   1   3
ATOM      2  N   UNL     1      -1.191   1.867   0.018  0.00  0.00    -0.231 N 
ATOM      3  C   UNL     1      -0.014   1.209   0.009  0.00  0.00    +0.267 C 
ATOM      4  O   UNL     1       0.002  -0.004   0.002  0.00  0.00    -0.271 OA
ATOM      5  H   UNL     1      -1.204   2.837   0.023  0.00  0.00    +0.173 HD
BRANCH   2   8
ATOM      6  C   UNL     1      -3.571   1.808   0.029  0.00  0.00    +0.260 C 
ATOM      7  O   UNL     1      -3.587   3.023   0.035  0.00  0.00    -0.269 OA
ATOM      8  N   UNL     1      -2.394   1.150   0.020  0.00  0.00    -0.230 N 
ATOM      9  H   UNL     1      -2.381   0.180   0.014  0.00  0.00    +0.173 HD
BRANCH   6  13
ATOM     10  C   UNL     1      -7.219  -0.365   0.033  0.00  0.00    +0.030 A 
ATOM     11  C   UNL     1      -7.239   1.027   0.042  0.00  0.00    +0.024 A 
ATOM     12  C   UNL     1      -6.059   1.734   0.040  0.00  0.00    +0.015 A 
ATOM     13  C   UNL     1      -4.838   1.053   0.031  0.00  0.00    +0.038 A 
ATOM     14  C   UNL     1      -4.821  -0.345   0.017  0.00  0.00    +0.015 A 
ATOM     15  C   UNL     1      -6.005  -1.046   0.024  0.00  0.00    +0.024 A 
BRANCH  10  16
ATOM     16  N   UNL     1      -8.413  -1.077   0.035  0.00  0.00    -0.330 N 
BRANCH  16  18
ATOM     17  C   UNL     1      -8.380  -3.060   1.466  0.00  0.00    +0.024 C 
ATOM     18  C   UNL     1      -8.393  -2.542   0.026  0.00  0.00    +0.102 C 
ENDBRANCH  16  18
BRANCH  16  19
ATOM     19  C   UNL     1      -9.692  -0.362   0.046  0.00  0.00    +0.102 C 
ATOM     20  C   UNL     1     -10.144  -0.104  -1.393  0.00  0.00    +0.024 C 
ENDBRANCH  16  19
ENDBRANCH  10  16
ENDBRANCH   6  13
ENDBRANCH   2   8
ENDBRANCH   1   3
BRANCH   1  21
ATOM     21  O   UNL     1       2.397   1.051  -0.015  0.00  0.00    -0.454 OA
BRANCH  21  22
ATOM     22  C   UNL     1       3.630   1.581  -0.024  0.00  0.00    +0.326 C 
ATOM     23  O   UNL     1       3.772   2.781  -0.019  0.00  0.00    -0.249 OA
BRANCH  22  24
ATOM     24  C   UNL     1       4.837   0.680  -0.041  0.00  0.00    +0.238 C 
BRANCH  24  25
ATOM     25  N   UNL     1       6.054   1.494  -0.048  0.00  0.00    -0.213 N 
ATOM     26  C   UNL     1       6.687   1.906  -1.167  0.00  0.00    +0.247 C 
ATOM     27  O   UNL     1       6.432   1.565  -2.302  0.00  0.00    -0.273 OA
ATOM     28  C   UNL     1       7.775   2.842  -0.697  0.00  0.00    +0.113 C 
ATOM     29  C   UNL     1       9.121   2.447  -1.286  0.00  0.00    +0.038 C 
ATOM     30  C   UNL     1       9.175   2.821  -2.768  0.00  0.00    -0.011 C 
ATOM     31  C   UNL     1       9.030   4.336  -2.894  0.00  0.00    +0.009 C 
ATOM     32  C   UNL     1       7.686   4.804  -2.348  0.00  0.00    -0.032 C 
ATOM     33  C   UNL     1       7.421   4.295  -0.941  0.00  0.00    +0.041 C 
ATOM     34  C   UNL     1       6.558   4.385  -3.296  0.00  0.00    +0.011 C 
ATOM     35  C   UNL     1       7.705   6.347  -2.303  0.00  0.00    +0.011 C 
ATOM     36  C   UNL     1      10.524   2.390  -3.350  0.00  0.00    +0.007 C 
ATOM     37  N   UNL     1       7.807   2.602   0.764  0.00  0.00    -0.285 N 
ATOM     38  C   UNL     1       6.692   1.907   1.054  0.00  0.00    +0.310 C 
ATOM     39  O   UNL     1       6.309   1.680   2.184  0.00  0.00    -0.252 OA
ATOM     40  H   UNL     1       8.492   2.904   1.376  0.00  0.00    +0.151 HD
ENDBRANCH  24  25
ENDBRANCH  22  24
ENDBRANCH  21  22
ENDBRANCH   1  21
TORSDOF 10
