REMARK  Name = ZINC04098735
REMARK  15 active torsions:
REMARK  status: ('A' for Active; 'I' for Inactive)
REMARK    1  A    between atoms: C_3  and  O_40
REMARK    2  A    between atoms: C_4  and  O_39
REMARK    3  A    between atoms: C_6  and  C_7
REMARK    4  A    between atoms: C_8  and  C_9
REMARK    5  A    between atoms: C_9  and  O_11
REMARK    6  A    between atoms: O_11  and  C_12
REMARK    7  A    between atoms: C_15  and  C_35
REMARK    8  A    between atoms: C_15  and  O_38
REMARK    9  A    between atoms: C_17  and  O_34
REMARK   10  A    between atoms: C_19  and  O_21
REMARK   11  A    between atoms: O_21  and  C_22
REMARK   12  A    between atoms: C_22  and  C_24
REMARK   13  A    between atoms: C_25  and  C_26
REMARK   14  A    between atoms: C_29  and  O_33
REMARK   15  A    between atoms: C_30  and  O_32
REMARK                            x       y       z     vdW  Elec       q    Type
REMARK                         _______ _______ _______ _____ _____    ______ ____
ROOT
ATOM      1  C   UNL     1      -6.021  -0.968   0.057  0.00  0.00    +0.223 C 
ATOM      2  C   UNL     1      -6.459  -1.245  -1.383  0.00  0.00    +0.095 C 
ATOM      3  C   UNL     1      -7.729  -2.098  -1.375  0.00  0.00    +0.172 C 
ATOM      4  C   UNL     1      -8.842  -1.349  -0.639  0.00  0.00    +0.081 C 
ATOM      5  C   UNL     1      -8.404  -1.072   0.801  0.00  0.00    +0.162 C 
ATOM      6  C   UNL     1      -7.134  -0.219   0.793  0.00  0.00    +0.246 C 
ENDROOT
BRANCH   3   7
ATOM      7  C   UNL     1      -8.160  -2.370  -2.793  0.00  0.00    +0.387 C 
ATOM      8  O   UNL     1      -8.236  -3.518  -3.197  0.00  0.00    -0.243 OA
ATOM      9  O   UNL     1      -8.433  -1.443  -3.536  0.00  0.00    -0.243 OA
ENDBRANCH   3   7
BRANCH   5  10
ATOM     10  O   UNL     1      -8.142  -2.310   1.466  0.00  0.00    -0.388 OA
ATOM     11  H   UNL     1      -8.905  -2.902   1.508  0.00  0.00    +0.210 HD
ENDBRANCH   5  10
BRANCH   3  12
ATOM     12  O   UNL     1      -7.468  -3.335  -0.711  0.00  0.00    -0.377 OA
ATOM     13  H   UNL     1      -8.231  -3.928  -0.668  0.00  0.00    +0.211 HD
ENDBRANCH   3  12
BRANCH   1  14
ATOM     14  O   UNL     1      -4.835  -0.172   0.049  0.00  0.00    -0.454 OA
BRANCH  14  15
ATOM     15  C   UNL     1      -3.656  -0.828   0.034  0.00  0.00    +0.332 C 
ATOM     16  O   UNL     1      -3.638  -2.045   0.027  0.00  0.00    -0.246 OA
BRANCH  15  18
ATOM     17  C   UNL     1      -1.259  -0.758   0.011  0.00  0.00    +0.015 C 
ATOM     18  C   UNL     1      -2.439  -0.101   0.026  0.00  0.00    +0.092 C 
BRANCH  17  24
ATOM     19  C   UNL     1      -0.017   1.395   0.010  0.00  0.00    +0.012 A 
ATOM     20  C   UNL     1       1.167   2.100   0.002  0.00  0.00    +0.050 A 
ATOM     21  C   UNL     1       2.380   1.425  -0.013  0.00  0.00    +0.158 A 
ATOM     22  C   UNL     1       2.408   0.031  -0.021  0.00  0.00    +0.159 A 
ATOM     23  C   UNL     1       1.226  -0.683  -0.014  0.00  0.00    +0.057 A 
ATOM     24  C   UNL     1       0.002  -0.004   0.002  0.00  0.00    -0.021 A 
BRANCH  22  25
ATOM     25  O   UNL     1       3.599  -0.626  -0.037  0.00  0.00    -0.503 OA
ATOM     26  H   UNL     1       3.952  -0.821   0.842  0.00  0.00    +0.292 HD
ENDBRANCH  22  25
BRANCH  21  27
ATOM     27  O   UNL     1       3.544   2.125  -0.020  0.00  0.00    -0.503 OA
ATOM     28  H   UNL     1       3.890   2.323   0.861  0.00  0.00    +0.292 HD
ENDBRANCH  21  27
ENDBRANCH  17  24
ENDBRANCH  15  18
ENDBRANCH  14  15
ENDBRANCH   1  14
BRANCH   6  29
ATOM     29  O   UNL     1      -6.725   0.039   2.138  0.00  0.00    -0.452 OA
BRANCH  29  30
ATOM     30  C   UNL     1      -7.220   1.148   2.726  0.00  0.00    +0.332 C 
ATOM     31  O   UNL     1      -7.978   1.875   2.113  0.00  0.00    -0.246 OA
BRANCH  30  32
ATOM     32  C   UNL     1      -6.856   1.466   4.059  0.00  0.00    +0.092 C 
ATOM     33  C   UNL     1      -7.351   2.576   4.648  0.00  0.00    +0.015 C 
BRANCH  33  34
ATOM     34  C   UNL     1      -6.974   2.905   6.030  0.00  0.00    -0.021 A 
ATOM     35  C   UNL     1      -6.098   2.072   6.736  0.00  0.00    +0.012 A 
ATOM     36  C   UNL     1      -5.746   2.383   8.031  0.00  0.00    +0.050 A 
ATOM     37  C   UNL     1      -6.259   3.521   8.639  0.00  0.00    +0.158 A 
ATOM     38  C   UNL     1      -7.133   4.355   7.943  0.00  0.00    +0.159 A 
ATOM     39  C   UNL     1      -7.486   4.055   6.643  0.00  0.00    +0.057 A 
BRANCH  38  40
ATOM     40  O   UNL     1      -7.633   5.469   8.543  0.00  0.00    -0.503 OA
ATOM     41  H   UNL     1      -7.091   6.260   8.418  0.00  0.00    +0.292 HD
ENDBRANCH  38  40
BRANCH  37  42
ATOM     42  O   UNL     1      -5.909   3.822   9.917  0.00  0.00    -0.503 OA
ATOM     43  H   UNL     1      -5.121   4.378   9.988  0.00  0.00    +0.292 HD
ENDBRANCH  37  42
ENDBRANCH  33  34
ENDBRANCH  30  32
ENDBRANCH  29  30
ENDBRANCH   6  29
TORSDOF 15
