REMARK  Name = ZINC41153707
REMARK  4 active torsions:
REMARK  status: ('A' for Active; 'I' for Inactive)
REMARK    1  A    between atoms: C_1  and  C_2
REMARK    2  A    between atoms: C_5  and  C_8
REMARK    3  A    between atoms: C_5  and  N_21
REMARK    4  A    between atoms: C_10  and  C_13
REMARK                            x       y       z     vdW  Elec       q    Type
REMARK                         _______ _______ _______ _____ _____    ______ ____
ROOT
ATOM      1  C   UNL     1       4.307   0.047  -0.039  0.00  0.00    +0.161 A 
ATOM      2  N   UNL     1       5.259  -0.279   0.838  0.00  0.00    -0.193 NA
ATOM      3  C   UNL     1       6.375   0.351   0.545  0.00  0.00    +0.260 A 
ATOM      4  O   UNL     1       6.152   1.105  -0.545  0.00  0.00    -0.333 OA
ATOM      5  N   UNL     1       4.797   0.884  -0.909  0.00  0.00    -0.062 NA
ENDROOT
BRANCH   3   6
ATOM      6  C   UNL     1       7.651   0.248   1.284  0.00  0.00    +0.056 A 
ATOM      7  C   UNL     1       7.748  -0.582   2.402  0.00  0.00    +0.052 A 
ATOM      8  C   UNL     1       8.943  -0.673   3.088  0.00  0.00    +0.124 A 
ATOM      9  C   UNL     1      10.044   0.056   2.667  0.00  0.00    +0.039 A 
ATOM     10  C   UNL     1       9.954   0.879   1.560  0.00  0.00    +0.019 A 
ATOM     11  C   UNL     1       8.766   0.975   0.863  0.00  0.00    +0.030 A 
ATOM     12 BR   UNL     1       8.647   2.096  -0.656  0.00  0.00    -0.050 Br
ATOM     13  F   UNL     1       9.040  -1.475   4.171  0.00  0.00    -0.205 F 
ENDBRANCH   3   6
BRANCH   1  18
ATOM     14  C   UNL     1      -0.019   1.526   0.010  0.00  0.00    +0.007 C 
ATOM     15  C   UNL     1       0.002  -0.004   0.002  0.00  0.00    -0.014 C 
ATOM     16  C   UNL     1       0.718  -0.497  -1.257  0.00  0.00    +0.002 C 
ATOM     17  C   UNL     1       2.154   0.032  -1.268  0.00  0.00    -0.005 C 
ATOM     18  C   UNL     1       2.894  -0.475  -0.028  0.00  0.00    -0.006 C 
ATOM     19  C   UNL     1       2.178   0.019   1.231  0.00  0.00    -0.005 C 
ATOM     20  C   UNL     1       0.742  -0.511   1.242  0.00  0.00    +0.002 C 
BRANCH  18  21
ATOM     21  N   UNL     1       2.913  -1.944  -0.036  0.00  0.00    +0.387 N 
ATOM     22  H   UNL     1       3.386  -2.269  -0.866  0.00  0.00    -0.089 HD
ATOM     23  H   UNL     1       3.401  -2.278   0.781  0.00  0.00    -0.089 HD
ATOM     24  H   UNL     1       1.967  -2.293  -0.029  0.00  0.00    -0.089 HD
ENDBRANCH  18  21
ENDBRANCH   1  18
TORSDOF 3
