REMARK  Name = ZINC13576967
REMARK  6 active torsions:
REMARK  status: ('A' for Active; 'I' for Inactive)
REMARK    1  A    between atoms: C_1  and  O_2
REMARK    2  A    between atoms: O_2  and  C_3
REMARK    3  A    between atoms: C_8  and  O_9
REMARK    4  A    between atoms: O_9  and  C_10
REMARK    5  A    between atoms: C_13  and  C_21
REMARK    6  A    between atoms: C_14  and  C_19
REMARK                            x       y       z     vdW  Elec       q    Type
REMARK                         _______ _______ _______ _____ _____    ______ ____
ROOT
ATOM      1  C   UNL     1      -0.146   8.276   0.350  0.00  0.00    +0.162 A 
ATOM      2  C   UNL     1      -0.982   7.198   0.612  0.00  0.00    +0.053 A 
ATOM      3  C   UNL     1      -0.491   5.913   0.538  0.00  0.00    -0.033 A 
ATOM      4  C   UNL     1       0.844   5.695   0.188  0.00  0.00    +0.005 A 
ATOM      5  C   UNL     1       1.687   6.777  -0.069  0.00  0.00    +0.059 A 
ATOM      6  C   UNL     1       1.190   8.065   0.013  0.00  0.00    +0.162 A 
ATOM      7  C   UNL     1       1.340   4.308   0.073  0.00  0.00    +0.052 A 
ATOM      8  C   UNL     1       2.695   4.076   0.045  0.00  0.00    +0.036 A 
ATOM      9  C   UNL     1       3.205   2.771  -0.007  0.00  0.00    +0.005 A 
ATOM     10  C   UNL     1       2.309   1.687  -0.005  0.00  0.00    +0.099 A 
ATOM     11  C   UNL     1       0.869   1.969   0.004  0.00  0.00    +0.123 A 
ATOM     12  N   UNL     1       0.435   3.279   0.016  0.00  0.00    -0.326 N 
ATOM     13  C   UNL     1      -1.001   3.554  -0.055  0.00  0.00    +0.128 C 
ATOM     14  C   UNL     1      -1.379   4.734   0.834  0.00  0.00    +0.057 C 
ATOM     15  H   UNL     1       0.213   0.032   0.000  0.00  0.00    +0.157 HD
ATOM     16  N   UNL     1      -0.063   1.014   0.008  0.00  0.00    -0.384 N 
ATOM     17  H   UNL     1      -1.058   1.268   0.019  0.00  0.00    +0.157 HD
ENDROOT
BRANCH   9  18
ATOM     18  C   UNL     1       4.663   2.537  -0.059  0.00  0.00    -0.012 A 
ATOM     19  C   UNL     1       5.260   1.634   0.823  0.00  0.00    +0.058 A 
ATOM     20  C   UNL     1       6.625   1.418   0.772  0.00  0.00    +0.164 A 
ATOM     21  C   UNL     1       7.403   2.099  -0.160  0.00  0.00    +0.176 A 
ATOM     22  C   UNL     1       6.809   2.999  -1.037  0.00  0.00    +0.064 A 
ATOM     23  C   UNL     1       5.448   3.215  -0.994  0.00  0.00    +0.027 A 
ATOM     24 BR   UNL     1       7.871   3.924  -2.299  0.00  0.00    -0.046 Br
ATOM     25  O   UNL     1       8.747   1.895  -0.226  0.00  0.00    -0.484 OA
ATOM     26  C   UNL     1       9.360   1.277   0.911  0.00  0.00    +0.270 C 
ATOM     27  C   UNL     1       8.506   0.070   1.322  0.00  0.00    +0.270 C 
ATOM     28  O   UNL     1       7.193   0.540   1.645  0.00  0.00    -0.485 OA
ENDBRANCH   9  18
BRANCH   1  30
ATOM     29  C   UNL     1      -2.011   9.688   0.773  0.00  0.00    +0.277 C 
ATOM     30  O   UNL     1      -0.633   9.542   0.422  0.00  0.00    -0.491 OA
ENDBRANCH   1  30
BRANCH   6  31
ATOM     31  O   UNL     1       2.004   9.125  -0.236  0.00  0.00    -0.491 OA
ATOM     32  C   UNL     1       3.361   8.835  -0.576  0.00  0.00    +0.277 C 
ENDBRANCH   6  31
BRANCH  10  33
ATOM     33  C   UNL     1       2.791   0.338  -0.016  0.00  0.00    +0.103 C 
ATOM     34  N   UNL     1       3.173  -0.731  -0.024  0.00  0.00    -0.191 NA
ENDBRANCH  10  33
TORSDOF 4
