REMARK  Name = ZINC41638491
REMARK  11 active torsions:
REMARK  status: ('A' for Active; 'I' for Inactive)
REMARK    1  A    between atoms: C_1  and  C_2
REMARK    2  A    between atoms: C_2  and  O_3
REMARK    3  A    between atoms: O_3  and  C_4
REMARK    4  A    between atoms: C_4  and  C_6
REMARK    5  A    between atoms: C_7  and  C_8
REMARK    6  A    between atoms: C_11  and  N_14
REMARK    7  A    between atoms: C_15  and  C_17
REMARK    8  A    between atoms: N_19  and  C_20
REMARK    9  A    between atoms: C_20  and  C_21
REMARK   10  A    between atoms: N_27  and  C_28
REMARK   11  A    between atoms: N_27  and  C_29
REMARK                            x       y       z     vdW  Elec       q    Type
REMARK                         _______ _______ _______ _____ _____    ______ ____
ROOT
ATOM      1  N   UNL     1      -0.618  -7.057  -1.443  0.00  0.00    -0.278 N 
ATOM      2  C   UNL     1      -0.608  -8.389  -1.236  0.00  0.00    +0.303 C 
ATOM      3  O   UNL     1      -0.184  -8.838  -0.191  0.00  0.00    -0.265 OA
ATOM      4  H   UNL     1      -1.042  -6.692  -2.235  0.00  0.00    +0.155 HD
ENDROOT
BRANCH   1   8
ATOM      5  C   UNL     1       1.170  -4.507   1.323  0.00  0.00    -0.025 A 
ATOM      6  C   UNL     1       1.692  -5.788   1.109  0.00  0.00    +0.010 A 
ATOM      7  C   UNL     1       1.098  -6.628   0.195  0.00  0.00    +0.024 A 
ATOM      8  C   UNL     1      -0.020  -6.204  -0.518  0.00  0.00    +0.034 A 
ATOM      9  C   UNL     1      -0.542  -4.931  -0.309  0.00  0.00    +0.024 A 
ATOM     10  C   UNL     1       0.042  -4.087   0.608  0.00  0.00    +0.010 A 
BRANCH   5  12
ATOM     11  C   UNL     1       3.145  -3.471   2.321  0.00  0.00    +0.092 C 
ATOM     12  C   UNL     1       1.801  -3.607   2.298  0.00  0.00    +0.015 C 
BRANCH  11  13
ATOM     13  C   UNL     1       3.926  -3.963   1.244  0.00  0.00    +0.332 C 
ATOM     14  O   UNL     1       3.381  -4.387   0.242  0.00  0.00    -0.246 OA
BRANCH  13  15
ATOM     15  O   UNL     1       5.272  -3.960   1.330  0.00  0.00    -0.462 OA
BRANCH  15  17
ATOM     16  C   UNL     1       7.497  -4.387   0.489  0.00  0.00    +0.048 C 
ATOM     17  C   UNL     1       5.995  -4.470   0.208  0.00  0.00    +0.229 C 
ENDBRANCH  15  17
ENDBRANCH  13  15
ENDBRANCH  11  13
ENDBRANCH   5  12
ENDBRANCH   1   8
BRANCH   2  18
ATOM     18  C   UNL     1      -1.116  -9.312  -2.294  0.00  0.00    +0.300 C 
ATOM     19  O   UNL     1      -1.539  -8.863  -3.340  0.00  0.00    -0.265 OA
ATOM     20  N   UNL     1      -1.106 -10.644  -2.088  0.00  0.00    -0.303 N 
ATOM     21  H   UNL     1      -0.768 -11.003  -1.253  0.00  0.00    +0.149 HD
BRANCH  20  22
ATOM     22  C   UNL     1      -1.605 -11.550  -3.126  0.00  0.00    +0.141 C 
BRANCH  22  23
ATOM     23  C   UNL     1      -1.484 -12.974  -2.649  0.00  0.00    -0.014 A 
ATOM     24  C   UNL     1      -0.326 -13.700  -2.895  0.00  0.00    +0.010 A 
ATOM     25  C   UNL     1      -0.255 -15.005  -2.441  0.00  0.00    +0.042 A 
ATOM     26  C   UNL     1      -1.341 -15.543  -1.758  0.00  0.00    +0.098 A 
ATOM     27  N   UNL     1      -2.428 -14.818  -1.543  0.00  0.00    -0.349 N 
ATOM     28  C   UNL     1      -2.521 -13.569  -1.959  0.00  0.00    +0.089 A 
ATOM     29  N   UNL     1      -1.284 -16.852  -1.296  0.00  0.00    -0.323 N 
ATOM     30  C   UNL     1      -0.040 -17.617  -1.412  0.00  0.00    +0.130 C 
ATOM     31  C   UNL     1      -2.469 -17.469  -0.693  0.00  0.00    +0.130 C 
ATOM     32  H   UNL     1      -3.173 -15.213  -1.064  0.00  0.00    +0.167 HD
ENDBRANCH  22  23
ENDBRANCH  20  22
ENDBRANCH   2  18
TORSDOF 8
