REMARK  Name = ZINC50816385
REMARK  9 active torsions:
REMARK  status: ('A' for Active; 'I' for Inactive)
REMARK    1  A    between atoms: C_1  and  C_2
REMARK    2  A    between atoms: C_2  and  N_3
REMARK    3  A    between atoms: C_4  and  C_6
REMARK    4  A    between atoms: C_6  and  N_7
REMARK    5  A    between atoms: N_7  and  C_8
REMARK    6  A    between atoms: N_7  and  C_9
REMARK    7  A    between atoms: C_9  and  C_10
REMARK    8  A    between atoms: C_14  and  C_20
REMARK    9  A    between atoms: C_15  and  C_19
REMARK                            x       y       z     vdW  Elec       q    Type
REMARK                         _______ _______ _______ _____ _____    ______ ____
ROOT
ATOM      1  C   UNL     1      -5.078  -5.800   0.303  0.00  0.00    +0.116 A 
ATOM      2  N   UNL     1      -5.214  -6.529  -0.790  0.00  0.00    -0.219 NA
ATOM      3  C   UNL     1      -5.219  -7.852  -0.759  0.00  0.00    +0.128 A 
ATOM      4  C   UNL     1      -5.073  -8.516   0.490  0.00  0.00    +0.050 A 
ATOM      5  C   UNL     1      -5.046  -9.937   0.789  0.00  0.00    -0.028 A 
ATOM      6  C   UNL     1      -4.895 -10.337   2.060  0.00  0.00    -0.008 A 
ATOM      7  S   UNL     1      -4.776  -8.806   2.966  0.00  0.00    -0.074 S 
ATOM      8  C   UNL     1      -4.932  -7.671   1.612  0.00  0.00    +0.114 A 
ATOM      9  N   UNL     1      -4.933  -6.358   1.488  0.00  0.00    -0.227 NA
ATOM     10  C   UNL     1      -4.839 -11.744   2.596  0.00  0.00    +0.052 C 
ATOM     11  C   UNL     1      -5.187 -10.952  -0.317  0.00  0.00    +0.045 C 
ATOM     12  N   UNL     1      -5.365  -8.579  -1.926  0.00  0.00    -0.343 N 
ATOM     13  H   UNL     1      -5.780  -8.172  -2.703  0.00  0.00    +0.144 HD
ATOM     14  H   UNL     1      -5.053  -9.497  -1.968  0.00  0.00    +0.144 HD
ENDROOT
BRANCH   1  15
ATOM     15  C   UNL     1      -5.081  -4.297   0.191  0.00  0.00    -0.001 C 
BRANCH  15  16
ATOM     16  N   UNL     1      -3.708  -3.818  -0.017  0.00  0.00    +0.388 N 
ATOM     17  C   UNL     1      -3.212  -4.303  -1.312  0.00  0.00    -0.095 C 
ATOM     18  H   UNL     1      -3.115  -4.166   0.721  0.00  0.00    -0.081 HD
BRANCH  16  19
ATOM     19  C   UNL     1      -3.695  -2.349  -0.007  0.00  0.00    +0.019 C 
BRANCH  19  21
ATOM     20  N   UNL     1      -2.015  -0.537  -0.104  0.00  0.00    -0.317 N 
ATOM     21  C   UNL     1      -2.272  -1.859  -0.097  0.00  0.00    +0.196 C 
ATOM     22  O   UNL     1      -1.360  -2.655  -0.164  0.00  0.00    -0.278 OA
ATOM     23  H   UNL     1      -2.744   0.100  -0.050  0.00  0.00    +0.149 HD
BRANCH  20  25
ATOM     24  C   UNL     1      -0.618   1.470  -0.181  0.00  0.00    +0.024 C 
ATOM     25  C   UNL     1      -0.632  -0.060  -0.192  0.00  0.00    +0.101 C 
ENDBRANCH  20  25
ENDBRANCH  19  21
ENDBRANCH  16  19
ENDBRANCH  15  16
ENDBRANCH   1  15
TORSDOF 5
