REMARK  Name = ZINC40701928
REMARK  5 active torsions:
REMARK  status: ('A' for Active; 'I' for Inactive)
REMARK    1  A    between atoms: C_1  and  C_2
REMARK    2  A    between atoms: C_2  and  N_3
REMARK    3  A    between atoms: N_3  and  C_4
REMARK    4  A    between atoms: C_15  and  N_21
REMARK    5  A    between atoms: C_16  and  N_20
REMARK                            x       y       z     vdW  Elec       q    Type
REMARK                         _______ _______ _______ _____ _____    ______ ____
ROOT
ATOM      1  N   UNL     1      -1.386  -0.517   0.004  0.00  0.00    -0.283 N 
ATOM      2  C   UNL     1      -1.984  -0.860   1.212  0.00  0.00    +0.151 A 
ATOM      3  C   UNL     1      -1.786  -2.125   1.767  0.00  0.00    +0.105 A 
ATOM      4  C   UNL     1      -2.409  -2.417   2.981  0.00  0.00    +0.142 A 
ATOM      5  N   UNL     1      -3.163  -1.485   3.560  0.00  0.00    -0.219 NA
ATOM      6  C   UNL     1      -3.323  -0.302   3.002  0.00  0.00    +0.225 A 
ATOM      7  N   UNL     1      -2.749   0.016   1.860  0.00  0.00    -0.218 NA
ENDROOT
BRANCH   1   8
ATOM      8  C   UNL     1      -2.098  -0.645  -1.187  0.00  0.00    +0.043 A 
ATOM      9  C   UNL     1      -2.059  -1.827  -1.898  0.00  0.00    +0.024 A 
ATOM     10  C   UNL     1      -2.766  -1.965  -3.088  0.00  0.00    +0.002 A 
ATOM     11  C   UNL     1      -3.515  -0.941  -3.584  0.00  0.00    +0.008 A 
ATOM     12  C   UNL     1      -3.582   0.279  -2.890  0.00  0.00    -0.016 A 
ATOM     13  C   UNL     1      -2.871   0.431  -1.674  0.00  0.00    +0.003 A 
ATOM     14  C   UNL     1      -2.943   1.649  -0.980  0.00  0.00    +0.010 A 
ATOM     15  C   UNL     1      -3.699   2.665  -1.480  0.00  0.00    +0.001 A 
ATOM     16  C   UNL     1      -4.403   2.516  -2.673  0.00  0.00    +0.001 A 
ATOM     17  C   UNL     1      -4.347   1.353  -3.379  0.00  0.00    +0.008 A 
ENDBRANCH   1   8
BRANCH   4  18
ATOM     18  N   UNL     1      -2.246  -3.662   3.577  0.00  0.00    -0.342 N 
ATOM     19  H   UNL     1      -1.695  -4.336   3.149  0.00  0.00    +0.144 HD
ATOM     20  H   UNL     1      -2.682  -3.857   4.421  0.00  0.00    +0.144 HD
ENDBRANCH   4  18
BRANCH   3  21
ATOM     21  N   UNL     1      -0.982  -3.078   1.121  0.00  0.00    -0.353 N 
ATOM     22  H   UNL     1      -0.493  -2.837   0.319  0.00  0.00    +0.143 HD
ATOM     23  H   UNL     1      -0.916  -3.978   1.477  0.00  0.00    +0.143 HD
ENDBRANCH   3  21
BRANCH   1  25
ATOM     24  C   UNL     1      -0.015   1.509   0.013  0.00  0.00    +0.025 C 
ATOM     25  C   UNL     1      -0.008  -0.021  -0.017  0.00  0.00    +0.109 C 
ENDBRANCH   1  25
TORSDOF 4
