REMARK  Name = ZINC39405289
REMARK  7 active torsions:
REMARK  status: ('A' for Active; 'I' for Inactive)
REMARK    1  A    between atoms: C_1  and  C_2
REMARK    2  A    between atoms: C_2  and  C_3
REMARK    3  A    between atoms: C_2  and  C_4
REMARK    4  A    between atoms: C_2  and  C_5
REMARK    5  A    between atoms: N_11  and  C_13
REMARK    6  A    between atoms: C_13  and  C_14
REMARK    7  A    between atoms: C_17  and  C_19
REMARK                            x       y       z     vdW  Elec       q    Type
REMARK                         _______ _______ _______ _____ _____    ______ ____
ROOT
ATOM      1  C   UNL     1       0.671  -0.216  -1.357  0.00  0.00    +0.107 C 
ATOM      2  C   UNL     1       0.648  -1.674  -1.735  0.00  0.00    -0.019 C 
ATOM      3  C   UNL     1       1.906  -2.073  -1.847  0.00  0.00    +0.022 C 
ATOM      4  C   UNL     1       2.278  -3.495  -2.217  0.00  0.00    +0.067 C 
ATOM      5  C   UNL     1       1.042  -4.380  -2.011  0.00  0.00    +0.091 C 
ATOM      6  N   UNL     1      -0.118  -3.765  -2.671  0.00  0.00    -0.293 NA
ATOM      7  C   UNL     1      -0.554  -2.554  -1.956  0.00  0.00    +0.118 C 
ATOM      8  N   UNL     1       2.781  -1.038  -1.587  0.00  0.00    -0.284 N 
ATOM      9  N   UNL     1       2.110   0.117  -1.284  0.00  0.00    -0.235 NA
ATOM     10  H   UNL     1       3.747  -1.117  -1.615  0.00  0.00    +0.166 HD
ATOM     11  H   UNL     1       2.343   0.854  -1.933  0.00  0.00    +0.145 HD
ENDROOT
BRANCH   1  13
ATOM     12  C   UNL     1       0.251   1.430   0.475  0.00  0.00    +0.012 C 
ATOM     13  C   UNL     1       0.002  -0.004   0.002  0.00  0.00    -0.017 C 
ATOM     14  C   UNL     1       0.589  -0.985   1.018  0.00  0.00    +0.012 C 
ATOM     15  C   UNL     1      -1.503  -0.244  -0.128  0.00  0.00    +0.012 C 
ENDBRANCH   1  13
BRANCH   6  16
ATOM     16  C   UNL     1      -1.222  -4.727  -2.798  0.00  0.00    +0.127 C 
BRANCH  16  17
ATOM     17  C   UNL     1      -0.819  -5.834  -3.738  0.00  0.00    +0.004 A 
ATOM     18  C   UNL     1      -0.210  -7.012  -3.458  0.00  0.00    +0.013 A 
ATOM     19  C   UNL     1       0.067  -7.886  -4.493  0.00  0.00    +0.014 A 
ATOM     20  C   UNL     1      -0.279  -7.539  -5.756  0.00  0.00    +0.020 A 
ATOM     21  S   UNL     1      -1.026  -5.936  -5.508  0.00  0.00    -0.094 S 
BRANCH  20  22
ATOM     22  C   UNL     1      -0.088  -8.308  -7.038  0.00  0.00    +0.189 C 
ATOM     23  C   UNL     1       1.088  -7.756  -7.825  0.00  0.00    +0.028 C 
ATOM     24  C   UNL     1       0.540  -7.338  -8.969  0.00  0.00    +0.133 C 
ATOM     25  N   UNL     1      -0.792  -7.563  -8.974  0.00  0.00    -0.162 NA
ATOM     26  N   UNL     1      -1.228  -8.098  -7.947  0.00  0.00    -0.175 NA
ENDBRANCH  20  22
ENDBRANCH  16  17
ENDBRANCH   6  16
TORSDOF 4
