REMARK  Name = ZINC60207301
REMARK  10 active torsions:
REMARK  status: ('A' for Active; 'I' for Inactive)
REMARK    1  A    between atoms: C_1  and  C_2
REMARK    2  A    between atoms: C_2  and  C_3
REMARK    3  A    between atoms: C_2  and  N_4
REMARK    4  A    between atoms: C_8  and  C_11
REMARK    5  A    between atoms: C_11  and  N_12
REMARK    6  A    between atoms: C_13  and  C_15
REMARK    7  A    between atoms: C_15  and  C_16
REMARK    8  A    between atoms: C_16  and  C_17
REMARK    9  A    between atoms: C_17  and  N_18
REMARK   10  A    between atoms: N_21  and  C_22
REMARK                            x       y       z     vdW  Elec       q    Type
REMARK                         _______ _______ _______ _____ _____    ______ ____
ROOT
ATOM      1  N   UNL     1       0.892  -0.277   6.078  0.00  0.00    -0.315 N 
ATOM      2  C   UNL     1       0.454   0.066   7.306  0.00  0.00    +0.213 C 
ATOM      3  O   UNL     1      -0.609   0.637   7.433  0.00  0.00    -0.276 OA
ATOM      4  H   UNL     1       1.742  -0.734   5.977  0.00  0.00    +0.149 HD
ENDROOT
BRANCH   1   5
ATOM      5  C   UNL     1       0.086   0.041   4.897  0.00  0.00    +0.106 C 
BRANCH   5  10
ATOM      6  N   UNL     1       0.713  -0.491   1.192  0.00  0.00    +0.381 N 
ATOM      7  C   UNL     1       0.739  -1.958   1.178  0.00  0.00    -0.078 C 
ATOM      8  C   UNL     1       1.548  -2.469   2.373  0.00  0.00    -0.018 C 
ATOM      9  C   UNL     1       0.896  -1.981   3.670  0.00  0.00    +0.001 C 
ATOM     10  C   UNL     1       0.805  -0.452   3.640  0.00  0.00    -0.011 C 
ATOM     11  C   UNL     1       0.025  -0.017   2.399  0.00  0.00    -0.074 C 
ATOM     12  H   UNL     1       1.658  -0.139   1.185  0.00  0.00    -0.081 HD
BRANCH   6  14
ATOM     13  C   UNL     1      -0.019   1.526   0.010  0.00  0.00    -0.014 C 
ATOM     14  C   UNL     1       0.002  -0.004   0.002  0.00  0.00    -0.075 C 
ATOM     15  C   UNL     1       0.718  -0.497  -1.257  0.00  0.00    -0.014 C 
ENDBRANCH   6  14
ENDBRANCH   5  10
ENDBRANCH   1   5
BRANCH   2  16
ATOM     16  C   UNL     1       1.283  -0.261   8.521  0.00  0.00    +0.097 C 
BRANCH  16  17
ATOM     17  C   UNL     1       0.563   0.232   9.777  0.00  0.00    +0.028 C 
BRANCH  17  18
ATOM     18  C   UNL     1       1.405  -0.100  11.011  0.00  0.00    +0.106 C 
BRANCH  18  19
ATOM     19  N   UNL     1       0.716   0.373  12.214  0.00  0.00    -0.299 N 
ATOM     20  C   UNL     1       1.275   0.188  13.427  0.00  0.00    +0.300 C 
ATOM     21  O   UNL     1       2.351  -0.370  13.522  0.00  0.00    -0.253 OA
ATOM     22  N   UNL     1       0.641   0.623  14.534  0.00  0.00    -0.297 N 
ATOM     23  H   UNL     1      -0.142   0.818  12.138  0.00  0.00    +0.150 HD
ATOM     24  H   UNL     1      -0.217   1.068  14.458  0.00  0.00    +0.151 HD
BRANCH  22  25
ATOM     25  C   UNL     1       1.248   0.423  15.852  0.00  0.00    +0.074 C 
ATOM     26  C   UNL     1       0.890  -0.971  16.372  0.00  0.00    +0.022 C 
ATOM     27  C   UNL     1       1.524  -1.180  17.749  0.00  0.00    +0.002 C 
ATOM     28  C   UNL     1       0.996  -0.122  18.720  0.00  0.00    +0.000 C 
ATOM     29  C   UNL     1       1.354   1.271  18.200  0.00  0.00    +0.002 C 
ATOM     30  C   UNL     1       0.720   1.480  16.823  0.00  0.00    +0.022 C 
ENDBRANCH  22  25
ENDBRANCH  18  19
ENDBRANCH  17  18
ENDBRANCH  16  17
ENDBRANCH   2  16
TORSDOF 8
