REMARK  Name = ZINC02548494
REMARK  8 active torsions:
REMARK  status: ('A' for Active; 'I' for Inactive)
REMARK    1  A    between atoms: C_1  and  C_2
REMARK    2  A    between atoms: C_2  and  C_3
REMARK    3  A    between atoms: C_2  and  C_4
REMARK    4  A    between atoms: C_2  and  C_5
REMARK    5  A    between atoms: C_7  and  N_14
REMARK    6  A    between atoms: N_8  and  C_10
REMARK    7  A    between atoms: C_10  and  C_11
REMARK    8  A    between atoms: C_11  and  C_12
REMARK                            x       y       z     vdW  Elec       q    Type
REMARK                         _______ _______ _______ _____ _____    ______ ____
ROOT
ATOM      1  C   UNL     1       0.707  -0.490  -1.238  0.00  0.00    +0.070 A 
ATOM      2  C   UNL     1       2.088  -0.471  -1.454  0.00  0.00    +0.068 A 
ATOM      3  C   UNL     1       2.323  -0.994  -2.689  0.00  0.00    +0.115 A 
ATOM      4  N   UNL     1       1.127  -1.328  -3.226  0.00  0.00    -0.250 N 
ATOM      5  N   UNL     1       0.133  -1.007  -2.293  0.00  0.00    -0.174 NA
ENDROOT
BRANCH   1   7
ATOM      6  C   UNL     1      -0.019   1.526   0.010  0.00  0.00    +0.017 C 
ATOM      7  C   UNL     1       0.002  -0.004   0.002  0.00  0.00    +0.006 C 
ATOM      8  C   UNL     1       0.742  -0.511   1.242  0.00  0.00    +0.017 C 
ATOM      9  C   UNL     1      -1.433  -0.534   0.013  0.00  0.00    +0.017 C 
ENDBRANCH   1   7
BRANCH   3  10
ATOM     10  N   UNL     1       3.568  -1.155  -3.291  0.00  0.00    -0.343 N 
ATOM     11  H   UNL     1       4.372  -0.883  -2.822  0.00  0.00    +0.144 HD
ATOM     12  H   UNL     1       3.631  -1.539  -4.180  0.00  0.00    +0.144 HD
ENDBRANCH   3  10
BRANCH   4  13
ATOM     13  C   UNL     1       0.911  -1.924  -4.546  0.00  0.00    +0.160 C 
BRANCH  13  14
ATOM     14  C   UNL     1       0.944  -3.449  -4.429  0.00  0.00    +0.142 C 
BRANCH  14  15
ATOM     15  C   UNL     1       0.727  -4.048  -5.756  0.00  0.00    +0.064 C 
ATOM     16  N   UNL     1       0.559  -4.511  -6.780  0.00  0.00    -0.197 NA
ENDBRANCH  14  15
ENDBRANCH  13  14
ENDBRANCH   4  13
TORSDOF 5
