REMARK  Name = ZINC25337472
REMARK  5 active torsions:
REMARK  status: ('A' for Active; 'I' for Inactive)
REMARK    1  A    between atoms: C_11  and  C_13
REMARK    2  A    between atoms: C_13  and  N_14
REMARK    3  A    between atoms: N_18  and  C_21
REMARK    4  A    between atoms: C_21  and  C_22
REMARK    5  A    between atoms: C_25  and  C_28
REMARK                            x       y       z     vdW  Elec       q    Type
REMARK                         _______ _______ _______ _____ _____    ______ ____
ROOT
ATOM      1  N   UNL     1       5.861   3.580  -1.114  0.00  0.00    -0.297 NA
ATOM      2  C   UNL     1       5.657   2.831  -2.281  0.00  0.00    +0.083 C 
ATOM      3  C   UNL     1       6.850   1.892  -2.567  0.00  0.00    -0.003 C 
ATOM      4  C   UNL     1       7.992   2.706  -3.119  0.00  0.00    -0.077 C 
ATOM      5  N   UNL     1       8.929   3.171  -2.072  0.00  0.00    +0.383 N 
ATOM      6  C   UNL     1       8.261   3.651  -0.845  0.00  0.00    -0.063 C 
ATOM      7  C   UNL     1       7.036   4.474  -1.156  0.00  0.00    +0.066 C 
ATOM      8  H   UNL     1       9.516   2.291  -1.772  0.00  0.00    -0.081 HD
ENDROOT
BRANCH   1   9
ATOM      9  C   UNL     1       4.647   4.322  -0.747  0.00  0.00    +0.157 C 
BRANCH   9  20
ATOM     10  C   UNL     1      -1.219   1.754   0.017  0.00  0.00    +0.005 A 
ATOM     11  C   UNL     1      -1.237   3.136   0.029  0.00  0.00    +0.040 A 
ATOM     12  C   UNL     1      -0.052   3.849   0.022  0.00  0.00    +0.146 A 
ATOM     13  C   UNL     1       1.163   3.172   0.009  0.00  0.00    +0.095 A 
ATOM     14  C   UNL     1       1.169   1.782   0.001  0.00  0.00    +0.136 A 
ATOM     15  C   UNL     1      -0.013   1.076   0.008  0.00  0.00    +0.031 A 
ATOM     16  S   UNL     1       2.724   0.949  -0.022  0.00  0.00    +0.102 S 
ATOM     17  O   UNL     1       2.995   0.549   1.315  0.00  0.00    -0.146 OA
ATOM     18  O   UNL     1       2.682   0.029  -1.103  0.00  0.00    -0.146 OA
ATOM     19  N   UNL     1       3.849   2.102  -0.416  0.00  0.00    -0.117 NA
ATOM     20  C   UNL     1       3.561   3.351  -0.364  0.00  0.00    +0.136 C 
ATOM     21  N   UNL     1       2.367   3.875   0.006  0.00  0.00    -0.297 N 
ATOM     22  F   UNL     1      -0.075   5.200   0.028  0.00  0.00    -0.203 F 
ATOM     23  H   UNL     1       2.388   4.930   0.318  0.00  0.00    +0.153 HD
ENDBRANCH   9  20
ENDBRANCH   1   9
BRANCH   5  24
ATOM     24  C   UNL     1       9.849   4.187  -2.602  0.00  0.00    -0.041 C 
BRANCH  24  25
ATOM     25  C   UNL     1      10.749   3.559  -3.635  0.00  0.00    -0.046 A 
ATOM     26  C   UNL     1      11.962   3.000  -3.262  0.00  0.00    +0.005 A 
ATOM     27  C   UNL     1      12.756   2.430  -4.246  0.00  0.00    +0.032 A 
ATOM     28  C   UNL     1      12.319   2.446  -5.557  0.00  0.00    +0.144 A 
ATOM     29  N   UNL     1      11.161   2.991  -5.875  0.00  0.00    -0.251 NA
ATOM     30  C   UNL     1      10.378   3.538  -4.965  0.00  0.00    +0.113 A 
BRANCH  28  31
ATOM     31  C   UNL     1      13.175   1.834  -6.635  0.00  0.00    +0.434 C 
ATOM     32  F   UNL     1      12.590   2.067  -7.884  0.00  0.00    -0.164 F 
ATOM     33  F   UNL     1      14.449   2.411  -6.603  0.00  0.00    -0.164 F 
ATOM     34  F   UNL     1      13.282   0.456  -6.420  0.00  0.00    -0.164 F 
ENDBRANCH  28  31
ENDBRANCH  24  25
ENDBRANCH   5  24
TORSDOF 5
