REMARK  Name = ZINC66739661
REMARK  3 active torsions:
REMARK  status: ('A' for Active; 'I' for Inactive)
REMARK    1  A    between atoms: N_17  and  C_18
REMARK    2  A    between atoms: C_18  and  C_19
REMARK    3  A    between atoms: C_19  and  C_20
REMARK                            x       y       z     vdW  Elec       q    Type
REMARK                         _______ _______ _______ _____ _____    ______ ____
ROOT
ATOM      1  C   UNL     1      -0.017   1.381   0.010  0.00  0.00    +0.050 A 
ATOM      2  C   UNL     1       1.167   2.086   0.002  0.00  0.00    +0.024 A 
ATOM      3  C   UNL     1       2.389   1.423  -0.012  0.00  0.00    +0.043 A 
ATOM      4  C   UNL     1       2.402   0.030  -0.020  0.00  0.00    +0.065 A 
ATOM      5  C   UNL     1       1.215  -0.676  -0.013  0.00  0.00    +0.160 A 
ATOM      6  C   UNL     1       0.002  -0.004   0.002  0.00  0.00    +0.159 A 
ATOM      7  F   UNL     1      -1.157  -0.698   0.010  0.00  0.00    -0.202 F 
ATOM      8  F   UNL     1       1.236  -2.027  -0.022  0.00  0.00    -0.202 F 
ATOM      9  N   UNL     1       3.439   2.345  -0.015  0.00  0.00    -0.282 N 
ATOM     10  C   UNL     1       2.997   3.617  -0.004  0.00  0.00    +0.261 C 
ATOM     11  O   UNL     1       3.680   4.619  -0.002  0.00  0.00    -0.271 OA
ATOM     12  C   UNL     1       1.492   3.555   0.006  0.00  0.00    +0.195 C 
ATOM     13  N   UNL     1       0.936   4.226   1.178  0.00  0.00    -0.285 N 
ATOM     14  C   UNL     1      -0.145   4.946   0.810  0.00  0.00    +0.229 C 
ATOM     15  O   UNL     1      -0.833   5.621   1.547  0.00  0.00    -0.274 OA
ATOM     16  C   UNL     1      -0.355   4.771  -0.679  0.00  0.00    +0.183 C 
ATOM     17  N   UNL     1       0.930   4.224  -1.181  0.00  0.00    -0.262 NA
ATOM     18  H   UNL     1       4.377   2.098  -0.024  0.00  0.00    +0.155 HD
ATOM     19  H   UNL     1       1.288   4.163   2.080  0.00  0.00    +0.151 HD
ENDROOT
BRANCH  17  20
ATOM     20  C   UNL     1       0.704   3.263  -2.269  0.00  0.00    +0.088 C 
BRANCH  20  21
ATOM     21  C   UNL     1       0.362   4.019  -3.554  0.00  0.00    +0.019 C 
BRANCH  21  22
ATOM     22  C   UNL     1       0.126   3.018  -4.688  0.00  0.00    -0.010 C 
ATOM     23  C   UNL     1       1.429   2.275  -4.990  0.00  0.00    +0.003 C 
ATOM     24  C   UNL     1       1.194   1.274  -6.123  0.00  0.00    +0.000 C 
ATOM     25  C   UNL     1       0.730   2.021  -7.375  0.00  0.00    +0.000 C 
ATOM     26  C   UNL     1      -0.573   2.764  -7.073  0.00  0.00    +0.000 C 
ATOM     27  C   UNL     1      -0.337   3.765  -5.940  0.00  0.00    +0.003 C 
ENDBRANCH  21  22
ENDBRANCH  20  21
ENDBRANCH  17  20
TORSDOF 3
