REMARK  Name = ZINC09705937
REMARK  8 active torsions:
REMARK  status: ('A' for Active; 'I' for Inactive)
REMARK    1  A    between atoms: C_1  and  C_2
REMARK    2  A    between atoms: C_6  and  N_8
REMARK    3  A    between atoms: C_9  and  C_11
REMARK    4  A    between atoms: C_12  and  N_20
REMARK    5  A    between atoms: C_21  and  C_23
REMARK    6  A    between atoms: N_25  and  C_26
REMARK    7  A    between atoms: C_26  and  C_27
REMARK    8  A    between atoms: C_27  and  C_28
REMARK                            x       y       z     vdW  Elec       q    Type
REMARK                         _______ _______ _______ _____ _____    ______ ____
ROOT
ATOM      1  C   UNL     1       1.098   7.396   0.593  0.00  0.00    +0.212 A 
ATOM      2  C   UNL     1       2.161   8.193   0.266  0.00  0.00    +0.093 A 
ATOM      3  C   UNL     1       1.609   9.540   0.073  0.00  0.00    +0.042 A 
ATOM      4  C   UNL     1       2.161  10.775  -0.267  0.00  0.00    +0.013 A 
ATOM      5  C   UNL     1       1.353  11.873  -0.370  0.00  0.00    +0.001 A 
ATOM      6  C   UNL     1      -0.011  11.766  -0.139  0.00  0.00    +0.004 A 
ATOM      7  C   UNL     1      -0.574  10.554   0.199  0.00  0.00    +0.047 A 
ATOM      8  C   UNL     1       0.228   9.424   0.309  0.00  0.00    +0.138 A 
ATOM      9  O   UNL     1      -0.033   8.136   0.608  0.00  0.00    -0.448 OA
ENDROOT
BRANCH   1  11
ATOM     10  N   UNL     1       0.079   5.304   1.306  0.00  0.00    -0.279 N 
ATOM     11  C   UNL     1       1.173   5.964   0.877  0.00  0.00    +0.285 C 
ATOM     12  O   UNL     1       2.224   5.367   0.725  0.00  0.00    -0.266 OA
ATOM     13  H   UNL     1      -0.776   5.760   1.351  0.00  0.00    +0.155 HD
BRANCH  10  19
ATOM     14  C   UNL     1       2.676   1.663   3.348  0.00  0.00    +0.044 C 
ATOM     15  C   UNL     1       1.424   2.170   2.678  0.00  0.00    -0.049 A 
ATOM     16  C   UNL     1       0.370   1.306   2.440  0.00  0.00    +0.003 A 
ATOM     17  C   UNL     1      -0.782   1.769   1.831  0.00  0.00    +0.002 A 
ATOM     18  C   UNL     1      -0.882   3.094   1.454  0.00  0.00    +0.023 A 
ATOM     19  C   UNL     1       0.177   3.962   1.687  0.00  0.00    +0.034 A 
ATOM     20  C   UNL     1       1.333   3.494   2.299  0.00  0.00    +0.026 A 
ENDBRANCH  10  19
ENDBRANCH   1  11
BRANCH   2  21
ATOM     21  N   UNL     1       3.489   7.807   0.141  0.00  0.00    -0.274 N 
ATOM     22  C   UNL     1       4.474   8.700   0.361  0.00  0.00    +0.303 C 
ATOM     23  O   UNL     1       4.203   9.821   0.740  0.00  0.00    -0.265 OA
ATOM     24  H   UNL     1       3.708   6.895  -0.106  0.00  0.00    +0.155 HD
BRANCH  22  25
ATOM     25  C   UNL     1       5.899   8.311   0.141  0.00  0.00    +0.299 C 
ATOM     26  O   UNL     1       6.170   7.190  -0.237  0.00  0.00    -0.265 OA
ATOM     27  N   UNL     1       6.883   9.204   0.362  0.00  0.00    -0.307 N 
ATOM     28  H   UNL     1       6.667  10.100   0.664  0.00  0.00    +0.149 HD
BRANCH  27  29
ATOM     29  C   UNL     1       8.281   8.821   0.146  0.00  0.00    +0.109 C 
BRANCH  29  30
ATOM     30  C   UNL     1       9.190  10.009   0.467  0.00  0.00    +0.049 C 
BRANCH  30  31
ATOM     31  C   UNL     1      10.628   9.616   0.244  0.00  0.00    -0.072 C 
ATOM     32  C   UNL     1      11.164   9.896  -0.900  0.00  0.00    -0.028 C 
ATOM     33  C   UNL     1      12.578   9.560  -1.271  0.00  0.00    +0.027 C 
ATOM     34  C   UNL     1      13.393   9.248  -0.014  0.00  0.00    +0.004 C 
ATOM     35  C   UNL     1      12.610   8.237   0.834  0.00  0.00    +0.005 C 
ATOM     36  C   UNL     1      11.351   8.929   1.366  0.00  0.00    +0.030 C 
ENDBRANCH  30  31
ENDBRANCH  29  30
ENDBRANCH  27  29
ENDBRANCH  22  25
ENDBRANCH   2  21
TORSDOF 7
