REMARK  Name = ZINC00708291
REMARK  6 active torsions:
REMARK  status: ('A' for Active; 'I' for Inactive)
REMARK    1  A    between atoms: C_1  and  O_2
REMARK    2  A    between atoms: O_2  and  C_3
REMARK    3  A    between atoms: C_8  and  C_9
REMARK    4  A    between atoms: C_11  and  C_21
REMARK    5  A    between atoms: C_16  and  N_20
REMARK    6  A    between atoms: C_17  and  C_18
REMARK                            x       y       z     vdW  Elec       q    Type
REMARK                         _______ _______ _______ _____ _____    ______ ____
ROOT
ATOM      1  C   UNL     1       0.019  -2.829  -0.014  0.00  0.00    +0.089 C 
ATOM      2  C   UNL     1       0.056  -3.650  -1.296  0.00  0.00    +0.159 C 
ATOM      3  C   UNL     1      -1.029  -4.712  -1.229  0.00  0.00    +0.089 C 
ATOM      4  N   UNL     1      -2.021  -4.734  -2.058  0.00  0.00    -0.296 NA
ATOM      5  S   UNL     1      -0.849  -5.918   0.059  0.00  0.00    -0.058 S 
ATOM      6  C   UNL     1      -0.273  -4.927   1.403  0.00  0.00    +0.079 C 
ATOM      7  C   UNL     1       0.080  -3.644   1.228  0.00  0.00    +0.066 C 
ATOM      8  H   UNL     1      -2.696  -5.427  -1.987  0.00  0.00    +0.187 HD
ENDROOT
BRANCH   1  14
ATOM      9  C   UNL     1      -1.200  -0.637   0.010  0.00  0.00    +0.124 A 
ATOM     10  C   UNL     1      -2.375   0.101   0.019  0.00  0.00    +0.047 A 
ATOM     11  C   UNL     1      -3.596  -0.544   0.028  0.00  0.00    +0.019 A 
ATOM     12  C   UNL     1      -3.648  -1.927   0.027  0.00  0.00    +0.018 A 
ATOM     13  C   UNL     1      -2.479  -2.666   0.018  0.00  0.00    +0.023 A 
ATOM     14  C   UNL     1      -1.255  -2.023   0.003  0.00  0.00    +0.005 A 
ATOM     15 BR   UNL     1      -5.321  -2.808   0.038  0.00  0.00    -0.050 Br
BRANCH   9  17
ATOM     16  C   UNL     1      -0.017   1.425   0.010  0.00  0.00    +0.277 C 
ATOM     17  O   UNL     1       0.002  -0.004   0.002  0.00  0.00    -0.495 OA
ENDBRANCH   9  17
ENDBRANCH   1  14
BRANCH   6  18
ATOM     18  N   UNL     1      -0.186  -5.484   2.656  0.00  0.00    -0.352 N 
ATOM     19  H   UNL     1      -0.439  -6.410   2.795  0.00  0.00    +0.143 HD
ATOM     20  H   UNL     1       0.129  -4.950   3.403  0.00  0.00    +0.143 HD
ENDBRANCH   6  18
BRANCH   7  21
ATOM     21  C   UNL     1       0.581  -2.974   2.391  0.00  0.00    +0.098 C 
ATOM     22  N   UNL     1       0.978  -2.444   3.313  0.00  0.00    -0.191 NA
ENDBRANCH   7  21
BRANCH   2  23
ATOM     23  C   UNL     1       1.373  -4.294  -1.431  0.00  0.00    +0.074 C 
ATOM     24  N   UNL     1       2.389  -4.790  -1.536  0.00  0.00    -0.196 NA
ENDBRANCH   2  23
TORSDOF 5
