REMARK  Name = ZINC65819057
REMARK  7 active torsions:
REMARK  status: ('A' for Active; 'I' for Inactive)
REMARK    1  A    between atoms: C_1  and  C_2
REMARK    2  A    between atoms: C_4  and  N_11
REMARK    3  A    between atoms: C_5  and  O_9
REMARK    4  A    between atoms: O_9  and  C_10
REMARK    5  A    between atoms: N_14  and  C_15
REMARK    6  A    between atoms: N_14  and  C_16
REMARK    7  A    between atoms: C_16  and  C_17
REMARK                            x       y       z     vdW  Elec       q    Type
REMARK                         _______ _______ _______ _____ _____    ______ ____
ROOT
ATOM      1  N   UNL     1       0.028  -2.768  -2.427  0.00  0.00    -0.266 N 
ATOM      2  C   UNL     1      -0.089  -2.093  -3.588  0.00  0.00    +0.306 C 
ATOM      3  O   UNL     1      -0.106  -0.877  -3.586  0.00  0.00    -0.252 OA
ATOM      4  N   UNL     1      -0.187  -2.766  -4.752  0.00  0.00    -0.286 N 
ATOM      5  C   UNL     1      -0.167  -4.231  -4.755  0.00  0.00    +0.133 C 
ATOM      6  H   UNL     1       0.124  -3.733  -2.435  0.00  0.00    +0.156 HD
ENDROOT
BRANCH   1  10
ATOM      7  C   UNL     1      -1.308   1.184   0.177  0.00  0.00    +0.045 C 
ATOM      8  C   UNL     1      -0.629  -0.158   0.083  0.00  0.00    -0.030 A 
ATOM      9  C   UNL     1      -0.613  -0.840  -1.120  0.00  0.00    +0.031 A 
ATOM     10  C   UNL     1       0.012  -2.075  -1.209  0.00  0.00    +0.077 A 
ATOM     11  C   UNL     1       0.623  -2.625  -0.084  0.00  0.00    +0.143 A 
ATOM     12  C   UNL     1       0.603  -1.937   1.117  0.00  0.00    +0.067 A 
ATOM     13  C   UNL     1      -0.017  -0.702   1.198  0.00  0.00    +0.047 A 
ATOM     14 CL   UNL     1      -0.034   0.162   2.703  0.00  0.00    -0.083 Cl
BRANCH  11  15
ATOM     15  O   UNL     1       1.236  -3.836  -0.166  0.00  0.00    -0.493 OA
ATOM     16  C   UNL     1       1.842  -4.338   1.027  0.00  0.00    +0.277 C 
ENDBRANCH  11  15
ENDBRANCH   1  10
BRANCH   4  17
ATOM     17  C   UNL     1      -0.315  -2.033  -6.013  0.00  0.00    +0.140 C 
BRANCH  17  18
ATOM     18  C   UNL     1       1.077  -1.757  -6.586  0.00  0.00    +0.136 C 
ATOM     19  C   UNL     1       0.968  -0.919  -7.885  0.00  0.00    +0.035 C 
ATOM     20  C   UNL     1       2.363  -0.236  -7.913  0.00  0.00    +0.031 C 
ATOM     21  C   UNL     1       2.653  -0.023  -6.412  0.00  0.00    +0.160 C 
ATOM     22  O   UNL     1       1.837  -0.944  -5.678  0.00  0.00    -0.375 OA
ENDBRANCH  17  18
ENDBRANCH   4  17
TORSDOF 4
