REMARK  Name = ZINC11661282
REMARK  7 active torsions:
REMARK  status: ('A' for Active; 'I' for Inactive)
REMARK    1  A    between atoms: C_6  and  C_7
REMARK    2  A    between atoms: C_7  and  N_53
REMARK    3  A    between atoms: C_13  and  C_15
REMARK    4  A    between atoms: C_15  and  C_16
REMARK    5  A    between atoms: C_23  and  C_24
REMARK    6  A    between atoms: C_23  and  N_55
REMARK    7  A    between atoms: C_24  and  O_25
REMARK                            x       y       z     vdW  Elec       q    Type
REMARK                         _______ _______ _______ _____ _____    ______ ____
ROOT
ATOM      1  C   UNL     1       6.447   0.467  -0.260  0.00  0.00    -0.058 C 
ATOM      2  C   UNL     1       5.173   1.203   0.157  0.00  0.00    +0.085 C 
ATOM      3  N   UNL     1       4.021   0.648  -0.547  0.00  0.00    -0.318 N 
ATOM      4  C   UNL     1       4.038  -0.552  -1.136  0.00  0.00    +0.200 C 
ATOM      5  O   UNL     1       3.026  -0.950  -1.674  0.00  0.00    -0.278 OA
ATOM      6  C   UNL     1       5.258  -1.429  -1.160  0.00  0.00    +0.028 C 
ATOM      7  H   UNL     1       3.206   1.174  -0.590  0.00  0.00    +0.149 HD
ATOM      8  N   UNL     1       6.204  -0.983  -0.120  0.00  0.00    +0.391 N 
ATOM      9  H   UNL     1       5.798  -1.167   0.805  0.00  0.00    -0.080 HD
ENDROOT
BRANCH   8  10
ATOM     10  C   UNL     1       7.479  -1.726  -0.243  0.00  0.00    -0.042 C 
BRANCH  10  16
ATOM     11  C   UNL     1       9.207  -0.411   1.002  0.00  0.00    +0.005 A 
ATOM     12  C   UNL     1       9.975  -0.171   2.126  0.00  0.00    +0.041 A 
ATOM     13  C   UNL     1       9.852  -0.990   3.235  0.00  0.00    +0.158 A 
ATOM     14  C   UNL     1       8.958  -2.050   3.217  0.00  0.00    +0.159 A 
ATOM     15  C   UNL     1       8.191  -2.287   2.090  0.00  0.00    +0.043 A 
ATOM     16  C   UNL     1       8.316  -1.467   0.984  0.00  0.00    -0.061 A 
ATOM     17  F   UNL     1       8.836  -2.849   4.299  0.00  0.00    -0.202 F 
ATOM     18  F   UNL     1      10.598  -0.753   4.336  0.00  0.00    -0.202 F 
ENDBRANCH  10  16
ENDBRANCH   8  10
BRANCH   6  19
ATOM     19  C   UNL     1       4.850  -2.875  -0.875  0.00  0.00    +0.090 C 
BRANCH  19  20
ATOM     20  C   UNL     1       4.274  -2.970   0.515  0.00  0.00    +0.214 C 
ATOM     21  O   UNL     1       4.136  -1.968   1.183  0.00  0.00    -0.276 OA
ATOM     22  N   UNL     1       3.913  -4.168   1.014  0.00  0.00    -0.305 N 
ATOM     23  C   UNL     1       4.067  -5.396   0.218  0.00  0.00    +0.089 C 
ATOM     24  C   UNL     1       4.823  -6.429   1.067  0.00  0.00    -0.059 C 
ATOM     25  C   UNL     1       4.128  -5.360   3.130  0.00  0.00    -0.059 C 
ATOM     26  C   UNL     1       3.349  -4.283   2.368  0.00  0.00    +0.089 C 
ATOM     27  N   UNL     1       4.099  -6.613   2.344  0.00  0.00    +0.383 N 
ATOM     28  H   UNL     1       3.123  -6.856   2.141  0.00  0.00    -0.082 HD
BRANCH  27  29
ATOM     29  C   UNL     1       4.715  -7.709   3.120  0.00  0.00    -0.051 C 
BRANCH  29  30
ATOM     30  C   UNL     1       6.238  -7.564   3.139  0.00  0.00    +0.137 C 
BRANCH  30  31
ATOM     31  O   UNL     1       6.597  -6.397   3.881  0.00  0.00    -0.397 OA
ATOM     32  H   UNL     1       7.550  -6.242   3.935  0.00  0.00    +0.209 HD
ENDBRANCH  30  31
ENDBRANCH  29  30
ENDBRANCH  27  29
ENDBRANCH  19  20
ENDBRANCH   6  19
TORSDOF 7
