REMARK  Name = ZINC51633753
REMARK  6 active torsions:
REMARK  status: ('A' for Active; 'I' for Inactive)
REMARK    1  A    between atoms: C_1  and  C_2
REMARK    2  A    between atoms: C_2  and  C_3
REMARK    3  A    between atoms: C_2  and  C_4
REMARK    4  A    between atoms: C_2  and  C_8
REMARK    5  A    between atoms: N_5  and  O_6
REMARK    6  A    between atoms: N_10  and  C_11
REMARK                            x       y       z     vdW  Elec       q    Type
REMARK                         _______ _______ _______ _____ _____    ______ ____
ROOT
ATOM      1  C   UNL     1       0.707  -0.490  -1.238  0.00  0.00    +0.226 C 
ATOM      2  O   UNL     1       0.120  -1.191  -2.034  0.00  0.00    -0.275 OA
ATOM      3  N   UNL     1       1.991  -0.146  -1.462  0.00  0.00    -0.311 N 
ATOM      4  H   UNL     1       2.461   0.415  -0.825  0.00  0.00    +0.149 HD
ENDROOT
BRANCH   3   5
ATOM      5  C   UNL     1       2.677  -0.618  -2.667  0.00  0.00    +0.078 C 
ATOM      6  C   UNL     1       4.191  -0.640  -2.425  0.00  0.00    +0.027 C 
ATOM      7  C   UNL     1       4.856  -1.356  -3.598  0.00  0.00    +0.037 C 
ATOM      8  C   UNL     1       4.393  -0.771  -4.907  0.00  0.00    -0.044 A 
ATOM      9  C   UNL     1       5.158  -1.028  -6.037  0.00  0.00    +0.004 A 
ATOM     10  C   UNL     1       4.785  -0.525  -7.266  0.00  0.00    +0.000 A 
ATOM     11  C   UNL     1       3.639   0.240  -7.374  0.00  0.00    +0.000 A 
ATOM     12  C   UNL     1       2.879   0.499  -6.253  0.00  0.00    +0.004 A 
ATOM     13  C   UNL     1       3.255  -0.003  -5.014  0.00  0.00    -0.042 A 
ATOM     14  C   UNL     1       2.388   0.330  -3.828  0.00  0.00    +0.057 C 
ENDBRANCH   3   5
BRANCH   1  16
ATOM     15  C   UNL     1      -0.019   1.526   0.010  0.00  0.00    +0.028 C 
ATOM     16  C   UNL     1       0.002  -0.004   0.002  0.00  0.00    +0.099 C 
ATOM     17  C   UNL     1       0.742  -0.511   1.242  0.00  0.00    +0.028 C 
BRANCH  16  18
ATOM     18  C   UNL     1      -1.412  -0.526   0.013  0.00  0.00    +0.146 C 
ATOM     19  N   UNL     1      -2.405   0.300   0.027  0.00  0.00    -0.076 NA
ATOM     20  N   UNL     1      -1.645  -1.883   0.008  0.00  0.00    -0.343 N 
ATOM     21  H   UNL     1      -0.899  -2.503  -0.003  0.00  0.00    +0.144 HD
ATOM     22  H   UNL     1      -2.555  -2.219   0.015  0.00  0.00    +0.144 HD
BRANCH  19  23
ATOM     23  O   UNL     1      -3.733  -0.190   0.037  0.00  0.00    -0.408 OA
ATOM     24  H   UNL     1      -4.408   0.503   0.047  0.00  0.00    +0.328 HD
ENDBRANCH  19  23
ENDBRANCH  16  18
ENDBRANCH   1  16
TORSDOF 4
