REMARK  Name = ZINC67061990
REMARK  14 active torsions:
REMARK  status: ('A' for Active; 'I' for Inactive)
REMARK    1  A    between atoms: C_1  and  C_2
REMARK    2  A    between atoms: C_2  and  N_3
REMARK    3  A    between atoms: N_3  and  C_4
REMARK    4  A    between atoms: C_4  and  C_5
REMARK    5  A    between atoms: C_8  and  C_11
REMARK    6  A    between atoms: C_11  and  N_12
REMARK    7  A    between atoms: N_12  and  C_13
REMARK    8  A    between atoms: N_12  and  C_14
REMARK    9  A    between atoms: N_17  and  C_18
REMARK   10  A    between atoms: C_18  and  C_19
REMARK   11  A    between atoms: C_19  and  C_20
REMARK   12  A    between atoms: N_22  and  C_23
REMARK   13  A    between atoms: C_23  and  C_24
REMARK   14  A    between atoms: C_23  and  C_25
REMARK                            x       y       z     vdW  Elec       q    Type
REMARK                         _______ _______ _______ _____ _____    ______ ____
ROOT
ATOM      1  N   UNL     1       0.688  -0.476  -1.203  0.00  0.00    -0.282 N 
ATOM      2  C   UNL     1      -0.013  -0.705  -2.332  0.00  0.00    +0.302 C 
ATOM      3  O   UNL     1       0.556  -1.097  -3.332  0.00  0.00    -0.253 OA
ATOM      4  N   UNL     1      -1.345  -0.498  -2.351  0.00  0.00    -0.299 N 
ATOM      5  H   UNL     1      -1.799  -0.185  -1.553  0.00  0.00    +0.150 HD
ENDROOT
BRANCH   1   7
ATOM      6  C   UNL     1      -0.019   1.526   0.010  0.00  0.00    +0.024 C 
ATOM      7  C   UNL     1       0.002  -0.004   0.002  0.00  0.00    +0.106 C 
ENDBRANCH   1   7
BRANCH   1   8
ATOM      8  C   UNL     1       2.135  -0.701  -1.182  0.00  0.00    +0.144 C 
BRANCH   8   9
ATOM      9  C   UNL     1       2.417  -2.123  -0.770  0.00  0.00    -0.030 A 
ATOM     10  C   UNL     1       2.576  -2.436   0.567  0.00  0.00    +0.005 A 
ATOM     11  C   UNL     1       2.835  -3.741   0.945  0.00  0.00    +0.002 A 
ATOM     12  C   UNL     1       2.933  -4.732  -0.013  0.00  0.00    -0.064 A 
ATOM     13  C   UNL     1       2.773  -4.418  -1.350  0.00  0.00    +0.002 A 
ATOM     14  C   UNL     1       2.510  -3.115  -1.728  0.00  0.00    +0.005 A 
BRANCH  12  15
ATOM     15  C   UNL     1       3.216  -6.153   0.399  0.00  0.00    -0.044 C 
BRANCH  15  16
ATOM     16  N   UNL     1       1.948  -6.854   0.640  0.00  0.00    +0.379 N 
ATOM     17  C   UNL     1       1.197  -6.957  -0.618  0.00  0.00    -0.096 C 
ATOM     18  C   UNL     1       2.224  -8.202   1.157  0.00  0.00    -0.096 C 
ATOM     19  H   UNL     1       1.403  -6.340   1.316  0.00  0.00    -0.082 HD
ENDBRANCH  15  16
ENDBRANCH  12  15
ENDBRANCH   8   9
ENDBRANCH   1   8
BRANCH   4  20
ATOM     20  C   UNL     1      -2.107  -0.746  -3.578  0.00  0.00    +0.115 C 
BRANCH  20  21
ATOM     21  C   UNL     1      -3.584  -0.435  -3.332  0.00  0.00    +0.114 C 
BRANCH  21  22
ATOM     22  C   UNL     1      -4.368  -0.690  -4.593  0.00  0.00    +0.215 C 
ATOM     23  O   UNL     1      -3.800  -1.081  -5.591  0.00  0.00    -0.276 OA
ATOM     24  N   UNL     1      -5.700  -0.484  -4.613  0.00  0.00    -0.313 N 
ATOM     25  H   UNL     1      -6.154  -0.171  -3.815  0.00  0.00    +0.149 HD
BRANCH  24  26
ATOM     26  C   UNL     1      -6.462  -0.732  -5.840  0.00  0.00    +0.067 C 
ATOM     27  C   UNL     1      -6.838  -2.212  -5.916  0.00  0.00    +0.027 C 
ATOM     28  C   UNL     1      -7.734   0.118  -5.830  0.00  0.00    +0.027 C 
ENDBRANCH  24  26
ENDBRANCH  21  22
ENDBRANCH  20  21
ENDBRANCH   4  20
TORSDOF 9
