REMARK  Name = ZINC66503855
REMARK  4 active torsions:
REMARK  status: ('A' for Active; 'I' for Inactive)
REMARK    1  A    between atoms: C_4  and  C_7
REMARK    2  A    between atoms: C_10  and  C_12
REMARK    3  A    between atoms: N_14  and  S_15
REMARK    4  A    between atoms: S_15  and  C_18
REMARK                            x       y       z     vdW  Elec       q    Type
REMARK                         _______ _______ _______ _____ _____    ______ ____
ROOT
ATOM      1  C   UNL     1       2.916  -1.753  -2.277  0.00  0.00    +0.268 C 
ATOM      2  O   UNL     1       2.865  -0.855  -3.283  0.00  0.00    -0.269 OA
ATOM      3  N   UNL     1       2.050  -2.708  -2.220  0.00  0.00    -0.090 NA
ENDROOT
BRANCH   1   6
ATOM      4  C   UNL     1       3.711  -0.707  -0.038  0.00  0.00    +0.032 C 
ATOM      5  C   UNL     1       3.675  -2.224   0.162  0.00  0.00    +0.022 C 
ATOM      6  C   UNL     1       3.983  -1.640  -1.219  0.00  0.00    +0.089 C 
BRANCH   4  10
ATOM      7  C   UNL     1      -0.017   1.378   0.010  0.00  0.00    +0.000 A 
ATOM      8  C   UNL     1       1.171   2.086   0.002  0.00  0.00    +0.000 A 
ATOM      9  C   UNL     1       2.377   1.411  -0.013  0.00  0.00    +0.004 A 
ATOM     10  C   UNL     1       2.396   0.029  -0.020  0.00  0.00    -0.044 A 
ATOM     11  C   UNL     1       1.208  -0.679  -0.012  0.00  0.00    +0.004 A 
ATOM     12  C   UNL     1       0.002  -0.004   0.002  0.00  0.00    +0.000 A 
ENDBRANCH   4  10
ENDBRANCH   1   6
BRANCH   3  13
ATOM     13  S   UNL     1       0.876  -2.832  -3.382  0.00  0.00    +0.108 S 
ATOM     14  O   UNL     1       0.039  -1.693  -3.237  0.00  0.00    -0.146 OA
ATOM     15  O   UNL     1       1.542  -3.137  -4.600  0.00  0.00    -0.146 OA
BRANCH  13  16
ATOM     16  C   UNL     1      -0.109  -4.236  -2.980  0.00  0.00    +0.151 A 
ATOM     17  C   UNL     1      -1.224  -4.305  -2.214  0.00  0.00    +0.038 A 
ATOM     18  C   UNL     1      -1.840  -5.530  -2.034  0.00  0.00    +0.030 A 
ATOM     19  C   UNL     1      -1.308  -6.626  -2.630  0.00  0.00    +0.080 A 
ATOM     20  S   UNL     1       0.100  -5.936  -3.484  0.00  0.00    -0.056 S 
ATOM     21 CL   UNL     1      -1.859  -8.272  -2.581  0.00  0.00    -0.076 Cl
ENDBRANCH  13  16
ENDBRANCH   3  13
TORSDOF 4
