REMARK  Name = ZINC24124220
REMARK  4 active torsions:
REMARK  status: ('A' for Active; 'I' for Inactive)
REMARK    1  A    between atoms: C_1  and  N_2
REMARK    2  A    between atoms: C_6  and  C_7
REMARK    3  A    between atoms: N_9  and  N_10
REMARK    4  A    between atoms: C_11  and  C_13
REMARK                            x       y       z     vdW  Elec       q    Type
REMARK                         _______ _______ _______ _____ _____    ______ ____
ROOT
ATOM      1  C   UNL     1      -4.773  -0.686  -0.423  0.00  0.00    +0.277 C 
ATOM      2  O   UNL     1      -4.906   0.523  -0.376  0.00  0.00    -0.267 OA
ATOM      3  N   UNL     1      -3.552  -1.222  -0.617  0.00  0.00    -0.229 N 
ATOM      4  H   UNL     1      -3.416  -2.313  -0.567  0.00  0.00    +0.173 HD
ENDROOT
BRANCH   1  10
ATOM      5  C   UNL     1      -7.720   0.236  -0.184  0.00  0.00    +0.149 C 
ATOM      6  N   UNL     1      -7.252  -1.152  -0.161  0.00  0.00    -0.345 N 
ATOM      7  C   UNL     1      -8.037  -2.250  -0.032  0.00  0.00    +0.106 A 
ATOM      8  C   UNL     1      -7.253  -3.355  -0.055  0.00  0.00    +0.059 A 
ATOM      9  C   UNL     1      -5.927  -2.936  -0.209  0.00  0.00    +0.052 A 
ATOM     10  C   UNL     1      -5.941  -1.559  -0.268  0.00  0.00    +0.107 A 
ATOM     11 CL   UNL     1      -7.798  -4.998   0.077  0.00  0.00    -0.082 Cl
ENDBRANCH   1  10
BRANCH   3  12
ATOM     12  N   UNL     1      -2.456  -0.392  -0.883  0.00  0.00    -0.229 N 
ATOM     13  C   UNL     1      -1.235  -0.928  -1.077  0.00  0.00    +0.276 C 
ATOM     14  O   UNL     1      -1.084  -2.134  -1.021  0.00  0.00    -0.267 OA
ATOM     15  H   UNL     1      -2.591   0.699  -0.933  0.00  0.00    +0.173 HD
BRANCH  13  16
ATOM     16  C   UNL     1      -0.087  -0.058  -1.355  0.00  0.00    +0.104 A 
ATOM     17  C   UNL     1       1.212  -0.467  -1.573  0.00  0.00    +0.047 A 
ATOM     18  C   UNL     1       1.973   0.685  -1.798  0.00  0.00    +0.036 A 
ATOM     19  C   UNL     1       1.144   1.753  -1.715  0.00  0.00    +0.098 A 
ATOM     20  N   UNL     1      -0.111   1.315  -1.446  0.00  0.00    -0.356 N 
ATOM     21  H   UNL     1      -1.056   1.860  -1.305  0.00  0.00    +0.166 HD
ATOM     22 BR   UNL     1       3.829   0.740  -2.153  0.00  0.00    -0.049 Br
ENDBRANCH  13  16
ENDBRANCH   3  12
TORSDOF 3
