REMARK  Name = ZINC63732001
REMARK  7 active torsions:
REMARK  status: ('A' for Active; 'I' for Inactive)
REMARK    1  A    between atoms: C_6  and  C_11
REMARK    2  A    between atoms: C_11  and  C_12
REMARK    3  A    between atoms: C_12  and  C_14
REMARK    4  A    between atoms: C_12  and  N_23
REMARK    5  A    between atoms: N_16  and  C_17
REMARK    6  A    between atoms: N_23  and  S_24
REMARK    7  A    between atoms: S_24  and  C_27
REMARK                            x       y       z     vdW  Elec       q    Type
REMARK                         _______ _______ _______ _____ _____    ______ ____
ROOT
ATOM      1  C   UNL     1       5.233  -2.982   1.159  0.00  0.00    +0.164 C 
ENDROOT
BRANCH   1   2
ATOM      2  C   UNL     1       5.830  -3.858   2.230  0.00  0.00    +0.232 C 
ATOM      3  O   UNL     1       6.675  -3.411   2.977  0.00  0.00    -0.274 OA
ATOM      4  N   UNL     1       5.425  -5.137   2.358  0.00  0.00    -0.311 N 
ATOM      5  H   UNL     1       4.750  -5.494   1.761  0.00  0.00    +0.149 HD
BRANCH   4   6
ATOM      6  C   UNL     1       6.005  -5.988   3.400  0.00  0.00    +0.073 C 
ATOM      7  C   UNL     1       7.308  -6.606   2.887  0.00  0.00    +0.022 C 
ATOM      8  C   UNL     1       7.914  -7.495   3.975  0.00  0.00    +0.002 C 
ATOM      9  C   UNL     1       6.927  -8.608   4.332  0.00  0.00    +0.000 C 
ATOM     10  C   UNL     1       5.625  -7.990   4.845  0.00  0.00    +0.002 C 
ATOM     11  C   UNL     1       5.019  -7.101   3.757  0.00  0.00    +0.022 C 
ENDBRANCH   4   6
ENDBRANCH   1   2
BRANCH   1  12
ATOM     12  N   UNL     1       5.835  -1.648   1.227  0.00  0.00    -0.178 NA
ATOM     13  H   UNL     1       5.472  -0.983   1.832  0.00  0.00    +0.149 HD
BRANCH  12  14
ATOM     14  S   UNL     1       7.135  -1.276   0.270  0.00  0.00    +0.059 S 
ATOM     15  O   UNL     1       7.453   0.084   0.528  0.00  0.00    -0.153 OA
ATOM     16  O   UNL     1       8.078  -2.325   0.440  0.00  0.00    -0.153 OA
BRANCH  14  17
ATOM     17  C   UNL     1       6.589  -1.356  -1.404  0.00  0.00    +0.106 A 
ATOM     18  C   UNL     1       6.576  -2.570  -2.067  0.00  0.00    +0.030 A 
ATOM     19  C   UNL     1       6.149  -2.636  -3.379  0.00  0.00    +0.025 A 
ATOM     20  C   UNL     1       5.732  -1.483  -4.031  0.00  0.00    +0.037 A 
ATOM     21  C   UNL     1       5.747  -0.267  -3.361  0.00  0.00    -0.024 A 
ATOM     22  C   UNL     1       6.170  -0.207  -2.048  0.00  0.00    +0.034 A 
ATOM     23  C   UNL     1       5.294   0.984  -4.069  0.00  0.00    +0.046 C 
ATOM     24  C   UNL     1       5.673   0.900  -5.548  0.00  0.00    +0.101 C 
ATOM     25  C   UNL     1       5.248  -0.429  -6.111  0.00  0.00    +0.218 C 
ATOM     26  O   UNL     1       4.855  -0.497  -7.257  0.00  0.00    -0.275 OA
ATOM     27  N   UNL     1       5.298  -1.544  -5.359  0.00  0.00    -0.285 N 
ATOM     28  H   UNL     1       5.033  -2.395  -5.740  0.00  0.00    +0.155 HD
ENDBRANCH  14  17
ENDBRANCH  12  14
ENDBRANCH   1  12
BRANCH   1  29
ATOM     29  C   UNL     1       3.723  -2.872   1.373  0.00  0.00    +0.058 C 
BRANCH  29  35
ATOM     30  C   UNL     1       0.004   1.325   0.648  0.00  0.00    +0.001 A 
ATOM     31  C   UNL     1       1.191   2.065   0.547  0.00  0.00    +0.002 A 
ATOM     32  C   UNL     1       2.401   1.485   0.400  0.00  0.00    +0.026 A 
ATOM     33  C   UNL     1       2.517   0.069   0.340  0.00  0.00    +0.043 A 
ATOM     34  N   UNL     1       3.558  -0.717   0.203  0.00  0.00    -0.378 N 
ATOM     35  C   UNL     1       3.096  -2.110   0.204  0.00  0.00    +0.105 C 
ATOM     36  C   UNL     1       1.593  -2.048   0.365  0.00  0.00    +0.007 C 
ATOM     37  C   UNL     1       1.278  -0.735   0.444  0.00  0.00    -0.004 A 
ATOM     38  C   UNL     1       0.003  -0.026   0.603  0.00  0.00    +0.010 A 
ATOM     39  H   UNL     1       4.479  -0.426   0.114  0.00  0.00    +0.160 HD
ENDBRANCH  29  35
ENDBRANCH   1  29
TORSDOF 7
