REMARK  Name = ZINC20480166
REMARK  5 active torsions:
REMARK  status: ('A' for Active; 'I' for Inactive)
REMARK    1  A    between atoms: C_3  and  C_6
REMARK    2  A    between atoms: C_6  and  O_8
REMARK    3  A    between atoms: O_8  and  C_9
REMARK    4  A    between atoms: C_12  and  C_15
REMARK    5  A    between atoms: C_27  and  C_28
REMARK                            x       y       z     vdW  Elec       q    Type
REMARK                         _______ _______ _______ _____ _____    ______ ____
ROOT
ATOM      1  C   UNL     1      10.033   2.257  -0.485  0.00  0.00    +0.025 C 
ATOM      2  C   UNL     1      11.005   1.304  -0.684  0.00  0.00    +0.085 A 
ATOM      3  C   UNL     1      12.438   1.670  -0.879  0.00  0.00    +0.160 A 
ATOM      4  N   UNL     1      13.002   2.697  -0.302  0.00  0.00    -0.281 NA
ATOM      5  N   UNL     1      13.123   0.796  -1.749  0.00  0.00    -0.212 N 
ATOM      6  C   UNL     1      12.632  -0.489  -1.881  0.00  0.00    +0.199 A 
ATOM      7  N   UNL     1      11.521  -0.966  -1.389  0.00  0.00    -0.182 NA
ATOM      8  C   UNL     1      10.687  -0.145  -0.711  0.00  0.00    +0.283 A 
ATOM      9  O   UNL     1       9.701  -0.581  -0.141  0.00  0.00    -0.265 OA
ATOM     10  S   UNL     1      13.864  -1.291  -2.873  0.00  0.00    -0.031 S 
ATOM     11  C   UNL     1      14.908   0.129  -3.169  0.00  0.00    +0.101 A 
ATOM     12  N   UNL     1      14.251   1.120  -2.473  0.00  0.00    -0.283 N 
ATOM     13  C   UNL     1      16.059   0.210  -3.896  0.00  0.00    +0.102 C 
ATOM     14  H   UNL     1      13.939   2.890  -0.464  0.00  0.00    +0.188 HD
ATOM     15  H   UNL     1      14.578   2.033  -2.492  0.00  0.00    +0.188 HD
ENDROOT
BRANCH  13  16
ATOM     16  C   UNL     1      16.736   1.436  -4.005  0.00  0.00    +0.242 C 
ATOM     17  O   UNL     1      16.354   2.402  -3.367  0.00  0.00    -0.271 OA
ATOM     18  N   UNL     1      17.808   1.544  -4.815  0.00  0.00    -0.294 N 
ATOM     19  C   UNL     1      18.603   2.782  -4.858  0.00  0.00    +0.136 C 
ATOM     20  C   UNL     1      20.081   2.414  -4.685  0.00  0.00    +0.179 C 
ATOM     21  O   UNL     1      20.428   1.403  -5.634  0.00  0.00    -0.377 OA
ATOM     22  C   UNL     1      19.714   0.175  -5.469  0.00  0.00    +0.179 C 
ATOM     23  C   UNL     1      18.221   0.427  -5.678  0.00  0.00    +0.136 C 
ENDBRANCH  13  16
BRANCH   1  27
ATOM     24  C   UNL     1       5.950   1.144  -0.461  0.00  0.00    +0.132 A 
ATOM     25  C   UNL     1       6.397   2.153   0.386  0.00  0.00    +0.047 A 
ATOM     26  C   UNL     1       7.719   2.518   0.383  0.00  0.00    +0.011 A 
ATOM     27  C   UNL     1       8.620   1.872  -0.476  0.00  0.00    -0.024 A 
ATOM     28  C   UNL     1       8.162   0.856  -1.327  0.00  0.00    +0.011 A 
ATOM     29  C   UNL     1       6.839   0.496  -1.311  0.00  0.00    +0.047 A 
BRANCH  24  30
ATOM     30  O   UNL     1       4.640   0.787  -0.453  0.00  0.00    -0.422 OA
BRANCH  30  31
ATOM     31  C   UNL     1       3.757   1.604  -1.065  0.00  0.00    +0.351 C 
ATOM     32  O   UNL     1       4.129   2.669  -1.522  0.00  0.00    -0.244 OA
BRANCH  31  35
ATOM     33  C   UNL     1       0.077   1.264  -1.714  0.00  0.00    +0.008 A 
ATOM     34  C   UNL     1       1.296   1.895  -1.762  0.00  0.00    +0.022 A 
ATOM     35  C   UNL     1       2.353   1.210  -1.178  0.00  0.00    +0.097 A 
ATOM     36  S   UNL     1       1.552  -0.276  -0.603  0.00  0.00    -0.090 S 
ATOM     37  C   UNL     1      -0.014   0.049  -1.117  0.00  0.00    +0.046 A 
ENDBRANCH  31  35
ENDBRANCH  30  31
ENDBRANCH  24  30
ENDBRANCH   1  27
TORSDOF 5
