REMARK  Name = ZINC45629703
REMARK  4 active torsions:
REMARK  status: ('A' for Active; 'I' for Inactive)
REMARK    1  A    between atoms: C_1  and  C_2
REMARK    2  A    between atoms: C_4  and  C_14
REMARK    3  A    between atoms: N_16  and  C_17
REMARK    4  A    between atoms: C_17  and  C_18
REMARK                            x       y       z     vdW  Elec       q    Type
REMARK                         _______ _______ _______ _____ _____    ______ ____
ROOT
ATOM      1  C   UNL     1      -2.273  -0.068  -1.000  0.00  0.00    +0.258 C 
ATOM      2  O   UNL     1      -2.429   1.119  -1.191  0.00  0.00    -0.272 OA
ATOM      3  N   UNL     1      -2.857  -0.964  -1.821  0.00  0.00    -0.308 N 
ATOM      4  H   UNL     1      -2.793  -1.913  -1.627  0.00  0.00    +0.149 HD
ENDROOT
BRANCH   1   7
ATOM      5  C   UNL     1       0.179   1.347  -0.208  0.00  0.00    +0.056 C 
ATOM      6  C   UNL     1       0.041  -0.173  -0.096  0.00  0.00    +0.220 C 
ATOM      7  C   UNL     1      -1.427  -0.542   0.153  0.00  0.00    +0.299 C 
ATOM      8  O   UNL     1      -1.518  -1.966   0.267  0.00  0.00    -0.472 OA
ATOM      9  C   UNL     1      -0.596  -2.576   1.060  0.00  0.00    +0.163 A 
ATOM     10  C   UNL     1      -0.829  -3.869   1.505  0.00  0.00    +0.049 A 
ATOM     11  C   UNL     1       0.100  -4.503   2.308  0.00  0.00    +0.004 A 
ATOM     12  C   UNL     1       1.264  -3.852   2.670  0.00  0.00    +0.004 A 
ATOM     13  C   UNL     1       1.502  -2.563   2.231  0.00  0.00    +0.049 A 
ATOM     14  C   UNL     1       0.573  -1.920   1.427  0.00  0.00    +0.163 A 
ATOM     15  O   UNL     1       0.818  -0.648   1.009  0.00  0.00    -0.481 OA
ENDBRANCH   1   7
BRANCH   3  16
ATOM     16  C   UNL     1      -3.588  -0.506  -3.005  0.00  0.00    +0.141 C 
BRANCH  16  17
ATOM     17  C   UNL     1      -4.139  -1.696  -3.746  0.00  0.00    -0.012 A 
ATOM     18  C   UNL     1      -3.482  -2.182  -4.861  0.00  0.00    +0.008 A 
ATOM     19  C   UNL     1      -3.987  -3.273  -5.542  0.00  0.00    +0.020 A 
ATOM     20  C   UNL     1      -5.152  -3.881  -5.107  0.00  0.00    +0.042 A 
ATOM     21  C   UNL     1      -5.810  -3.397  -3.992  0.00  0.00    +0.040 A 
ATOM     22  C   UNL     1      -5.301  -2.307  -3.308  0.00  0.00    +0.047 A 
ATOM     23 CL   UNL     1      -6.123  -1.701  -1.904  0.00  0.00    -0.083 Cl
ATOM     24 CL   UNL     1      -5.786  -5.252  -5.963  0.00  0.00    -0.083 Cl
ENDBRANCH  16  17
ENDBRANCH   3  16
TORSDOF 3
