REMARK  Name = ZINC58563980
REMARK  5 active torsions:
REMARK  status: ('A' for Active; 'I' for Inactive)
REMARK    1  A    between atoms: C_6  and  C_10
REMARK    2  A    between atoms: C_10  and  C_11
REMARK    3  A    between atoms: C_13  and  C_16
REMARK    4  A    between atoms: C_19  and  O_23
REMARK    5  A    between atoms: C_20  and  O_22
REMARK                            x       y       z     vdW  Elec       q    Type
REMARK                         _______ _______ _______ _____ _____    ______ ____
ROOT
ATOM      1  C   UNL     1       3.207  -4.243   1.109  0.00  0.00    +0.085 A 
ATOM      2  N   UNL     1       2.243  -5.126   1.148  0.00  0.00    -0.244 NA
ATOM      3  C   UNL     1       1.974  -5.804   2.254  0.00  0.00    +0.079 A 
ATOM      4  C   UNL     1       2.756  -5.531   3.344  0.00  0.00    +0.075 A 
ATOM      5  S   UNL     1       3.846  -4.291   2.664  0.00  0.00    -0.080 S 
ENDROOT
BRANCH   3   6
ATOM      6  C   UNL     1       0.882  -6.807   2.309  0.00  0.00    +0.005 A 
ATOM      7  C   UNL     1       0.625  -7.496   3.493  0.00  0.00    +0.014 A 
ATOM      8  C   UNL     1      -0.391  -8.429   3.543  0.00  0.00    +0.050 A 
ATOM      9  C   UNL     1      -1.159  -8.682   2.417  0.00  0.00    +0.158 A 
ATOM     10  C   UNL     1      -0.907  -7.997   1.232  0.00  0.00    +0.159 A 
ATOM     11  C   UNL     1       0.107  -7.057   1.178  0.00  0.00    +0.059 A 
BRANCH  10  12
ATOM     12  O   UNL     1      -1.662  -8.247   0.128  0.00  0.00    -0.503 OA
ATOM     13  H   UNL     1      -2.448  -7.688   0.054  0.00  0.00    +0.292 HD
ENDBRANCH  10  12
BRANCH   9  14
ATOM     14  O   UNL     1      -2.159  -9.602   2.470  0.00  0.00    -0.503 OA
ATOM     15  H   UNL     1      -3.016  -9.238   2.731  0.00  0.00    +0.292 HD
ENDBRANCH   9  14
ENDBRANCH   3   6
BRANCH   1  16
ATOM     16  C   UNL     1       3.645  -3.391  -0.054  0.00  0.00    +0.119 C 
BRANCH  16  22
ATOM     17  C   UNL     1      -0.016   1.356   0.009  0.00  0.00    +0.005 A 
ATOM     18  C   UNL     1       1.194   2.068   0.002  0.00  0.00    +0.018 A 
ATOM     19  C   UNL     1       2.372   1.409  -0.013  0.00  0.00    +0.092 A 
ATOM     20  N   UNL     1       2.405   0.045  -0.021  0.00  0.00    -0.306 N 
ATOM     21  C   UNL     1       3.434  -0.856  -0.037  0.00  0.00    +0.116 A 
ATOM     22  C   UNL     1       2.885  -2.090  -0.039  0.00  0.00    +0.066 A 
ATOM     23  N   UNL     1       1.556  -1.965  -0.025  0.00  0.00    -0.232 NA
ATOM     24  C   UNL     1       1.240  -0.678  -0.014  0.00  0.00    +0.138 A 
ATOM     25  C   UNL     1       0.002  -0.004   0.002  0.00  0.00    +0.047 A 
ENDBRANCH  16  22
ENDBRANCH   1  16
TORSDOF 5
