REMARK  Name = ZINC21061728
REMARK  3 active torsions:
REMARK  status: ('A' for Active; 'I' for Inactive)
REMARK    1  A    between atoms: C_8  and  S_10
REMARK    2  A    between atoms: S_10  and  C_11
REMARK    3  A    between atoms: C_16  and  N_17
REMARK                            x       y       z     vdW  Elec       q    Type
REMARK                         _______ _______ _______ _____ _____    ______ ____
ROOT
ATOM      1  C   UNL     1       3.345   7.649  -0.031  0.00  0.00    +0.039 A 
ATOM      2  C   UNL     1       4.096   6.489  -0.147  0.00  0.00    +0.066 A 
ATOM      3  C   UNL     1       5.480   6.558  -0.192  0.00  0.00    +0.163 A 
ATOM      4  C   UNL     1       6.117   7.792  -0.121  0.00  0.00    +0.164 A 
ATOM      5  C   UNL     1       5.367   8.953  -0.004  0.00  0.00    +0.073 A 
ATOM      6  C   UNL     1       3.983   8.887   0.036  0.00  0.00    +0.042 A 
ATOM      7  O   UNL     1       7.475   7.878  -0.168  0.00  0.00    -0.485 OA
ATOM      8  C   UNL     1       8.206   6.675   0.091  0.00  0.00    +0.270 C 
ATOM      9  C   UNL     1       7.565   5.540  -0.718  0.00  0.00    +0.270 C 
ATOM     10  O   UNL     1       6.201   5.408  -0.302  0.00  0.00    -0.485 OA
ENDROOT
BRANCH   6  11
ATOM     11  N   UNL     1       3.226  10.061   0.148  0.00  0.00    -0.357 N 
ATOM     12  H   UNL     1       3.731  11.037   0.201  0.00  0.00    +0.142 HD
ATOM     13  H   UNL     1       2.128  10.007   0.184  0.00  0.00    +0.142 HD
ENDBRANCH   6  11
BRANCH   1  14
ATOM     14  S   UNL     1       1.586   7.559   0.026  0.00  0.00    -0.061 S 
BRANCH  14  22
ATOM     15  C   UNL     1      -0.893   8.531   5.892  0.00  0.00    +0.002 A 
ATOM     16  C   UNL     1       0.349   8.584   6.507  0.00  0.00    +0.001 A 
ATOM     17  C   UNL     1       1.491   8.427   5.743  0.00  0.00    +0.017 A 
ATOM     18  C   UNL     1       1.379   8.226   4.390  0.00  0.00    +0.040 A 
ATOM     19  C   UNL     1       0.131   8.172   3.728  0.00  0.00    +0.079 A 
ATOM     20  C   UNL     1      -1.015   8.337   4.540  0.00  0.00    +0.029 A 
ATOM     21  N   UNL     1       0.185   7.968   2.394  0.00  0.00    -0.232 NA
ATOM     22  C   UNL     1       1.320   7.829   1.746  0.00  0.00    +0.140 A 
ATOM     23  S   UNL     1       2.527   7.983   3.056  0.00  0.00    -0.061 S 
ENDBRANCH  14  22
ENDBRANCH   1  14
TORSDOF 3
