REMARK  Name = ZINC45695299
REMARK  9 active torsions:
REMARK  status: ('A' for Active; 'I' for Inactive)
REMARK    1  A    between atoms: C_1  and  C_2
REMARK    2  A    between atoms: C_2  and  C_4
REMARK    3  A    between atoms: C_2  and  N_14
REMARK    4  A    between atoms: C_7  and  O_10
REMARK    5  A    between atoms: O_10  and  C_11
REMARK    6  A    between atoms: N_17  and  C_18
REMARK    7  A    between atoms: C_23  and  S_24
REMARK    8  A    between atoms: S_24  and  C_25
REMARK    9  A    between atoms: C_25  and  C_26
REMARK                            x       y       z     vdW  Elec       q    Type
REMARK                         _______ _______ _______ _____ _____    ______ ____
ROOT
ATOM      1  N   UNL     1      -1.367  -0.527   0.013  0.00  0.00    -0.293 N 
ATOM      2  C   UNL     1      -2.027  -0.659   1.181  0.00  0.00    +0.304 C 
ATOM      3  O   UNL     1      -1.481  -0.361   2.225  0.00  0.00    -0.252 OA
ATOM      4  N   UNL     1      -3.293  -1.122   1.190  0.00  0.00    -0.268 N 
ATOM      5  H   UNL     1      -1.802  -0.765  -0.820  0.00  0.00    +0.151 HD
ATOM      6  H   UNL     1      -3.757  -1.282   0.354  0.00  0.00    +0.156 HD
ENDROOT
BRANCH   4   7
ATOM      7  C   UNL     1      -3.939  -1.371   2.409  0.00  0.00    +0.048 A 
ATOM      8  C   UNL     1      -3.196  -1.647   3.546  0.00  0.00    +0.024 A 
ATOM      9  C   UNL     1      -3.835  -1.893   4.747  0.00  0.00    +0.002 A 
ATOM     10  C   UNL     1      -5.215  -1.865   4.820  0.00  0.00    +0.001 A 
ATOM     11  C   UNL     1      -5.965  -1.590   3.692  0.00  0.00    +0.016 A 
ATOM     12  C   UNL     1      -5.332  -1.336   2.483  0.00  0.00    +0.030 A 
BRANCH  12  13
ATOM     13  S   UNL     1      -6.284  -0.978   1.044  0.00  0.00    -0.114 S 
BRANCH  13  14
ATOM     14  C   UNL     1      -8.001  -1.045   1.627  0.00  0.00    +0.169 C 
BRANCH  14  15
ATOM     15  C   UNL     1      -8.932  -0.753   0.478  0.00  0.00    +0.221 C 
ATOM     16  O   UNL     1      -8.482  -0.523  -0.624  0.00  0.00    -0.275 OA
ATOM     17  N   UNL     1     -10.265  -0.749   0.677  0.00  0.00    -0.329 N 
ATOM     18  H   UNL     1     -10.625  -0.933   1.558  0.00  0.00    +0.145 HD
ATOM     19  H   UNL     1     -10.865  -0.561  -0.062  0.00  0.00    +0.145 HD
ENDBRANCH  14  15
ENDBRANCH  13  14
ENDBRANCH  12  13
ENDBRANCH   4   7
BRANCH   1  21
ATOM     20  C   UNL     1      -0.007   1.505  -0.002  0.00  0.00    +0.033 C 
ATOM     21  C   UNL     1       0.009  -0.025   0.003  0.00  0.00    +0.102 C 
BRANCH  21  22
ATOM     22  C   UNL     1       0.717  -0.524  -1.231  0.00  0.00    -0.027 A 
ATOM     23  C   UNL     1       0.050  -0.563  -2.441  0.00  0.00    +0.009 A 
ATOM     24  C   UNL     1       0.696  -1.020  -3.573  0.00  0.00    +0.046 A 
ATOM     25  C   UNL     1       2.016  -1.440  -3.495  0.00  0.00    +0.127 A 
ATOM     26  C   UNL     1       2.684  -1.399  -2.279  0.00  0.00    +0.046 A 
ATOM     27  C   UNL     1       2.034  -0.936  -1.151  0.00  0.00    +0.009 A 
BRANCH  25  28
ATOM     28  O   UNL     1       2.654  -1.891  -4.607  0.00  0.00    -0.434 OA
BRANCH  28  29
ATOM     29  C   UNL     1       4.012  -2.306  -4.452  0.00  0.00    +0.541 C 
ATOM     30  F   UNL     1       4.779  -1.232  -3.989  0.00  0.00    -0.166 F 
ATOM     31  F   UNL     1       4.076  -3.357  -3.530  0.00  0.00    -0.166 F 
ENDBRANCH  28  29
ENDBRANCH  25  28
ENDBRANCH  21  22
ENDBRANCH   1  21
TORSDOF 8
