REMARK  Name = ZINC37838275
REMARK  5 active torsions:
REMARK  status: ('A' for Active; 'I' for Inactive)
REMARK    1  A    between atoms: C_1  and  C_2
REMARK    2  A    between atoms: C_6  and  C_21
REMARK    3  A    between atoms: N_9  and  S_10
REMARK    4  A    between atoms: S_10  and  C_13
REMARK    5  A    between atoms: C_17  and  C_18
REMARK                            x       y       z     vdW  Elec       q    Type
REMARK                         _______ _______ _______ _____ _____    ______ ____
ROOT
ATOM      1  C   UNL     1       0.001   1.421  -0.044  0.00  0.00    +0.026 C 
ATOM      2  C   UNL     1       0.093  -0.106  -0.021  0.00  0.00    +0.077 C 
ATOM      3  C   UNL     1       0.762  -0.600  -1.307  0.00  0.00    +0.021 C 
ATOM      4  C   UNL     1       0.977  -2.112  -1.217  0.00  0.00    +0.015 C 
ATOM      5  C   UNL     1       1.901  -2.429  -0.039  0.00  0.00    +0.090 C 
ATOM      6  C   UNL     1       1.245  -1.956   1.261  0.00  0.00    +0.122 C 
ATOM      7  N   UNL     1       0.900  -0.533   1.130  0.00  0.00    -0.173 NA
ENDROOT
BRANCH   5   8
ATOM      8  C   UNL     1       3.217  -1.718  -0.227  0.00  0.00    +0.215 C 
ATOM      9  O   UNL     1       3.595  -0.914   0.599  0.00  0.00    -0.276 OA
ATOM     10  N   UNL     1       3.973  -1.976  -1.312  0.00  0.00    -0.329 N 
ATOM     11  H   UNL     1       3.671  -2.619  -1.972  0.00  0.00    +0.145 HD
ATOM     12  H   UNL     1       4.820  -1.518  -1.433  0.00  0.00    +0.145 HD
ENDBRANCH   5   8
BRANCH   7  13
ATOM     13  S   UNL     1       1.415   0.568   2.255  0.00  0.00    +0.062 S 
ATOM     14  O   UNL     1       2.835   0.509   2.260  0.00  0.00    -0.153 OA
ATOM     15  O   UNL     1       0.703   1.771   2.001  0.00  0.00    -0.153 OA
BRANCH  13  16
ATOM     16  C   UNL     1       0.881  -0.010   3.832  0.00  0.00    +0.127 A 
ATOM     17  C   UNL     1       1.767  -0.355   4.821  0.00  0.00    +0.037 A 
ATOM     18  C   UNL     1       1.288  -0.793   6.013  0.00  0.00    +0.048 A 
ATOM     19  S   UNL     1      -0.381  -0.750   5.828  0.00  0.00    -0.088 S 
ATOM     20  C   UNL     1      -0.464  -0.140   4.155  0.00  0.00    +0.127 A 
BRANCH  20  21
ATOM     21  C   UNL     1      -1.605   0.139   3.361  0.00  0.00    +0.395 C 
ATOM     22  O   UNL     1      -1.471   0.639   2.251  0.00  0.00    -0.240 OA
ATOM     23  O   UNL     1      -2.725  -0.121   3.785  0.00  0.00    -0.240 OA
ENDBRANCH  20  21
ENDBRANCH  13  16
ENDBRANCH   7  13
TORSDOF 4
