REMARK  Name = ZINC21919778
REMARK  8 active torsions:
REMARK  status: ('A' for Active; 'I' for Inactive)
REMARK    1  A    between atoms: C_1  and  C_2
REMARK    2  A    between atoms: C_2  and  N_3
REMARK    3  A    between atoms: C_16  and  C_17
REMARK    4  A    between atoms: C_16  and  C_18
REMARK    5  A    between atoms: N_20  and  C_21
REMARK    6  A    between atoms: C_21  and  C_22
REMARK    7  A    between atoms: N_24  and  C_25
REMARK    8  A    between atoms: C_25  and  C_26
REMARK                            x       y       z     vdW  Elec       q    Type
REMARK                         _______ _______ _______ _____ _____    ______ ____
ROOT
ATOM      1  N   UNL     1       0.711  -0.489   1.189  0.00  0.00    -0.281 N 
ATOM      2  C   UNL     1       0.010  -0.724   2.323  0.00  0.00    +0.264 C 
ATOM      3  O   UNL     1      -1.206  -0.719   2.336  0.00  0.00    -0.268 OA
ATOM      4  C   UNL     1       0.798  -0.988   3.541  0.00  0.00    +0.106 A 
ATOM      5  C   UNL     1       0.397  -1.422   4.754  0.00  0.00    +0.041 A 
ATOM      6  C   UNL     1       1.542  -1.515   5.566  0.00  0.00    +0.001 A 
ATOM      7  C   UNL     1       1.709  -1.921   6.898  0.00  0.00    +0.010 A 
ATOM      8  C   UNL     1       2.985  -1.898   7.400  0.00  0.00    +0.001 A 
ATOM      9  C   UNL     1       4.070  -1.494   6.637  0.00  0.00    +0.002 A 
ATOM     10  C   UNL     1       3.938  -1.087   5.322  0.00  0.00    +0.026 A 
ATOM     11  C   UNL     1       2.651  -1.098   4.780  0.00  0.00    +0.050 A 
ATOM     12  N   UNL     1       2.178  -0.765   3.556  0.00  0.00    -0.334 N 
ATOM     13  C   UNL     1       2.878  -0.243   2.377  0.00  0.00    +0.157 C 
ATOM     14  C   UNL     1       2.150  -0.711   1.113  0.00  0.00    +0.128 C 
ATOM     15  C   UNL     1       2.706   0.053  -0.090  0.00  0.00    +0.043 C 
ENDROOT
BRANCH  14  16
ATOM     16  C   UNL     1       2.406  -2.183   0.913  0.00  0.00    +0.239 C 
ATOM     17  O   UNL     1       3.376  -2.704   1.422  0.00  0.00    -0.273 OA
ATOM     18  N   UNL     1       1.558  -2.920   0.170  0.00  0.00    -0.305 N 
ATOM     19  H   UNL     1       0.678  -2.447  -0.292  0.00  0.00    +0.149 HD
BRANCH  18  20
ATOM     20  C   UNL     1       1.807  -4.350  -0.025  0.00  0.00    +0.200 C 
BRANCH  20  21
ATOM     21  C   UNL     1       0.721  -4.937  -0.888  0.00  0.00    +0.231 C 
ATOM     22  O   UNL     1      -0.174  -4.230  -1.301  0.00  0.00    -0.274 OA
ATOM     23  N   UNL     1       0.743  -6.247  -1.202  0.00  0.00    -0.307 N 
ATOM     24  H   UNL     1       1.554  -6.889  -0.828  0.00  0.00    +0.149 HD
BRANCH  23  25
ATOM     25  C   UNL     1      -0.314  -6.817  -2.042  0.00  0.00    +0.178 C 
BRANCH  25  26
ATOM     26  C   UNL     1      -0.057  -8.289  -2.242  0.00  0.00    +0.122 A 
ATOM     27  C   UNL     1      -0.507  -9.280  -1.451  0.00  0.00    +0.046 A 
ATOM     28  C   UNL     1      -0.036 -10.492  -2.006  0.00  0.00    +0.041 A 
ATOM     29  C   UNL     1       0.680 -10.168  -3.098  0.00  0.00    +0.195 A 
ATOM     30  O   UNL     1       0.664  -8.833  -3.236  0.00  0.00    -0.466 OA
ENDBRANCH  25  26
ENDBRANCH  23  25
ENDBRANCH  20  21
ENDBRANCH  18  20
ENDBRANCH  14  16
BRANCH   1  32
ATOM     31  C   UNL     1      -0.019   1.526   0.010  0.00  0.00    +0.024 C 
ATOM     32  C   UNL     1       0.002  -0.004   0.002  0.00  0.00    +0.106 C 
ENDBRANCH   1  32
TORSDOF 6
