REMARK  Name = ZINC13055889
REMARK  5 active torsions:
REMARK  status: ('A' for Active; 'I' for Inactive)
REMARK    1  A    between atoms: N_10  and  C_11
REMARK    2  A    between atoms: C_11  and  C_12
REMARK    3  A    between atoms: N_14  and  C_15
REMARK    4  A    between atoms: C_18  and  S_21
REMARK    5  A    between atoms: S_21  and  N_24
REMARK                            x       y       z     vdW  Elec       q    Type
REMARK                         _______ _______ _______ _____ _____    ______ ____
ROOT
ATOM      1  C   UNL     1       7.168   1.735   2.097  0.00  0.00    +0.034 A 
ATOM      2  C   UNL     1       6.557   1.384   3.293  0.00  0.00    +0.025 A 
ATOM      3  C   UNL     1       7.114   1.777   4.494  0.00  0.00    +0.031 A 
ATOM      4  C   UNL     1       8.280   2.521   4.506  0.00  0.00    +0.113 A 
ATOM      5  C   UNL     1       8.891   2.873   3.316  0.00  0.00    +0.031 A 
ATOM      6  C   UNL     1       8.342   2.477   2.112  0.00  0.00    +0.025 A 
ENDROOT
BRANCH   1   9
ATOM      7  C   UNL     1       7.404   1.012  -0.158  0.00  0.00    +0.235 C 
ATOM      8  O   UNL     1       8.606   1.143  -0.062  0.00  0.00    -0.274 OA
ATOM      9  N   UNL     1       6.606   1.338   0.878  0.00  0.00    -0.284 N 
ATOM     10  H   UNL     1       5.642   1.297   0.780  0.00  0.00    +0.155 HD
BRANCH   7  11
ATOM     11  C   UNL     1       6.803   0.485  -1.435  0.00  0.00    +0.201 C 
BRANCH  11  21
ATOM     12  C   UNL     1       9.649  -3.558  -2.496  0.00  0.00    +0.000 A 
ATOM     13  C   UNL     1       8.854  -3.193  -1.425  0.00  0.00    +0.002 A 
ATOM     14  C   UNL     1       8.268  -1.943  -1.397  0.00  0.00    +0.023 A 
ATOM     15  C   UNL     1       8.478  -1.053  -2.444  0.00  0.00    +0.033 A 
ATOM     16  C   UNL     1       9.277  -1.418  -3.516  0.00  0.00    -0.026 A 
ATOM     17  C   UNL     1       9.859  -2.675  -3.537  0.00  0.00    +0.005 A 
ATOM     18  C   UNL     1       9.534  -0.476  -4.663  0.00  0.00    +0.038 C 
ATOM     19  C   UNL     1       8.455   0.604  -4.721  0.00  0.00    +0.024 C 
ATOM     20  C   UNL     1       8.321   1.247  -3.334  0.00  0.00    +0.106 C 
ATOM     21  N   UNL     1       7.870   0.207  -2.399  0.00  0.00    -0.321 N 
ENDBRANCH  11  21
ENDBRANCH   7  11
ENDBRANCH   1   9
BRANCH   4  22
ATOM     22  S   UNL     1       8.988   3.021   6.040  0.00  0.00    +0.100 S 
ATOM     23  O   UNL     1       9.779   4.169   5.766  0.00  0.00    -0.146 OA
ATOM     24  O   UNL     1       7.932   3.032   6.990  0.00  0.00    -0.146 OA
BRANCH  22  25
ATOM     25  N   UNL     1      10.034   1.826   6.509  0.00  0.00    -0.118 NA
ATOM     26  C   UNL     1      10.695   1.943   7.614  0.00  0.00    +0.117 C 
ATOM     27  C   UNL     1      10.507   3.178   8.492  0.00  0.00    +0.073 C 
ATOM     28  C   UNL     1       9.786   2.732   9.746  0.00  0.00    +0.008 C 
ATOM     29  C   UNL     1      10.728   2.261  10.856  0.00  0.00    +0.002 C 
ATOM     30  C   UNL     1      11.865   1.377  10.342  0.00  0.00    +0.019 C 
ATOM     31  C   UNL     1      11.413   0.358   9.319  0.00  0.00    +0.102 C 
ATOM     32  N   UNL     1      11.529   0.993   7.989  0.00  0.00    -0.331 N 
ATOM     33  H   UNL     1      12.231   0.705   7.385  0.00  0.00    +0.147 HD
ENDBRANCH  22  25
ENDBRANCH   4  22
TORSDOF 5
