REMARK  Name = ZINC59165720
REMARK  9 active torsions:
REMARK  status: ('A' for Active; 'I' for Inactive)
REMARK    1  A    between atoms: C_1  and  C_2
REMARK    2  A    between atoms: C_5  and  N_9
REMARK    3  A    between atoms: C_6  and  C_8
REMARK    4  A    between atoms: C_10  and  C_28
REMARK    5  A    between atoms: C_11  and  C_15
REMARK    6  A    between atoms: C_12  and  C_14
REMARK    7  A    between atoms: N_16  and  N_17
REMARK    8  A    between atoms: C_18  and  C_20
REMARK    9  A    between atoms: C_25  and  O_26
REMARK                            x       y       z     vdW  Elec       q    Type
REMARK                         _______ _______ _______ _____ _____    ______ ____
ROOT
ATOM      1  N   UNL     1       0.212  -4.147  -0.113  0.00  0.00    -0.236 N 
ATOM      2  C   UNL     1       0.177  -4.891  -1.239  0.00  0.00    +0.051 A 
ATOM      3  C   UNL     1       0.295  -6.212  -0.862  0.00  0.00    +0.038 A 
ATOM      4  C   UNL     1       0.402  -6.239   0.546  0.00  0.00    +0.069 A 
ATOM      5  N   UNL     1       0.358  -5.008   0.981  0.00  0.00    -0.171 NA
ATOM      6  C   UNL     1       0.549  -7.473   1.398  0.00  0.00    +0.068 C 
ATOM      7  C   UNL     1       0.037  -4.373  -2.647  0.00  0.00    +0.066 C 
ENDROOT
BRANCH   1  12
ATOM      8  C   UNL     1      -0.152   1.511   0.140  0.00  0.00    +0.044 C 
ATOM      9  C   UNL     1      -0.055   0.009   0.073  0.00  0.00    -0.050 A 
ATOM     10  C   UNL     1       0.818  -0.588  -0.818  0.00  0.00    +0.005 A 
ATOM     11  C   UNL     1       0.909  -1.964  -0.881  0.00  0.00    +0.028 A 
ATOM     12  C   UNL     1       0.122  -2.750  -0.050  0.00  0.00    +0.069 A 
ATOM     13  C   UNL     1      -0.754  -2.148   0.844  0.00  0.00    -0.025 A 
ATOM     14  C   UNL     1      -0.836  -0.771   0.907  0.00  0.00    +0.008 A 
ATOM     15  C   UNL     1      -1.609  -2.997   1.748  0.00  0.00    +0.046 C 
ENDBRANCH   1  12
BRANCH   3  16
ATOM     16  C   UNL     1       0.306  -7.381  -1.763  0.00  0.00    +0.142 C 
ATOM     17  N   UNL     1       0.423  -8.576  -1.272  0.00  0.00    -0.187 NA
BRANCH  17  18
ATOM     18  N   UNL     1       0.433  -9.686  -2.128  0.00  0.00    -0.203 N 
ATOM     19  C   UNL     1       0.555 -10.928  -1.619  0.00  0.00    +0.267 C 
ATOM     20  O   UNL     1       0.656 -11.086  -0.417  0.00  0.00    -0.268 OA
ATOM     21  H   UNL     1       0.353  -9.561  -3.086  0.00  0.00    +0.178 HD
BRANCH  19  22
ATOM     22  C   UNL     1       0.566 -12.097  -2.519  0.00  0.00    +0.081 A 
ATOM     23  C   UNL     1       0.456 -11.920  -3.901  0.00  0.00    +0.036 A 
ATOM     24  C   UNL     1       0.467 -13.016  -4.737  0.00  0.00    +0.042 A 
ATOM     25  C   UNL     1       0.587 -14.294  -4.212  0.00  0.00    +0.023 A 
ATOM     26  C   UNL     1       0.696 -14.482  -2.849  0.00  0.00    +0.047 A 
ATOM     27  C   UNL     1       0.693 -13.390  -1.994  0.00  0.00    +0.129 A 
ATOM     28 CL   UNL     1       0.330 -12.796  -6.453  0.00  0.00    -0.084 Cl
BRANCH  27  29
ATOM     29  O   UNL     1       0.806 -13.573  -0.654  0.00  0.00    -0.506 OA
ATOM     30  H   UNL     1      -0.040 -13.685  -0.200  0.00  0.00    +0.292 HD
ENDBRANCH  27  29
ENDBRANCH  19  22
ENDBRANCH  17  18
ENDBRANCH   3  16
TORSDOF 5
