REMARK  Name = ZINC06333770
REMARK  6 active torsions:
REMARK  status: ('A' for Active; 'I' for Inactive)
REMARK    1  A    between atoms: C_3  and  N_17
REMARK    2  A    between atoms: C_4  and  N_14
REMARK    3  A    between atoms: C_6  and  N_7
REMARK    4  A    between atoms: N_7  and  C_8
REMARK    5  A    between atoms: C_8  and  N_10
REMARK    6  A    between atoms: N_10  and  C_11
REMARK                            x       y       z     vdW  Elec       q    Type
REMARK                         _______ _______ _______ _____ _____    ______ ____
ROOT
ATOM      1  C   UNL     1       0.995  -2.386   0.201  0.00  0.00    +0.025 A 
ATOM      2  C   UNL     1       1.294  -1.044   0.326  0.00  0.00    +0.027 A 
ATOM      3  C   UNL     1       0.328  -0.088   0.039  0.00  0.00    +0.055 A 
ATOM      4  C   UNL     1      -0.940  -0.482  -0.367  0.00  0.00    +0.148 A 
ATOM      5  C   UNL     1      -1.237  -1.824  -0.497  0.00  0.00    +0.058 A 
ATOM      6  C   UNL     1      -0.271  -2.780  -0.210  0.00  0.00    +0.035 A 
ENDROOT
BRANCH   4   7
ATOM      7  N   UNL     1      -1.971   0.536  -0.666  0.00  0.00    +0.058 N 
ATOM      8  O   UNL     1      -3.128   0.347  -0.336  0.00  0.00    -0.126 OA
ATOM      9  O   UNL     1      -1.663   1.564  -1.243  0.00  0.00    -0.126 OA
ENDBRANCH   4   7
BRANCH   3  10
ATOM     10  N   UNL     1       0.631   1.272   0.166  0.00  0.00    -0.356 N 
ATOM     11  H   UNL     1       1.499   1.547   0.501  0.00  0.00    +0.142 HD
ATOM     12  H   UNL     1      -0.025   1.941  -0.086  0.00  0.00    +0.142 HD
ENDBRANCH   3  10
BRANCH   6  13
ATOM     13  N   UNL     1      -0.575  -4.143  -0.337  0.00  0.00    -0.297 N 
ATOM     14  H   UNL     1      -1.068  -4.460  -1.109  0.00  0.00    +0.154 HD
BRANCH  13  15
ATOM     15  C   UNL     1      -0.182  -5.011   0.616  0.00  0.00    +0.135 C 
ATOM     16  S   UNL     1       0.776  -4.469   1.927  0.00  0.00    -0.019 S 
BRANCH  15  17
ATOM     17  N   UNL     1      -0.542  -6.308   0.536  0.00  0.00    -0.323 N 
ATOM     18  H   UNL     1      -1.085  -6.615  -0.207  0.00  0.00    +0.148 HD
BRANCH  17  19
ATOM     19  C   UNL     1      -0.115  -7.252   1.571  0.00  0.00    +0.072 C 
ATOM     20  C   UNL     1       0.398  -8.619   1.112  0.00  0.00    +0.024 C 
ATOM     21  C   UNL     1      -0.972  -8.502   1.784  0.00  0.00    +0.024 C 
ENDBRANCH  17  19
ENDBRANCH  15  17
ENDBRANCH  13  15
ENDBRANCH   6  13
TORSDOF 6
