REMARK  Name = ZINC56182308
REMARK  14 active torsions:
REMARK  status: ('A' for Active; 'I' for Inactive)
REMARK    1  A    between atoms: C_1  and  C_2
REMARK    2  A    between atoms: C_2  and  C_4
REMARK    3  A    between atoms: C_2  and  N_14
REMARK    4  A    between atoms: C_7  and  O_12
REMARK    5  A    between atoms: C_8  and  O_10
REMARK    6  A    between atoms: O_10  and  C_11
REMARK    7  A    between atoms: O_12  and  C_13
REMARK    8  A    between atoms: N_14  and  C_15
REMARK    9  A    between atoms: C_15  and  C_17
REMARK   10  A    between atoms: C_15  and  C_18
REMARK   11  A    between atoms: C_18  and  C_20
REMARK   12  A    between atoms: C_21  and  N_30
REMARK   13  A    between atoms: N_22  and  C_29
REMARK   14  A    between atoms: N_25  and  C_28
REMARK                            x       y       z     vdW  Elec       q    Type
REMARK                         _______ _______ _______ _____ _____    ______ ____
ROOT
ATOM      1  C   UNL     1      -0.065  -0.149   2.404  0.00  0.00    -0.001 C 
ATOM      2  C   UNL     1      -1.400  -0.897   2.428  0.00  0.00    -0.006 C 
ENDROOT
BRANCH   1   3
ATOM      3  N   UNL     1       0.681  -0.518   1.194  0.00  0.00    +0.390 N 
ATOM      4  H   UNL     1       0.782  -1.522   1.154  0.00  0.00    -0.084 HD
ATOM      5  H   UNL     1       1.595  -0.090   1.218  0.00  0.00    -0.084 HD
BRANCH   3   7
ATOM      6  C   UNL     1      -0.091   1.478   0.004  0.00  0.00    -0.009 C 
ATOM      7  C   UNL     1      -0.048  -0.051   0.007  0.00  0.00    -0.043 C 
BRANCH   7   8
ATOM      8  C   UNL     1       0.653  -0.536  -1.236  0.00  0.00    -0.058 A 
ATOM      9  C   UNL     1       2.035  -0.536  -1.293  0.00  0.00    +0.006 A 
ATOM     10  C   UNL     1       2.682  -0.980  -2.431  0.00  0.00    +0.049 A 
ATOM     11  C   UNL     1       1.947  -1.427  -3.517  0.00  0.00    +0.161 A 
ATOM     12  C   UNL     1       0.557  -1.427  -3.459  0.00  0.00    +0.162 A 
ATOM     13  C   UNL     1      -0.086  -0.986  -2.314  0.00  0.00    +0.051 A 
BRANCH  12  14
ATOM     14  O   UNL     1      -0.170  -1.865  -4.523  0.00  0.00    -0.491 OA
ATOM     15  C   UNL     1      -1.592  -1.837  -4.392  0.00  0.00    +0.277 C 
ENDBRANCH  12  14
BRANCH  11  16
ATOM     16  O   UNL     1       2.583  -1.863  -4.638  0.00  0.00    -0.491 OA
ATOM     17  C   UNL     1       4.011  -1.833  -4.626  0.00  0.00    +0.277 C 
ENDBRANCH  11  16
ENDBRANCH   7   8
ENDBRANCH   3   7
ENDBRANCH   1   3
BRANCH   1  18
ATOM     18  C   UNL     1       0.740  -0.518   3.623  0.00  0.00    +0.158 C 
ATOM     19  O   UNL     1       1.687  -1.271   3.520  0.00  0.00    -0.294 OA
BRANCH  18  20
ATOM     20  C   UNL     1       0.394   0.013   4.884  0.00  0.00    +0.118 A 
ATOM     21  C   UNL     1       1.049  -0.411   6.054  0.00  0.00    +0.116 A 
ATOM     22  N   UNL     1       0.679   0.132   7.251  0.00  0.00    -0.284 N 
ATOM     23  C   UNL     1      -0.293   1.055   7.329  0.00  0.00    +0.333 A 
ATOM     24  O   UNL     1      -0.585   1.507   8.418  0.00  0.00    -0.246 OA
ATOM     25  N   UNL     1      -0.953   1.497   6.247  0.00  0.00    -0.263 N 
ATOM     26  C   UNL     1      -0.659   1.029   5.016  0.00  0.00    +0.269 A 
ATOM     27  O   UNL     1      -1.256   1.436   4.037  0.00  0.00    -0.267 OA
ATOM     28  C   UNL     1      -2.003   2.507   6.403  0.00  0.00    +0.157 C 
ATOM     29  C   UNL     1       1.355  -0.303   8.476  0.00  0.00    +0.155 C 
BRANCH  21  30
ATOM     30  N   UNL     1       2.035  -1.346   5.994  0.00  0.00    -0.344 N 
ATOM     31  H   UNL     1       2.344  -1.670   5.134  0.00  0.00    +0.144 HD
ATOM     32  H   UNL     1       2.429  -1.688   6.811  0.00  0.00    +0.144 HD
ENDBRANCH  21  30
ENDBRANCH  18  20
ENDBRANCH   1  18
TORSDOF 8
