REMARK  Name = ZINC32994480
REMARK  12 active torsions:
REMARK  status: ('A' for Active; 'I' for Inactive)
REMARK    1  A    between atoms: C_1  and  C_2
REMARK    2  A    between atoms: C_2  and  C_3
REMARK    3  A    between atoms: C_3  and  C_4
REMARK    4  A    between atoms: C_4  and  N_5
REMARK    5  A    between atoms: N_5  and  C_6
REMARK    6  A    between atoms: C_7  and  N_19
REMARK    7  A    between atoms: N_8  and  C_15
REMARK    8  A    between atoms: C_15  and  C_16
REMARK    9  A    between atoms: C_16  and  C_17
REMARK   10  A    between atoms: C_16  and  C_18
REMARK   11  A    between atoms: C_20  and  C_22
REMARK   12  A    between atoms: C_23  and  C_35
REMARK                            x       y       z     vdW  Elec       q    Type
REMARK                         _______ _______ _______ _____ _____    ______ ____
ROOT
ATOM      1  N   UNL     1      -2.773  -2.588   0.011  0.00  0.00    -0.260 N 
ATOM      2  C   UNL     1      -3.363  -2.924   1.175  0.00  0.00    +0.258 C 
ATOM      3  O   UNL     1      -4.471  -3.430   1.172  0.00  0.00    -0.269 OA
ENDROOT
BRANCH   2   4
ATOM      4  C   UNL     1      -2.672  -2.680   2.445  0.00  0.00    +0.080 A 
ATOM      5  C   UNL     1      -3.044  -3.054   3.703  0.00  0.00    -0.017 A 
ATOM      6  C   UNL     1      -2.238  -2.722   4.794  0.00  0.00    +0.076 A 
ATOM      7  C   UNL     1      -1.062  -1.999   4.493  0.00  0.00    +0.116 A 
ATOM      8  S   UNL     1      -1.130  -1.827   2.728  0.00  0.00    -0.064 S 
ATOM      9  N   UNL     1      -0.216  -1.624   5.440  0.00  0.00    -0.226 NA
ATOM     10  C   UNL     1      -0.416  -1.897   6.706  0.00  0.00    +0.114 A 
ATOM     11  N   UNL     1      -1.512  -2.584   7.119  0.00  0.00    -0.296 N 
ATOM     12  C   UNL     1      -2.436  -3.016   6.229  0.00  0.00    +0.263 A 
ATOM     13  O   UNL     1      -3.415  -3.637   6.605  0.00  0.00    -0.267 OA
ATOM     14  C   UNL     1      -1.503  -2.751   8.584  0.00  0.00    +0.127 C 
ATOM     15  C   UNL     1      -0.051  -2.477   9.026  0.00  0.00    +0.029 C 
ATOM     16  C   UNL     1       0.451  -1.545   7.902  0.00  0.00    +0.076 C 
ATOM     17  C   UNL     1      -4.322  -3.825   3.914  0.00  0.00    +0.046 C 
ENDBRANCH   2   4
BRANCH   1  18
ATOM     18  C   UNL     1      -3.483  -2.713  -1.202  0.00  0.00    +0.140 A 
ATOM     19  C   UNL     1      -3.089  -3.631  -2.154  0.00  0.00    +0.127 A 
ATOM     20  N   UNL     1      -3.801  -3.730  -3.327  0.00  0.00    -0.280 N 
ATOM     21  C   UNL     1      -4.869  -2.942  -3.543  0.00  0.00    +0.331 A 
ATOM     22  O   UNL     1      -5.486  -3.044  -4.586  0.00  0.00    -0.246 OA
ATOM     23  N   UNL     1      -5.269  -2.042  -2.626  0.00  0.00    -0.273 N 
ATOM     24  H   UNL     1      -6.042  -1.486  -2.806  0.00  0.00    +0.173 HD
ATOM     25  C   UNL     1      -4.609  -1.909  -1.459  0.00  0.00    +0.277 A 
ATOM     26  O   UNL     1      -4.982  -1.093  -0.633  0.00  0.00    -0.266 OA
BRANCH  19  27
ATOM     27  N   UNL     1      -1.997  -4.436  -1.933  0.00  0.00    -0.343 N 
ATOM     28  H   UNL     1      -1.455  -4.312  -1.138  0.00  0.00    +0.144 HD
ATOM     29  H   UNL     1      -1.768  -5.129  -2.573  0.00  0.00    +0.144 HD
ENDBRANCH  19  27
BRANCH  20  30
ATOM     30  C   UNL     1      -3.393  -4.699  -4.346  0.00  0.00    +0.131 C 
BRANCH  30  31
ATOM     31  C   UNL     1      -4.106  -6.030  -4.099  0.00  0.00    +0.003 C 
ATOM     32  C   UNL     1      -5.612  -5.847  -4.294  0.00  0.00    +0.009 C 
ATOM     33  C   UNL     1      -3.587  -7.078  -5.086  0.00  0.00    +0.009 C 
ENDBRANCH  30  31
ENDBRANCH  20  30
ENDBRANCH   1  18
BRANCH   1  34
ATOM     34  C   UNL     1      -1.395  -2.092   0.005  0.00  0.00    +0.114 C 
BRANCH  34  35
ATOM     35  C   UNL     1      -1.399  -0.572   0.178  0.00  0.00    +0.019 C 
BRANCH  35  37
ATOM     36  C   UNL     1       0.037   1.466   0.346  0.00  0.00    +0.004 C 
ATOM     37  C   UNL     1       0.041  -0.054   0.172  0.00  0.00    -0.002 C 
ENDBRANCH  35  37
ENDBRANCH  34  35
ENDBRANCH   1  34
TORSDOF 8
