REMARK  Name = ZINC00679824
REMARK  6 active torsions:
REMARK  status: ('A' for Active; 'I' for Inactive)
REMARK    1  A    between atoms: C_1  and  C_2
REMARK    2  A    between atoms: C_4  and  C_8
REMARK    3  A    between atoms: N_6  and  C_7
REMARK    4  A    between atoms: N_10  and  N_11
REMARK    5  A    between atoms: C_12  and  C_13
REMARK    6  A    between atoms: C_22  and  O_23
REMARK                            x       y       z     vdW  Elec       q    Type
REMARK                         _______ _______ _______ _____ _____    ______ ____
ROOT
ATOM      1  N   UNL     1      -1.363   7.350   0.052  0.00  0.00    -0.187 NA
ATOM      2  C   UNL     1      -1.372   6.050   0.047  0.00  0.00    +0.142 C 
ENDROOT
BRANCH   2   3
ATOM      3  C   UNL     1      -0.104   5.307   0.031  0.00  0.00    +0.044 A 
ATOM      4  C   UNL     1      -0.096   3.845   0.024  0.00  0.00    -0.006 A 
ATOM      5  C   UNL     1      -1.286   3.107   0.032  0.00  0.00    +0.009 A 
ATOM      6  C   UNL     1      -1.234   1.745   0.017  0.00  0.00    +0.001 A 
ATOM      7  C   UNL     1      -0.013   1.076   0.008  0.00  0.00    +0.001 A 
ATOM      8  C   UNL     1       1.163   1.762   0.000  0.00  0.00    +0.008 A 
ATOM      9  C   UNL     1       1.148   3.168   0.008  0.00  0.00    -0.017 A 
ATOM     10  C   UNL     1       2.342   3.910   0.000  0.00  0.00    +0.012 A 
ATOM     11  C   UNL     1       2.316   5.269   0.007  0.00  0.00    +0.046 A 
ATOM     12  C   UNL     1       1.117   5.981   0.022  0.00  0.00    +0.126 A 
BRANCH  12  13
ATOM     13  O   UNL     1       1.138   7.338   0.028  0.00  0.00    -0.506 OA
ATOM     14  H   UNL     1       1.135   7.735  -0.854  0.00  0.00    +0.292 HD
ENDBRANCH  12  13
ENDBRANCH   2   3
BRANCH   1  17
ATOM     15  C   UNL     1      -2.563   9.406   0.073  0.00  0.00    +0.284 C 
ATOM     16  O   UNL     1      -1.505  10.007   0.066  0.00  0.00    -0.267 OA
ATOM     17  N   UNL     1      -2.572   8.058   0.068  0.00  0.00    -0.202 N 
ATOM     18  H   UNL     1      -3.415   7.579   0.074  0.00  0.00    +0.178 HD
BRANCH  15  22
ATOM     19  C   UNL     1      -6.006  13.126   0.125  0.00  0.00    +0.066 C 
ATOM     20  C   UNL     1      -5.322  11.783   0.111  0.00  0.00    +0.051 A 
ATOM     21  C   UNL     1      -3.986  11.560   0.102  0.00  0.00    +0.071 A 
ATOM     22  C   UNL     1      -3.836  10.153   0.089  0.00  0.00    +0.163 A 
ATOM     23  N   UNL     1      -5.048   9.634   0.099  0.00  0.00    -0.165 NA
ATOM     24  N   UNL     1      -5.929  10.570   0.112  0.00  0.00    -0.270 N 
ATOM     25  C   UNL     1      -7.378  10.357   0.125  0.00  0.00    +0.172 C 
ATOM     26 BR   UNL     1      -2.610  12.858   0.103  0.00  0.00    -0.046 Br
ENDBRANCH  15  22
ENDBRANCH   1  17
TORSDOF 4
