REMARK  Name = ZINC01462736
REMARK  4 active torsions:
REMARK  status: ('A' for Active; 'I' for Inactive)
REMARK    1  A    between atoms: C_3  and  N_17
REMARK    2  A    between atoms: C_6  and  C_7
REMARK    3  A    between atoms: N_9  and  C_10
REMARK    4  A    between atoms: C_10  and  C_12
REMARK                            x       y       z     vdW  Elec       q    Type
REMARK                         _______ _______ _______ _____ _____    ______ ____
ROOT
ATOM      1  C   UNL     1       0.002  -0.004   0.002  0.00  0.00    +0.245 C 
ATOM      2  O   UNL     1       1.063  -0.597  -0.011  0.00  0.00    -0.270 OA
ATOM      3  N   UNL     1      -0.016   1.344   0.009  0.00  0.00    -0.292 N 
ATOM      4  H   UNL     1      -0.863   1.817   0.016  0.00  0.00    +0.151 HD
ENDROOT
BRANCH   1  10
ATOM      5  C   UNL     1      -2.488  -0.082   0.031  0.00  0.00    +0.015 A 
ATOM      6  C   UNL     1      -3.670  -0.794   0.032  0.00  0.00    +0.033 A 
ATOM      7  C   UNL     1      -3.647  -2.178   0.025  0.00  0.00    +0.126 A 
ATOM      8  C   UNL     1      -2.442  -2.856   0.010  0.00  0.00    +0.033 A 
ATOM      9  C   UNL     1      -1.253  -2.156   0.002  0.00  0.00    +0.015 A 
ATOM     10  C   UNL     1      -1.268  -0.761   0.010  0.00  0.00    +0.037 A 
BRANCH   7  11
ATOM     11  N   UNL     1      -4.919  -2.935   0.033  0.00  0.00    +0.056 N 
ATOM     12  O   UNL     1      -4.902  -4.153   0.026  0.00  0.00    -0.126 OA
ATOM     13  O   UNL     1      -5.982  -2.341   0.046  0.00  0.00    -0.126 OA
ENDBRANCH   7  11
ENDBRANCH   1  10
BRANCH   3  14
ATOM     14  C   UNL     1       1.242   2.093   0.001  0.00  0.00    +0.217 C 
ATOM     15 CL   UNL     1       1.549   2.770   1.644  0.00  0.00    -0.097 Cl
BRANCH  14  16
ATOM     16  C   UNL     1       1.149   3.236  -1.012  0.00  0.00    +0.222 C 
ATOM     17 CL   UNL     1      -0.203   4.337  -0.553  0.00  0.00    -0.080 Cl
ATOM     18 CL   UNL     1       2.698   4.159  -1.021  0.00  0.00    -0.080 Cl
ATOM     19 CL   UNL     1       0.842   2.559  -2.654  0.00  0.00    -0.080 Cl
ENDBRANCH  14  16
ENDBRANCH   3  14
TORSDOF 4
