REMARK  Name = ZINC44833577
REMARK  5 active torsions:
REMARK  status: ('A' for Active; 'I' for Inactive)
REMARK    1  A    between atoms: C_1  and  C_2
REMARK    2  A    between atoms: C_2  and  C_3
REMARK    3  A    between atoms: C_3  and  C_5
REMARK    4  A    between atoms: C_3  and  C_8
REMARK    5  A    between atoms: C_5  and  N_7
REMARK                            x       y       z     vdW  Elec       q    Type
REMARK                         _______ _______ _______ _____ _____    ______ ____
ROOT
ATOM      1  C   UNL     1       0.592  -0.452  -1.234  0.00  0.00    +0.126 C 
ENDROOT
BRANCH   1   2
ATOM      2  C   UNL     1       2.006   0.039  -1.405  0.00  0.00    +0.225 C 
ATOM      3  O   UNL     1       2.914  -0.757  -1.527  0.00  0.00    -0.275 OA
ATOM      4  N   UNL     1       2.263   1.362  -1.423  0.00  0.00    -0.299 N 
ATOM      5  C   UNL     1       1.182   2.311  -1.155  0.00  0.00    +0.118 C 
ATOM      6  C   UNL     1       1.467   3.055   0.155  0.00  0.00    +0.088 C 
ATOM      7  S   UNL     1       3.085   3.873   0.018  0.00  0.00    -0.158 S 
ATOM      8  C   UNL     1       4.195   2.517  -0.465  0.00  0.00    +0.088 C 
ATOM      9  C   UNL     1       3.621   1.831  -1.703  0.00  0.00    +0.118 C 
ENDBRANCH   1   2
BRANCH   1  11
ATOM     10  C   UNL     1       1.191  -1.858   0.743  0.00  0.00    +0.005 C 
ATOM     11  C   UNL     1       0.610  -1.876  -0.673  0.00  0.00    +0.016 C 
ENDBRANCH   1  11
BRANCH   1  12
ATOM     12  C   UNL     1      -0.106  -0.448  -2.569  0.00  0.00    +0.058 C 
ATOM     13  S   UNL     1       0.747  -0.339  -3.917  0.00  0.00    -0.040 S 
BRANCH  12  14
ATOM     14  N   UNL     1      -1.450  -0.535  -2.627  0.00  0.00    -0.355 N 
ATOM     15  H   UNL     1      -1.968  -0.601  -1.810  0.00  0.00    +0.143 HD
ATOM     16  H   UNL     1      -1.900  -0.532  -3.487  0.00  0.00    +0.143 HD
ENDBRANCH  12  14
ENDBRANCH   1  12
TORSDOF 4
