REMARK  Name = ZINC48783557
REMARK  5 active torsions:
REMARK  status: ('A' for Active; 'I' for Inactive)
REMARK    1  A    between atoms: C_1  and  C_2
REMARK    2  A    between atoms: C_5  and  C_7
REMARK    3  A    between atoms: C_7  and  N_8
REMARK    4  A    between atoms: C_9  and  C_11
REMARK    5  A    between atoms: C_14  and  N_16
REMARK                            x       y       z     vdW  Elec       q    Type
REMARK                         _______ _______ _______ _____ _____    ______ ____
ROOT
ATOM      1  N   UNL     1       1.210  -4.510  -1.412  0.00  0.00    -0.304 N 
ATOM      2  C   UNL     1       1.680  -5.747  -1.667  0.00  0.00    +0.280 C 
ATOM      3  O   UNL     1       1.965  -6.492  -0.748  0.00  0.00    -0.267 OA
ATOM      4  H   UNL     1       0.983  -3.917  -2.144  0.00  0.00    +0.149 HD
ENDROOT
BRANCH   2   5
ATOM      5  C   UNL     1       1.847  -6.196  -3.054  0.00  0.00    +0.192 A 
ATOM      6  C   UNL     1       2.306  -7.419  -3.451  0.00  0.00    +0.057 A 
ATOM      7  C   UNL     1       2.302  -7.415  -4.855  0.00  0.00    +0.076 A 
ATOM      8  C   UNL     1       1.848  -6.204  -5.247  0.00  0.00    +0.280 A 
ATOM      9  O   UNL     1       1.570  -5.474  -4.159  0.00  0.00    -0.429 OA
BRANCH   8  10
ATOM     10  N   UNL     1       1.680  -5.760  -6.649  0.00  0.00    +0.093 N 
ATOM     11  O   UNL     1       1.960  -6.507  -7.558  0.00  0.00    -0.123 OA
ATOM     12  O   UNL     1       1.263  -4.650  -6.886  0.00  0.00    -0.123 OA
ENDBRANCH   8  10
ENDBRANCH   2   5
BRANCH   1  13
ATOM     13  C   UNL     1       1.043  -4.062  -0.027  0.00  0.00    +0.147 C 
BRANCH  13  18
ATOM     14  C   UNL     1      -0.018   1.503   0.010  0.00  0.00    +0.051 C 
ATOM     15  C   UNL     1       0.002  -0.004   0.002  0.00  0.00    -0.013 A 
ATOM     16  C   UNL     1      -1.039  -0.872   0.002  0.00  0.00    +0.011 A 
ATOM     17  C   UNL     1      -0.780  -2.230  -0.007  0.00  0.00    +0.013 A 
ATOM     18  C   UNL     1       0.507  -2.653  -0.016  0.00  0.00    +0.007 A 
ATOM     19  S   UNL     1       1.404  -1.109  -0.018  0.00  0.00    -0.097 S 
ENDBRANCH  13  18
ENDBRANCH   1  13
TORSDOF 4
