REMARK  Name = ZINC32250317
REMARK  10 active torsions:
REMARK  status: ('A' for Active; 'I' for Inactive)
REMARK    1  A    between atoms: C_1  and  C_2
REMARK    2  A    between atoms: C_2  and  C_3
REMARK    3  A    between atoms: C_8  and  N_9
REMARK    4  A    between atoms: C_10  and  C_12
REMARK    5  A    between atoms: C_13  and  N_14
REMARK    6  A    between atoms: C_13  and  C_28
REMARK    7  A    between atoms: N_14  and  N_15
REMARK    8  A    between atoms: C_16  and  C_18
REMARK    9  A    between atoms: N_20  and  C_21
REMARK   10  A    between atoms: C_25  and  C_27
REMARK                            x       y       z     vdW  Elec       q    Type
REMARK                         _______ _______ _______ _____ _____    ______ ____
ROOT
ATOM      1  N   UNL     1      -5.161  -0.481   4.759  0.00  0.00    -0.268 N 
ATOM      2  H   UNL     1      -5.618  -0.737   5.575  0.00  0.00    +0.170 HD
ENDROOT
BRANCH   1   3
ATOM      3  N   UNL     1      -5.897  -0.018   3.660  0.00  0.00    -0.229 N 
ATOM      4  C   UNL     1      -7.239   0.072   3.738  0.00  0.00    +0.315 C 
ATOM      5  O   UNL     1      -7.811  -0.248   4.759  0.00  0.00    -0.264 OA
ATOM      6  H   UNL     1      -5.440   0.238   2.844  0.00  0.00    +0.173 HD
BRANCH   4   7
ATOM      7  C   UNL     1      -8.023   0.566   2.567  0.00  0.00    +0.305 C 
ATOM      8  O   UNL     1      -7.452   0.886   1.545  0.00  0.00    -0.265 OA
ATOM      9  N   UNL     1      -9.366   0.656   2.644  0.00  0.00    -0.278 N 
ATOM     10  H   UNL     1      -9.817   0.472   3.483  0.00  0.00    +0.155 HD
BRANCH   9  11
ATOM     11  C   UNL     1     -10.108   1.013   1.516  0.00  0.00    +0.034 A 
ATOM     12  C   UNL     1     -11.264   1.772   1.655  0.00  0.00    +0.023 A 
ATOM     13  C   UNL     1     -11.995   2.124   0.538  0.00  0.00    +0.002 A 
ATOM     14  C   UNL     1     -11.579   1.722  -0.719  0.00  0.00    +0.003 A 
ATOM     15  C   UNL     1     -10.429   0.967  -0.860  0.00  0.00    -0.049 A 
ATOM     16  C   UNL     1      -9.690   0.616   0.252  0.00  0.00    +0.026 A 
ATOM     17  C   UNL     1      -9.979   0.531  -2.231  0.00  0.00    +0.044 C 
ENDBRANCH   9  11
ENDBRANCH   4   7
ENDBRANCH   1   3
BRANCH   1  19
ATOM     18  C   UNL     1      -3.164  -0.216   3.545  0.00  0.00    +0.087 C 
ATOM     19  C   UNL     1      -3.799  -0.572   4.680  0.00  0.00    +0.024 C 
ATOM     20  C   UNL     1      -3.008  -1.070   5.862  0.00  0.00    +0.062 C 
BRANCH  18  22
ATOM     21  N   UNL     1      -1.117   0.193   2.377  0.00  0.00    -0.282 N 
ATOM     22  C   UNL     1      -1.752  -0.153   3.515  0.00  0.00    +0.243 C 
ATOM     23  O   UNL     1      -1.109  -0.411   4.517  0.00  0.00    -0.270 OA
ATOM     24  H   UNL     1      -1.628   0.463   1.599  0.00  0.00    +0.155 HD
BRANCH  21  30
ATOM     25  C   UNL     1       0.921  -0.186   1.138  0.00  0.00    -0.026 A 
ATOM     26  C   UNL     1       2.301  -0.209   1.082  0.00  0.00    +0.005 A 
ATOM     27  C   UNL     1       3.045   0.108   2.204  0.00  0.00    +0.000 A 
ATOM     28  C   UNL     1       2.410   0.449   3.384  0.00  0.00    +0.002 A 
ATOM     29  C   UNL     1       1.031   0.474   3.446  0.00  0.00    +0.023 A 
ATOM     30  C   UNL     1       0.281   0.162   2.320  0.00  0.00    +0.037 A 
BRANCH  25  32
ATOM     31  C   UNL     1      -0.256   0.751  -0.834  0.00  0.00    +0.009 C 
ATOM     32  C   UNL     1       0.111  -0.532  -0.085  0.00  0.00    +0.033 C 
ENDBRANCH  25  32
ENDBRANCH  21  30
ENDBRANCH  18  22
ENDBRANCH   1  19
TORSDOF 7
