REMARK  Name = ZINC44670752
REMARK  12 active torsions:
REMARK  status: ('A' for Active; 'I' for Inactive)
REMARK    1  A    between atoms: C_1  and  C_2
REMARK    2  A    between atoms: C_11  and  C_28
REMARK    3  A    between atoms: C_11  and  O_39
REMARK    4  A    between atoms: C_12  and  C_27
REMARK    5  A    between atoms: C_14  and  O_26
REMARK    6  A    between atoms: C_18  and  C_25
REMARK    7  A    between atoms: C_28  and  C_30
REMARK    8  A    between atoms: C_30  and  O_31
REMARK    9  A    between atoms: O_31  and  C_32
REMARK   10  A    between atoms: C_32  and  C_34
REMARK   11  A    between atoms: C_34  and  C_35
REMARK   12  A    between atoms: C_35  and  C_36
REMARK                            x       y       z     vdW  Elec       q    Type
REMARK                         _______ _______ _______ _____ _____    ______ ____
ROOT
ATOM      1  C   UNL     1      -0.113   1.548  -0.008  0.00  0.00    +0.012 C 
ATOM      2  C   UNL     1      -0.070   0.019  -0.012  0.00  0.00    +0.013 C 
ATOM      3  C   UNL     1       0.650  -0.466  -1.271  0.00  0.00    +0.012 C 
ATOM      4  C   UNL     1       0.879  -1.974  -1.136  0.00  0.00    -0.000 C 
ATOM      5  C   UNL     1      -0.381  -2.661  -0.646  0.00  0.00    +0.002 C 
ATOM      6  C   UNL     1      -1.594  -2.582  -1.579  0.00  0.00    +0.008 C 
ATOM      7  C   UNL     1      -2.449  -3.803  -1.142  0.00  0.00    +0.043 C 
ATOM      8  C   UNL     1      -1.471  -4.809  -0.486  0.00  0.00    +0.133 C 
ATOM      9  C   UNL     1      -0.080  -4.185  -0.620  0.00  0.00    +0.009 C 
ATOM     10  C   UNL     1       0.911  -4.434   0.498  0.00  0.00    +0.041 C 
ATOM     11  C   UNL     1       2.214  -3.705   0.127  0.00  0.00    +0.120 C 
ATOM     12  C   UNL     1       1.979  -2.211  -0.097  0.00  0.00    +0.035 C 
ATOM     13  C   UNL     1       1.690  -1.530   1.211  0.00  0.00    +0.013 C 
ATOM     14  C   UNL     1       0.656  -0.461   1.211  0.00  0.00    -0.053 C 
ATOM     15  C   UNL     1       0.349   0.102   2.402  0.00  0.00    +0.051 C 
ATOM     16  C   UNL     1       1.076  -0.471   3.568  0.00  0.00    +0.179 C 
ATOM     17  O   UNL     1       1.526   0.220   4.464  0.00  0.00    -0.288 OA
ATOM     18  C   UNL     1       1.210  -1.954   3.554  0.00  0.00    +0.047 C 
ATOM     19  C   UNL     1       1.504  -2.489   2.354  0.00  0.00    -0.012 C 
ATOM     20  C   UNL     1       2.984  -0.789   1.552  0.00  0.00    +0.020 C 
ATOM     21  C   UNL     1       0.534  -4.612  -1.955  0.00  0.00    +0.015 C 
ENDROOT
BRANCH  11  22
ATOM     22  O   UNL     1       3.164  -3.878   1.181  0.00  0.00    -0.391 OA
ATOM     23  H   UNL     1       3.390  -4.801   1.359  0.00  0.00    +0.210 HD
ENDBRANCH  11  22
BRANCH   8  24
ATOM     24  C   UNL     1      -1.803  -4.984   0.973  0.00  0.00    +0.202 C 
ATOM     25  O   UNL     1      -2.281  -4.068   1.598  0.00  0.00    -0.291 OA
BRANCH  24  26
ATOM     26  C   UNL     1      -1.537  -6.302   1.654  0.00  0.00    +0.309 C 
BRANCH  26  27
ATOM     27  O   UNL     1      -1.933  -6.219   3.025  0.00  0.00    -0.457 OA
BRANCH  27  28
ATOM     28  C   UNL     1      -1.761  -7.318   3.776  0.00  0.00    +0.308 C 
ATOM     29  O   UNL     1      -1.290  -8.317   3.287  0.00  0.00    -0.251 OA
BRANCH  28  30
ATOM     30  C   UNL     1      -2.155  -7.305   5.231  0.00  0.00    +0.132 C 
BRANCH  30  31
ATOM     31  C   UNL     1      -1.857  -8.671   5.852  0.00  0.00    +0.136 C 
BRANCH  31  32
ATOM     32  C   UNL     1      -2.252  -8.658   7.306  0.00  0.00    +0.357 C 
ATOM     33  O   UNL     1      -2.726  -7.650   7.800  0.00  0.00    -0.246 OA
ATOM     34  O   UNL     1      -2.095  -9.656   7.989  0.00  0.00    -0.246 OA
ENDBRANCH  31  32
ENDBRANCH  30  31
ENDBRANCH  28  30
ENDBRANCH  27  28
ENDBRANCH  26  27
ENDBRANCH  24  26
ENDBRANCH   8  24
BRANCH   8  35
ATOM     35  O   UNL     1      -1.527  -6.067  -1.162  0.00  0.00    -0.380 OA
ATOM     36  H   UNL     1      -2.396  -6.492  -1.131  0.00  0.00    +0.211 HD
ENDBRANCH   8  35
TORSDOF 9
