REMARK  Name = ZINC13540538
REMARK  6 active torsions:
REMARK  status: ('A' for Active; 'I' for Inactive)
REMARK    1  A    between atoms: C_1  and  N_2
REMARK    2  A    between atoms: N_7  and  C_10
REMARK    3  A    between atoms: C_10  and  C_11
REMARK    4  A    between atoms: C_11  and  C_12
REMARK    5  A    between atoms: C_12  and  O_13
REMARK    6  A    between atoms: N_17  and  C_20
REMARK                            x       y       z     vdW  Elec       q    Type
REMARK                         _______ _______ _______ _____ _____    ______ ____
ROOT
ATOM      1  C   UNL     1      -0.143  -1.871   4.637  0.00  0.00    +0.155 C 
ATOM      2  N   UNL     1       0.260  -0.577   4.081  0.00  0.00    -0.280 N 
ATOM      3  C   UNL     1       1.281   0.146   4.678  0.00  0.00    +0.170 A 
ATOM      4  C   UNL     1       1.642   1.371   4.130  0.00  0.00    +0.153 A 
ATOM      5  C   UNL     1       0.966   1.841   2.991  0.00  0.00    +0.282 A 
ATOM      6  O   UNL     1       1.267   2.913   2.494  0.00  0.00    -0.265 OA
ATOM      7  N   UNL     1      -0.020   1.094   2.454  0.00  0.00    -0.259 N 
ATOM      8  C   UNL     1      -0.366  -0.087   2.994  0.00  0.00    +0.333 A 
ATOM      9  O   UNL     1      -1.264  -0.732   2.487  0.00  0.00    -0.246 OA
ATOM     10  N   UNL     1       2.674   1.861   4.920  0.00  0.00    -0.304 N 
ATOM     11  C   UNL     1       2.904   0.950   5.895  0.00  0.00    +0.205 A 
ATOM     12  N   UNL     1       2.063  -0.067   5.735  0.00  0.00    -0.196 NA
ATOM     13  N   UNL     1       3.918   1.340   6.745  0.00  0.00    -0.269 N 
ATOM     14  C   UNL     1       4.436   2.644   6.313  0.00  0.00    +0.135 C 
ATOM     15  C   UNL     1       3.592   2.997   5.076  0.00  0.00    +0.144 C 
ENDROOT
BRANCH  13  16
ATOM     16  C   UNL     1       4.381   0.609   7.843  0.00  0.00    +0.037 A 
ATOM     17  C   UNL     1       5.417   1.106   8.624  0.00  0.00    +0.025 A 
ATOM     18  C   UNL     1       5.867   0.384   9.712  0.00  0.00    +0.022 A 
ATOM     19  C   UNL     1       5.296  -0.839  10.017  0.00  0.00    +0.041 A 
ATOM     20  C   UNL     1       4.268  -1.339   9.238  0.00  0.00    +0.022 A 
ATOM     21  C   UNL     1       3.809  -0.618   8.153  0.00  0.00    +0.025 A 
ATOM     22 CL   UNL     1       5.870  -1.746  11.381  0.00  0.00    -0.084 Cl
ENDBRANCH  13  16
BRANCH   7  23
ATOM     23  C   UNL     1      -0.729   1.579   1.267  0.00  0.00    +0.132 C 
BRANCH  23  24
ATOM     24  C   UNL     1      -0.013   1.086   0.008  0.00  0.00    +0.049 C 
BRANCH  24  25
ATOM     25  C   UNL     1      -0.753   1.593  -1.232  0.00  0.00    +0.157 C 
BRANCH  25  26
ATOM     26  O   UNL     1      -0.084   1.132  -2.407  0.00  0.00    -0.395 OA
ATOM     27  H   UNL     1      -0.499   1.416  -3.233  0.00  0.00    +0.209 HD
ENDBRANCH  25  26
ENDBRANCH  24  25
ENDBRANCH  23  24
ENDBRANCH   7  23
TORSDOF 5
