REMARK  Name = ZINC01235348
REMARK  5 active torsions:
REMARK  status: ('A' for Active; 'I' for Inactive)
REMARK    1  A    between atoms: C_1  and  C_2
REMARK    2  A    between atoms: C_2  and  C_3
REMARK    3  A    between atoms: C_2  and  C_4
REMARK    4  A    between atoms: C_4  and  C_5
REMARK    5  A    between atoms: C_13  and  C_19
REMARK                            x       y       z     vdW  Elec       q    Type
REMARK                         _______ _______ _______ _____ _____    ______ ____
ROOT
ATOM      1  C   UNL     1      -0.030  -0.130   2.478  0.00  0.00    +0.220 C 
ATOM      2  O   UNL     1      -1.069   0.487   2.378  0.00  0.00    -0.275 OA
ATOM      3  N   UNL     1       0.435  -0.473   3.696  0.00  0.00    -0.253 N 
ATOM      4  C   UNL     1      -0.281  -0.119   4.843  0.00  0.00    +0.242 A 
ATOM      5  N   UNL     1      -1.440   0.554   4.861  0.00  0.00    -0.180 NA
ATOM      6  C   UNL     1      -1.834   0.715   6.094  0.00  0.00    +0.222 A 
ATOM      7  N   UNL     1      -0.915   0.134   6.906  0.00  0.00    -0.223 N 
ATOM      8  N   UNL     1       0.071  -0.398   6.080  0.00  0.00    -0.131 NA
ATOM      9  C   UNL     1      -1.033   0.118   8.363  0.00  0.00    +0.149 C 
ATOM     10  C   UNL     1      -2.518   0.136   8.735  0.00  0.00    +0.128 C 
ATOM     11  C   UNL     1      -3.276   1.127   7.898  0.00  0.00    +0.222 C 
ATOM     12  O   UNL     1      -4.191   1.746   8.398  0.00  0.00    -0.275 OA
ATOM     13  N   UNL     1      -2.963   1.346   6.601  0.00  0.00    -0.255 N 
ATOM     14  H   UNL     1       1.267  -0.967   3.776  0.00  0.00    +0.158 HD
ATOM     15  H   UNL     1      -3.507   1.924   6.044  0.00  0.00    +0.158 HD
ENDROOT
BRANCH   9  16
ATOM     16  C   UNL     1      -0.349   1.331   8.939  0.00  0.00    -0.022 A 
ATOM     17  C   UNL     1      -0.779   2.598   8.590  0.00  0.00    +0.007 A 
ATOM     18  C   UNL     1      -0.153   3.711   9.117  0.00  0.00    +0.020 A 
ATOM     19  C   UNL     1       0.905   3.557   9.996  0.00  0.00    +0.041 A 
ATOM     20  C   UNL     1       1.335   2.290  10.345  0.00  0.00    +0.020 A 
ATOM     21  C   UNL     1       0.704   1.177   9.821  0.00  0.00    +0.007 A 
ATOM     22 CL   UNL     1       1.693   4.955  10.659  0.00  0.00    -0.084 Cl
ENDBRANCH   9  16
BRANCH   1  23
ATOM     23  C   UNL     1       0.742  -0.511   1.242  0.00  0.00    +0.099 C 
BRANCH  23  25
ATOM     24  C   UNL     1      -0.019   1.526   0.010  0.00  0.00    +0.008 C 
ATOM     25  C   UNL     1       0.002  -0.004   0.002  0.00  0.00    -0.008 C 
ATOM     26  C   UNL     1       0.718  -0.497  -1.257  0.00  0.00    +0.008 C 
ENDBRANCH  23  25
ENDBRANCH   1  23
TORSDOF 3
