REMARK  Name = ZINC39632445
REMARK  4 active torsions:
REMARK  status: ('A' for Active; 'I' for Inactive)
REMARK    1  A    between atoms: C_1  and  C_2
REMARK    2  A    between atoms: C_7  and  C_10
REMARK    3  A    between atoms: C_14  and  C_23
REMARK    4  A    between atoms: N_25  and  C_26
REMARK                            x       y       z     vdW  Elec       q    Type
REMARK                         _______ _______ _______ _____ _____    ______ ____
ROOT
ATOM      1  C   UNL     1      -4.290  -2.550   2.367  0.00  0.00    +0.219 C 
ATOM      2  O   UNL     1      -4.688  -1.828   3.257  0.00  0.00    -0.275 OA
ATOM      3  N   UNL     1      -4.599  -3.862   2.376  0.00  0.00    -0.300 N 
ATOM      4  C   UNL     1      -4.116  -4.916   1.453  0.00  0.00    +0.121 C 
ATOM      5  C   UNL     1      -3.884  -6.149   2.354  0.00  0.00    +0.100 C 
ATOM      6  C   UNL     1      -4.796  -5.922   3.572  0.00  0.00    -0.004 C 
ATOM      7  C   UNL     1      -5.495  -4.579   3.316  0.00  0.00    +0.115 C 
ATOM      8  C   UNL     1      -3.964  -5.843   4.848  0.00  0.00    -0.010 C 
ATOM      9  C   UNL     1      -4.897  -5.674   6.050  0.00  0.00    -0.082 C 
ATOM     10  N   UNL     1      -5.824  -6.811   6.116  0.00  0.00    +0.379 N 
ATOM     11  C   UNL     1      -6.684  -6.825   4.927  0.00  0.00    -0.082 C 
ATOM     12  C   UNL     1      -5.826  -7.042   3.677  0.00  0.00    -0.010 C 
ATOM     13  H   UNL     1      -5.297  -7.670   6.159  0.00  0.00    -0.086 HD
ATOM     14  H   UNL     1      -6.397  -6.729   6.943  0.00  0.00    -0.086 HD
ENDROOT
BRANCH   1  21
ATOM     15  C   UNL     1      -3.567   1.462  -2.386  0.00  0.00    +0.109 C 
ATOM     16  C   UNL     1      -2.699   1.248  -1.173  0.00  0.00    +0.212 C 
ATOM     17  O   UNL     1      -2.018   2.156  -0.746  0.00  0.00    -0.276 OA
ATOM     18  N   UNL     1      -2.679   0.046  -0.562  0.00  0.00    -0.302 N 
ATOM     19  C   UNL     1      -3.494  -1.066  -1.071  0.00  0.00    +0.108 C 
ATOM     20  C   UNL     1      -4.354  -1.611   0.073  0.00  0.00    +0.032 C 
ATOM     21  C   UNL     1      -3.451  -1.982   1.252  0.00  0.00    +0.078 C 
ATOM     22  C   UNL     1      -2.721  -0.732   1.750  0.00  0.00    +0.032 C 
ATOM     23  C   UNL     1      -1.838  -0.178   0.622  0.00  0.00    +0.108 C 
ENDBRANCH   1  21
BRANCH   5  24
ATOM     24  C   UNL     1      -2.441  -6.222   2.783  0.00  0.00    +0.218 C 
ATOM     25  O   UNL     1      -1.808  -5.202   2.956  0.00  0.00    -0.275 OA
ATOM     26  N   UNL     1      -1.855  -7.420   2.974  0.00  0.00    -0.312 N 
ATOM     27  H   UNL     1      -2.362  -8.236   2.836  0.00  0.00    +0.149 HD
BRANCH  26  28
ATOM     28  C   UNL     1      -0.452  -7.491   3.391  0.00  0.00    +0.073 C 
ATOM     29  C   UNL     1       0.468  -7.482   2.153  0.00  0.00    +0.022 C 
ATOM     30  C   UNL     1       1.619  -8.448   2.528  0.00  0.00    +0.002 C 
ATOM     31  C   UNL     1       0.885  -9.567   3.309  0.00  0.00    +0.002 C 
ATOM     32  C   UNL     1      -0.187  -8.817   4.126  0.00  0.00    +0.022 C 
ENDBRANCH  26  28
ENDBRANCH   5  24
TORSDOF 3
