REMARK  Name = ZINC66244029
REMARK  8 active torsions:
REMARK  status: ('A' for Active; 'I' for Inactive)
REMARK    1  A    between atoms: C_1  and  C_2
REMARK    2  A    between atoms: N_5  and  C_11
REMARK    3  A    between atoms: C_7  and  C_10
REMARK    4  A    between atoms: C_11  and  C_12
REMARK    5  A    between atoms: C_17  and  C_18
REMARK    6  A    between atoms: C_18  and  N_19
REMARK    7  A    between atoms: N_22  and  C_23
REMARK    8  A    between atoms: C_23  and  C_24
REMARK                            x       y       z     vdW  Elec       q    Type
REMARK                         _______ _______ _______ _____ _____    ______ ____
ROOT
ATOM      1  C   UNL     1       4.969  -1.588  -0.936  0.00  0.00    +0.151 C 
ENDROOT
BRANCH   1   2
ATOM      2  N   UNL     1       5.006  -2.656  -1.939  0.00  0.00    -0.354 N 
ATOM      3  C   UNL     1       4.868  -3.968  -1.552  0.00  0.00    +0.169 C 
ATOM      4  N   UNL     1       4.664  -4.259  -0.298  0.00  0.00    -0.371 N 
ATOM      5  N   UNL     1       4.946  -4.972  -2.487  0.00  0.00    -0.354 N 
ATOM      6  H   UNL     1       5.127  -2.437  -2.876  0.00  0.00    +0.163 HD
ATOM      7  H   UNL     1       4.567  -5.185  -0.025  0.00  0.00    +0.159 HD
ATOM      8  H   UNL     1       5.176  -4.763  -3.406  0.00  0.00    +0.163 HD
ATOM      9  H   UNL     1       4.609  -3.550   0.362  0.00  0.00    +0.159 HD
BRANCH   5  10
ATOM     10  C   UNL     1       4.683  -6.359  -2.096  0.00  0.00    +0.151 C 
BRANCH  10  11
ATOM     11  C   UNL     1       4.833  -7.257  -3.297  0.00  0.00    -0.028 A 
ATOM     12  C   UNL     1       3.743  -7.516  -4.107  0.00  0.00    +0.005 A 
ATOM     13  C   UNL     1       3.881  -8.340  -5.208  0.00  0.00    +0.000 A 
ATOM     14  C   UNL     1       5.109  -8.904  -5.500  0.00  0.00    +0.000 A 
ATOM     15  C   UNL     1       6.199  -8.644  -4.691  0.00  0.00    +0.000 A 
ATOM     16  C   UNL     1       6.062  -7.817  -3.592  0.00  0.00    +0.005 A 
ENDBRANCH  10  11
ENDBRANCH   5  10
ENDBRANCH   1   2
BRANCH   1  22
ATOM     17  C   UNL     1       4.274   0.408  -2.277  0.00  0.00    -0.029 A 
ATOM     18  C   UNL     1       4.548   1.622  -2.878  0.00  0.00    +0.005 A 
ATOM     19  C   UNL     1       5.820   2.158  -2.805  0.00  0.00    +0.000 A 
ATOM     20  C   UNL     1       6.818   1.480  -2.129  0.00  0.00    +0.000 A 
ATOM     21  C   UNL     1       6.543   0.266  -1.527  0.00  0.00    +0.006 A 
ATOM     22  C   UNL     1       5.270  -0.268  -1.597  0.00  0.00    -0.024 A 
BRANCH  17  23
ATOM     23  C   UNL     1       2.887  -0.177  -2.357  0.00  0.00    +0.120 C 
BRANCH  23  27
ATOM     24  C   UNL     1       2.732  -4.054  -4.092  0.00  0.00    +0.039 C 
ATOM     25  C   UNL     1       1.614  -3.062  -4.417  0.00  0.00    +0.130 C 
ATOM     26  C   UNL     1       1.585  -1.958  -3.356  0.00  0.00    +0.116 C 
ATOM     27  N   UNL     1       2.850  -1.211  -3.399  0.00  0.00    -0.293 NA
ATOM     28  C   UNL     1       3.064  -0.624  -4.731  0.00  0.00    +0.116 C 
ATOM     29  C   UNL     1       3.078  -1.741  -5.778  0.00  0.00    +0.130 C 
ATOM     30  O   UNL     1       1.853  -2.477  -5.700  0.00  0.00    -0.371 OA
ATOM     31  C   UNL     1       3.220  -1.131  -7.173  0.00  0.00    +0.039 C 
ENDBRANCH  23  27
ENDBRANCH  17  23
ENDBRANCH   1  22
TORSDOF 6
