REMARK  Name = ZINC16544049
REMARK  10 active torsions:
REMARK  status: ('A' for Active; 'I' for Inactive)
REMARK    1  A    between atoms: C_1  and  C_2
REMARK    2  A    between atoms: C_2  and  C_3
REMARK    3  A    between atoms: C_3  and  C_4
REMARK    4  A    between atoms: C_4  and  N_5
REMARK    5  A    between atoms: C_6  and  N_37
REMARK    6  A    between atoms: C_7  and  N_14
REMARK    7  A    between atoms: N_14  and  C_15
REMARK    8  A    between atoms: C_15  and  C_16
REMARK    9  A    between atoms: C_22  and  C_24
REMARK   10  A    between atoms: C_24  and  N_25
REMARK                            x       y       z     vdW  Elec       q    Type
REMARK                         _______ _______ _______ _____ _____    ______ ____
ROOT
ATOM      1  N   UNL     1      -6.673   4.439  -1.548  0.00  0.00    -0.258 N 
ATOM      2  C   UNL     1      -5.330   4.317  -1.593  0.00  0.00    +0.240 C 
ATOM      3  O   UNL     1      -4.753   4.357  -2.660  0.00  0.00    -0.273 OA
ENDROOT
BRANCH   1   6
ATOM      4  N   UNL     1      -8.803   5.707  -4.259  0.00  0.00    -0.280 N 
ATOM      5  C   UNL     1      -8.088   5.667  -3.085  0.00  0.00    +0.127 A 
ATOM      6  C   UNL     1      -7.416   4.511  -2.745  0.00  0.00    +0.140 A 
ATOM      7  C   UNL     1      -7.480   3.406  -3.615  0.00  0.00    +0.277 A 
ATOM      8  O   UNL     1      -6.892   2.374  -3.341  0.00  0.00    -0.266 OA
ATOM      9  N   UNL     1      -8.200   3.496  -4.750  0.00  0.00    -0.273 N 
ATOM     10  H   UNL     1      -8.252   2.709  -5.366  0.00  0.00    +0.173 HD
ATOM     11  C   UNL     1      -8.848   4.631  -5.066  0.00  0.00    +0.331 A 
ATOM     12  O   UNL     1      -9.487   4.686  -6.099  0.00  0.00    -0.246 OA
BRANCH   5  13
ATOM     13  N   UNL     1      -8.043   6.766  -2.261  0.00  0.00    -0.343 N 
ATOM     14  H   UNL     1      -7.463   6.765  -1.483  0.00  0.00    +0.144 HD
ATOM     15  H   UNL     1      -8.591   7.542  -2.457  0.00  0.00    +0.144 HD
ENDBRANCH   5  13
BRANCH   4  16
ATOM     16  C   UNL     1      -9.521   6.928  -4.633  0.00  0.00    +0.128 C 
BRANCH  16  17
ATOM     17  C   UNL     1      -8.601   7.827  -5.461  0.00  0.00    +0.021 C 
BRANCH  17  19
ATOM     18  C   UNL     1      -8.430  10.002  -6.680  0.00  0.00    +0.004 C 
ATOM     19  C   UNL     1      -9.350   9.102  -5.852  0.00  0.00    -0.002 C 
ENDBRANCH  17  19
ENDBRANCH  16  17
ENDBRANCH   4  16
ENDBRANCH   1   6
BRANCH   1  20
ATOM     20  C   UNL     1      -7.359   4.497  -0.255  0.00  0.00    +0.149 C 
BRANCH  20  21
ATOM     21  C   UNL     1      -7.844   3.119   0.119  0.00  0.00    -0.030 A 
ATOM     22  C   UNL     1      -9.064   2.667  -0.346  0.00  0.00    +0.005 A 
ATOM     23  C   UNL     1      -9.506   1.401  -0.008  0.00  0.00    +0.000 A 
ATOM     24  C   UNL     1      -8.733   0.593   0.804  0.00  0.00    +0.000 A 
ATOM     25  C   UNL     1      -7.515   1.048   1.274  0.00  0.00    +0.000 A 
ATOM     26  C   UNL     1      -7.071   2.311   0.931  0.00  0.00    +0.005 A 
ENDBRANCH  20  21
ENDBRANCH   1  20
BRANCH   2  27
ATOM     27  C   UNL     1      -4.546   4.131  -0.320  0.00  0.00    +0.222 C 
BRANCH  27  28
ATOM     28  N   UNL     1      -3.115   4.074  -0.630  0.00  0.00    -0.290 N 
ATOM     29  C   UNL     1      -2.532   2.877  -0.898  0.00  0.00    +0.203 A 
ATOM     30  N   UNL     1      -1.272   2.744  -1.182  0.00  0.00    -0.237 NA
ATOM     31  C   UNL     1      -0.439   3.813  -1.236  0.00  0.00    +0.081 A 
ATOM     32  C   UNL     1       0.917   3.672  -1.534  0.00  0.00    +0.067 A 
ATOM     33  C   UNL     1       1.725   4.790  -1.569  0.00  0.00    +0.125 A 
ATOM     34  C   UNL     1       1.204   6.053  -1.307  0.00  0.00    +0.039 A 
ATOM     35  C   UNL     1      -0.120   6.214  -1.008  0.00  0.00    +0.018 A 
ATOM     36  C   UNL     1      -0.957   5.100  -0.965  0.00  0.00    +0.065 A 
ATOM     37  C   UNL     1      -2.387   5.215  -0.647  0.00  0.00    +0.262 A 
ATOM     38  O   UNL     1      -2.897   6.294  -0.409  0.00  0.00    -0.267 OA
ATOM     39  F   UNL     1       3.037   4.656  -1.863  0.00  0.00    -0.205 F 
ENDBRANCH  27  28
ENDBRANCH   2  27
TORSDOF 9
