REMARK  Name = ZINC40798602
REMARK  11 active torsions:
REMARK  status: ('A' for Active; 'I' for Inactive)
REMARK    1  A    between atoms: C_1  and  C_2
REMARK    2  A    between atoms: C_2  and  C_3
REMARK    3  A    between atoms: C_3  and  C_5
REMARK    4  A    between atoms: C_3  and  N_6
REMARK    5  A    between atoms: C_8  and  N_25
REMARK    6  A    between atoms: C_9  and  N_13
REMARK    7  A    between atoms: N_13  and  C_14
REMARK    8  A    between atoms: C_17  and  O_22
REMARK    9  A    between atoms: C_19  and  O_20
REMARK   10  A    between atoms: O_20  and  C_21
REMARK   11  A    between atoms: O_22  and  C_23
REMARK                            x       y       z     vdW  Elec       q    Type
REMARK                         _______ _______ _______ _____ _____    ______ ____
ROOT
ATOM      1  N   UNL     1      -2.116   0.999  -1.046  0.00  0.00    -0.325 N 
ATOM      2  C   UNL     1      -3.497   0.861  -1.120  0.00  0.00    +0.145 A 
ATOM      3  C   UNL     1      -4.147   0.895  -2.355  0.00  0.00    +0.105 A 
ATOM      4  C   UNL     1      -5.536   0.752  -2.373  0.00  0.00    +0.149 A 
ATOM      5  N   UNL     1      -6.182   0.589  -1.220  0.00  0.00    -0.219 NA
ATOM      6  C   UNL     1      -5.529   0.562  -0.076  0.00  0.00    +0.225 A 
ATOM      7  N   UNL     1      -4.219   0.688  -0.016  0.00  0.00    -0.219 NA
ATOM      8  H   UNL     1      -1.597   1.125  -1.856  0.00  0.00    +0.148 HD
ENDROOT
BRANCH   3   9
ATOM      9  N   UNL     1      -3.425   1.070  -3.547  0.00  0.00    -0.353 N 
ATOM     10  H   UNL     1      -2.461   1.169  -3.519  0.00  0.00    +0.143 HD
ATOM     11  H   UNL     1      -3.891   1.092  -4.397  0.00  0.00    +0.143 HD
ENDBRANCH   3   9
BRANCH   1  12
ATOM     12  C   UNL     1      -1.444   0.955   0.255  0.00  0.00    +0.068 C 
ATOM     13  C   UNL     1      -1.172  -0.500   0.639  0.00  0.00    +0.028 C 
BRANCH  12  15
ATOM     14  C   UNL     1      -0.399   3.198  -0.091  0.00  0.00    +0.005 C 
ATOM     15  C   UNL     1      -0.120   1.717   0.171  0.00  0.00    +0.018 C 
ENDBRANCH  12  15
ENDBRANCH   1  12
BRANCH   4  16
ATOM     16  N   UNL     1      -6.233   0.779  -3.575  0.00  0.00    -0.295 N 
ATOM     17  H   UNL     1      -5.750   0.802  -4.415  0.00  0.00    +0.154 HD
BRANCH  16  18
ATOM     18  C   UNL     1      -7.635   0.773  -3.572  0.00  0.00    +0.076 A 
ATOM     19  C   UNL     1      -8.329   1.134  -2.426  0.00  0.00    +0.050 A 
ATOM     20  C   UNL     1      -9.712   1.127  -2.424  0.00  0.00    +0.084 A 
ATOM     21  C   UNL     1     -10.408   0.760  -3.567  0.00  0.00    +0.142 A 
ATOM     22  C   UNL     1      -9.718   0.398  -4.715  0.00  0.00    +0.094 A 
ATOM     23  C   UNL     1      -8.333   0.410  -4.722  0.00  0.00    +0.145 A 
ATOM     24 CL   UNL     1     -10.579   1.579  -0.990  0.00  0.00    -0.080 Cl
BRANCH  23  25
ATOM     25  O   UNL     1      -7.655   0.061  -5.848  0.00  0.00    -0.493 OA
ATOM     26  C   UNL     1      -8.435  -0.300  -6.990  0.00  0.00    +0.277 C 
ENDBRANCH  23  25
BRANCH  21  27
ATOM     27  O   UNL     1     -11.768   0.754  -3.563  0.00  0.00    -0.494 OA
ATOM     28  C   UNL     1     -12.419   0.365  -4.774  0.00  0.00    +0.277 C 
ENDBRANCH  21  27
ENDBRANCH  16  18
ENDBRANCH   4  16
TORSDOF 7
