REMARK  Name = ZINC41597363
REMARK  5 active torsions:
REMARK  status: ('A' for Active; 'I' for Inactive)
REMARK    1  A    between atoms: C_1  and  C_2
REMARK    2  A    between atoms: C_2  and  C_3
REMARK    3  A    between atoms: C_3  and  O_4
REMARK    4  A    between atoms: O_4  and  C_5
REMARK    5  A    between atoms: C_10  and  N_11
REMARK                            x       y       z     vdW  Elec       q    Type
REMARK                         _______ _______ _______ _____ _____    ______ ____
ROOT
ATOM      1  N   UNL     1      -1.490  -4.739  -0.009  0.00  0.00    -0.282 N 
ATOM      2  C   UNL     1      -1.494  -6.013  -0.511  0.00  0.00    +0.200 A 
ATOM      3  N   UNL     1      -0.369  -6.775  -0.425  0.00  0.00    -0.295 N 
ATOM      4  H   UNL     1       0.433  -6.420  -0.011  0.00  0.00    +0.172 HD
ATOM      5  C   UNL     1      -0.384  -8.024  -0.921  0.00  0.00    +0.257 A 
ATOM      6  O   UNL     1       0.616  -8.720  -0.852  0.00  0.00    -0.267 OA
ATOM      7  C   UNL     1      -1.564  -8.533  -1.526  0.00  0.00    +0.049 A 
ATOM      8  C   UNL     1      -2.655  -7.731  -1.584  0.00  0.00    +0.064 A 
ATOM      9  N   UNL     1      -2.583  -6.489  -1.065  0.00  0.00    -0.219 NA
ATOM     10  C   UNL     1      -3.909  -8.310  -2.242  0.00  0.00    +0.125 C 
ATOM     11  S   UNL     1      -3.227  -9.772  -3.126  0.00  0.00    -0.150 S 
ATOM     12  C   UNL     1      -1.694  -9.934  -2.122  0.00  0.00    +0.111 C 
ATOM     13  H   UNL     1      -0.665  -4.350   0.322  0.00  0.00    +0.155 HD
ENDROOT
BRANCH   1  19
ATOM     14  C   UNL     1      -2.631  -2.604   0.035  0.00  0.00    +0.142 A 
ATOM     15  C   UNL     1      -3.808  -1.875   0.064  0.00  0.00    +0.047 A 
ATOM     16  C   UNL     1      -5.026  -2.529   0.091  0.00  0.00    +0.004 A 
ATOM     17  C   UNL     1      -5.073  -3.910   0.089  0.00  0.00    +0.002 A 
ATOM     18  C   UNL     1      -3.903  -4.645   0.060  0.00  0.00    +0.027 A 
ATOM     19  C   UNL     1      -2.678  -3.996   0.026  0.00  0.00    +0.076 A 
BRANCH  14  20
ATOM     20  O   UNL     1      -1.432  -1.962   0.008  0.00  0.00    -0.490 OA
BRANCH  20  21
ATOM     21  C   UNL     1      -1.461  -0.533   0.019  0.00  0.00    +0.229 C 
BRANCH  21  23
ATOM     22  C   UNL     1      -0.060   1.535  -0.003  0.00  0.00    +0.007 C 
ATOM     23  C   UNL     1      -0.029   0.006  -0.014  0.00  0.00    +0.038 C 
ENDBRANCH  21  23
ENDBRANCH  20  21
ENDBRANCH  14  20
ENDBRANCH   1  19
TORSDOF 4
