REMARK  Name = ZINC35908923
REMARK  7 active torsions:
REMARK  status: ('A' for Active; 'I' for Inactive)
REMARK    1  A    between atoms: C_1  and  C_2
REMARK    2  A    between atoms: C_2  and  C_3
REMARK    3  A    between atoms: N_7  and  C_17
REMARK    4  A    between atoms: C_11  and  N_16
REMARK    5  A    between atoms: C_17  and  C_19
REMARK    6  A    between atoms: C_17  and  C_21
REMARK    7  A    between atoms: C_19  and  C_20
REMARK                            x       y       z     vdW  Elec       q    Type
REMARK                         _______ _______ _______ _____ _____    ______ ____
ROOT
ATOM      1  C   UNL     1       3.196  -2.526   0.336  0.00  0.00    +0.259 C 
ATOM      2  C   UNL     1       2.077  -3.275  -0.320  0.00  0.00    +0.257 C 
ATOM      3  O   UNL     1       2.402  -3.825  -1.351  0.00  0.00    -0.272 OA
ATOM      4  N   UNL     1       0.857  -3.450  -0.013  0.00  0.00    -0.287 N 
ATOM      5  C   UNL     1      -0.005  -2.826   0.934  0.00  0.00    +0.147 C 
ATOM      6  C   UNL     1       0.515  -1.682   1.748  0.00  0.00    +0.013 A 
ATOM      7  C   UNL     1      -0.418  -1.211   2.686  0.00  0.00    +0.031 A 
ATOM      8  C   UNL     1      -0.103  -0.196   3.566  0.00  0.00    +0.025 A 
ATOM      9  C   UNL     1       1.170   0.357   3.522  0.00  0.00    +0.026 A 
ATOM     10  C   UNL     1       2.067  -0.095   2.590  0.00  0.00    +0.048 A 
ATOM     11  C   UNL     1       1.732  -1.112   1.663  0.00  0.00    +0.126 A 
ATOM     12  O   UNL     1       2.755  -1.254   0.770  0.00  0.00    -0.479 OA
ENDROOT
BRANCH   8  13
ATOM     13  N   UNL     1      -1.050   0.267   4.487  0.00  0.00    -0.358 N 
ATOM     14  H   UNL     1      -1.937  -0.125   4.510  0.00  0.00    +0.142 HD
ATOM     15  H   UNL     1      -0.819   0.981   5.102  0.00  0.00    +0.142 HD
ENDBRANCH   8  13
BRANCH   1  17
ATOM     16  C   UNL     1       4.929  -2.633   2.133  0.00  0.00    +0.008 C 
ATOM     17  C   UNL     1       3.699  -3.323   1.541  0.00  0.00    +0.051 C 
ENDBRANCH   1  17
BRANCH   4  18
ATOM     18  C   UNL     1       0.204  -4.506  -0.791  0.00  0.00    +0.106 C 
BRANCH  18  19
ATOM     19  C   UNL     1       0.099  -4.076  -2.232  0.00  0.00    -0.027 A 
ATOM     20  C   UNL     1      -0.090  -2.743  -2.543  0.00  0.00    +0.005 A 
ATOM     21  C   UNL     1      -0.186  -2.349  -3.865  0.00  0.00    +0.000 A 
ATOM     22  C   UNL     1      -0.094  -3.288  -4.875  0.00  0.00    +0.000 A 
ATOM     23  C   UNL     1       0.096  -4.622  -4.563  0.00  0.00    +0.000 A 
ATOM     24  C   UNL     1       0.197  -5.015  -3.242  0.00  0.00    +0.005 A 
ENDBRANCH  18  19
BRANCH  18  25
ATOM     25  C   UNL     1       1.031  -5.790  -0.701  0.00  0.00    +0.024 C 
ATOM     26  C   UNL     1       1.964  -5.712   0.509  0.00  0.00    +0.006 C 
ENDBRANCH  18  25
ENDBRANCH   4  18
TORSDOF 5
