REMARK  Name = ZINC06506436
REMARK  7 active torsions:
REMARK  status: ('A' for Active; 'I' for Inactive)
REMARK    1  A    between atoms: C_1  and  C_2
REMARK    2  A    between atoms: C_5  and  N_9
REMARK    3  A    between atoms: C_6  and  C_8
REMARK    4  A    between atoms: C_13  and  C_15
REMARK    5  A    between atoms: C_15  and  S_16
REMARK    6  A    between atoms: S_16  and  C_17
REMARK    7  A    between atoms: C_23  and  N_25
REMARK                            x       y       z     vdW  Elec       q    Type
REMARK                         _______ _______ _______ _____ _____    ______ ____
ROOT
ATOM      1  N   UNL     1      -4.719  -4.144   0.025  0.00  0.00    -0.269 N 
ATOM      2  C   UNL     1      -3.463  -3.654   0.012  0.00  0.00    +0.310 C 
ATOM      3  O   UNL     1      -2.514  -4.413   0.007  0.00  0.00    -0.252 OA
ATOM      4  N   UNL     1      -3.260  -2.322   0.004  0.00  0.00    -0.239 N 
ATOM      5  C   UNL     1      -2.005  -1.832  -0.009  0.00  0.00    +0.231 C 
ATOM      6  O   UNL     1      -1.058  -2.589  -0.014  0.00  0.00    -0.274 OA
ATOM      7  H   UNL     1      -5.575  -3.461   0.123  0.00  0.00    +0.156 HD
ATOM      8  H   UNL     1      -4.119  -1.634   0.009  0.00  0.00    +0.159 HD
ENDROOT
BRANCH   1  13
ATOM      9  C   UNL     1      -5.586  -9.732  -0.424  0.00  0.00    +0.044 C 
ATOM     10  C   UNL     1      -5.356  -8.248  -0.305  0.00  0.00    -0.050 A 
ATOM     11  C   UNL     1      -4.199  -7.686  -0.814  0.00  0.00    +0.005 A 
ATOM     12  C   UNL     1      -3.985  -6.326  -0.706  0.00  0.00    +0.024 A 
ATOM     13  C   UNL     1      -4.933  -5.522  -0.086  0.00  0.00    +0.038 A 
ATOM     14  C   UNL     1      -6.091  -6.090   0.428  0.00  0.00    -0.029 A 
ATOM     15  C   UNL     1      -6.302  -7.450   0.312  0.00  0.00    +0.008 A 
ATOM     16  C   UNL     1      -7.120  -5.222   1.106  0.00  0.00    +0.045 C 
ENDBRANCH   1  13
BRANCH   5  17
ATOM     17  C   UNL     1      -1.777  -0.342  -0.017  0.00  0.00    +0.173 C 
BRANCH  17  18
ATOM     18  S   UNL     1       0.001  -0.003  -0.034  0.00  0.00    -0.078 S 
BRANCH  18  19
ATOM     19  C   UNL     1      -0.024   1.759  -0.041  0.00  0.00    +0.171 A 
ATOM     20  N   UNL     1       1.154   2.443  -0.055  0.00  0.00    -0.302 N 
ATOM     21  H   UNL     1       2.108   1.895  -0.060  0.00  0.00    +0.171 HD
ATOM     22  C   UNL     1       1.154   3.792  -0.061  0.00  0.00    +0.254 A 
ATOM     23  O   UNL     1       2.206   4.413  -0.073  0.00  0.00    -0.268 OA
ATOM     24  C   UNL     1      -0.070   4.468  -0.054  0.00  0.00    +0.113 A 
ATOM     25  C   UNL     1      -1.242   3.724  -0.040  0.00  0.00    +0.124 A 
ATOM     26  N   UNL     1      -1.181   2.388  -0.039  0.00  0.00    -0.209 NA
BRANCH  25  27
ATOM     27  N   UNL     1      -2.466   4.362  -0.033  0.00  0.00    -0.343 N 
ATOM     28  H   UNL     1      -3.394   3.771  -0.022  0.00  0.00    +0.144 HD
ATOM     29  H   UNL     1      -2.514   5.461  -0.038  0.00  0.00    +0.144 HD
ENDBRANCH  25  27
ENDBRANCH  18  19
ENDBRANCH  17  18
ENDBRANCH   5  17
TORSDOF 5
