REMARK  Name = ZINC09485973
REMARK  7 active torsions:
REMARK  status: ('A' for Active; 'I' for Inactive)
REMARK    1  A    between atoms: C_1  and  C_2
REMARK    2  A    between atoms: N_5  and  C_7
REMARK    3  A    between atoms: C_16  and  C_18
REMARK    4  A    between atoms: C_21  and  O_25
REMARK    5  A    between atoms: C_22  and  O_24
REMARK    6  A    between atoms: C_29  and  C_32
REMARK    7  A    between atoms: C_35  and  O_38
REMARK                            x       y       z     vdW  Elec       q    Type
REMARK                         _______ _______ _______ _____ _____    ______ ____
ROOT
ATOM      1  C   UNL     1       2.016   0.129   3.047  0.00  0.00    +0.068 C 
ATOM      2  C   UNL     1       3.103   1.036   2.529  0.00  0.00    +0.066 A 
ATOM      3  C   UNL     1       3.284   1.413   1.206  0.00  0.00    +0.027 A 
ATOM      4  C   UNL     1       4.377   2.237   1.150  0.00  0.00    +0.131 A 
ATOM      5  N   UNL     1       4.856   2.369   2.404  0.00  0.00    -0.218 N 
ATOM      6  N   UNL     1       4.039   1.603   3.253  0.00  0.00    -0.170 NA
ATOM      7  N   UNL     1       4.817   2.775  -0.053  0.00  0.00    -0.302 N 
ATOM      8  C   UNL     1       4.338   2.243  -1.224  0.00  0.00    +0.017 C 
ATOM      9  C   UNL     1       3.264   1.425  -1.260  0.00  0.00    +0.024 C 
ATOM     10  C   UNL     1       2.489   1.046  -0.016  0.00  0.00    +0.089 C 
ATOM     11  C   UNL     1       2.815   0.877  -2.475  0.00  0.00    +0.162 C 
ATOM     12  O   UNL     1       1.844   0.147  -2.474  0.00  0.00    -0.292 OA
ATOM     13  C   UNL     1       3.507   1.175  -3.775  0.00  0.00    +0.088 C 
ATOM     14  C   UNL     1       4.985   1.468  -3.495  0.00  0.00    +0.032 C 
ATOM     15  C   UNL     1       5.065   2.621  -2.494  0.00  0.00    +0.059 C 
ATOM     16  H   UNL     1       5.449   3.511  -0.065  0.00  0.00    +0.153 HD
ENDROOT
BRANCH   5  17
ATOM     17  C   UNL     1       5.966   3.131   2.790  0.00  0.00    +0.067 A 
ATOM     18  C   UNL     1       7.067   3.232   1.950  0.00  0.00    +0.028 A 
ATOM     19  C   UNL     1       8.158   3.989   2.331  0.00  0.00    +0.002 A 
ATOM     20  C   UNL     1       8.159   4.637   3.552  0.00  0.00    +0.000 A 
ATOM     21  C   UNL     1       7.066   4.534   4.394  0.00  0.00    +0.002 A 
ATOM     22  C   UNL     1       5.970   3.783   4.016  0.00  0.00    +0.028 A 
ENDBRANCH   5  17
BRANCH  10  23
ATOM     23  C   UNL     1       1.175   1.783   0.000  0.00  0.00    -0.032 A 
ATOM     24  C   UNL     1       1.160   3.166   0.008  0.00  0.00    +0.008 A 
ATOM     25  C   UNL     1      -0.043   3.847   0.023  0.00  0.00    +0.049 A 
ATOM     26  C   UNL     1      -1.237   3.144   0.030  0.00  0.00    +0.158 A 
ATOM     27  C   UNL     1      -1.222   1.752   0.017  0.00  0.00    +0.159 A 
ATOM     28  C   UNL     1      -0.013   1.076   0.008  0.00  0.00    +0.053 A 
BRANCH  27  29
ATOM     29  O   UNL     1      -2.391   1.058   0.019  0.00  0.00    -0.503 OA
ATOM     30  H   UNL     1      -2.725   0.852   0.903  0.00  0.00    +0.292 HD
ENDBRANCH  27  29
BRANCH  26  31
ATOM     31  O   UNL     1      -2.421   3.812   0.044  0.00  0.00    -0.503 OA
ATOM     32  H   UNL     1      -2.772   4.010  -0.835  0.00  0.00    +0.292 HD
ENDBRANCH  26  31
ENDBRANCH  10  23
BRANCH  14  33
ATOM     33  C   UNL     1       5.677   1.857  -4.776  0.00  0.00    -0.043 A 
ATOM     34  C   UNL     1       5.244   2.962  -5.486  0.00  0.00    +0.007 A 
ATOM     35  C   UNL     1       5.880   3.324  -6.658  0.00  0.00    +0.045 A 
ATOM     36  C   UNL     1       6.947   2.573  -7.127  0.00  0.00    +0.117 A 
ATOM     37  C   UNL     1       7.377   1.462  -6.416  0.00  0.00    +0.045 A 
ATOM     38  C   UNL     1       6.740   1.107  -5.242  0.00  0.00    +0.007 A 
BRANCH  36  39
ATOM     39  O   UNL     1       7.572   2.924  -8.282  0.00  0.00    -0.507 OA
ATOM     40  H   UNL     1       7.193   2.517  -9.073  0.00  0.00    +0.292 HD
ENDBRANCH  36  39
ENDBRANCH  14  33
TORSDOF 6
