REMARK  Name = ZINC51730244
REMARK  5 active torsions:
REMARK  status: ('A' for Active; 'I' for Inactive)
REMARK    1  A    between atoms: C_1  and  C_2
REMARK    2  A    between atoms: C_7  and  C_10
REMARK    3  A    between atoms: C_14  and  N_19
REMARK    4  A    between atoms: C_15  and  O_17
REMARK    5  A    between atoms: O_17  and  C_18
REMARK                            x       y       z     vdW  Elec       q    Type
REMARK                         _______ _______ _______ _____ _____    ______ ____
ROOT
ATOM      1  C   UNL     1      -0.040   1.494   0.426  0.00  0.00    +0.007 C 
ATOM      2  C   UNL     1      -0.008  -0.019   0.203  0.00  0.00    -0.011 C 
ATOM      3  C   UNL     1       0.860  -0.337  -1.017  0.00  0.00    +0.022 C 
ATOM      4  C   UNL     1       0.861  -1.850  -1.258  0.00  0.00    +0.107 C 
ATOM      5  N   UNL     1       1.285  -2.525  -0.024  0.00  0.00    -0.312 N 
ATOM      6  C   UNL     1       0.575  -2.222   1.226  0.00  0.00    +0.072 C 
ATOM      7  C   UNL     1       0.577  -0.705   1.440  0.00  0.00    +0.025 C 
ATOM      8  C   UNL     1      -0.866  -2.728   1.133  0.00  0.00    +0.028 C 
ATOM      9  C   UNL     1       2.340  -3.435  -0.038  0.00  0.00    +0.125 A 
ATOM     10  C   UNL     1       2.848  -3.877  -1.253  0.00  0.00    +0.046 A 
ATOM     11  C   UNL     1       3.897  -4.781  -1.260  0.00  0.00    +0.031 A 
ATOM     12  C   UNL     1       4.406  -5.216  -0.041  0.00  0.00    +0.087 A 
ATOM     13  C   UNL     1       3.848  -4.731   1.139  0.00  0.00    +0.238 A 
ATOM     14  N   UNL     1       2.850  -3.864   1.106  0.00  0.00    -0.196 NA
ENDROOT
BRANCH  12  15
ATOM     15  N   UNL     1       5.468  -6.133  -0.001  0.00  0.00    -0.354 N 
ATOM     16  H   UNL     1       5.852  -6.466  -0.827  0.00  0.00    +0.142 HD
ATOM     17  H   UNL     1       5.819  -6.432   0.852  0.00  0.00    +0.142 HD
ENDBRANCH  12  15
BRANCH  13  18
ATOM     18  O   UNL     1       4.337  -5.149   2.335  0.00  0.00    -0.478 OA
ATOM     19  C   UNL     1       3.722  -4.615   3.509  0.00  0.00    +0.279 C 
ENDBRANCH  13  18
TORSDOF 2
