REMARK  Name = ZINC16044968
REMARK  5 active torsions:
REMARK  status: ('A' for Active; 'I' for Inactive)
REMARK    1  A    between atoms: C_1  and  C_2
REMARK    2  A    between atoms: C_5  and  C_8
REMARK    3  A    between atoms: C_11  and  C_14
REMARK    4  A    between atoms: C_19  and  C_21
REMARK    5  A    between atoms: C_21  and  N_22
REMARK                            x       y       z     vdW  Elec       q    Type
REMARK                         _______ _______ _______ _____ _____    ______ ____
ROOT
ATOM      1  C   UNL     1       3.655   2.158  -0.020  0.00  0.00    +0.069 C 
ATOM      2  N   UNL     1       4.830   1.631  -0.033  0.00  0.00    -0.181 NA
ATOM      3  N   UNL     1       5.870   2.559  -0.037  0.00  0.00    -0.181 N 
ATOM      4  C   UNL     1       5.298   3.915  -0.025  0.00  0.00    +0.173 C 
ATOM      5  C   UNL     1       3.776   3.665  -0.019  0.00  0.00    +0.090 C 
ATOM      6  C   UNL     1       7.184   2.263  -0.050  0.00  0.00    +0.253 C 
ATOM      7  O   UNL     1       8.007   3.154  -0.052  0.00  0.00    -0.272 OA
ENDROOT
BRANCH   1  12
ATOM      8  C   UNL     1      -1.295  -0.772   0.010  0.00  0.00    +0.044 C 
ATOM      9  C   UNL     1       0.002  -0.004   0.002  0.00  0.00    -0.050 A 
ATOM     10  C   UNL     1      -0.017   1.379   0.010  0.00  0.00    +0.004 A 
ATOM     11  C   UNL     1       1.166   2.089   0.002  0.00  0.00    +0.010 A 
ATOM     12  C   UNL     1       2.385   1.407  -0.013  0.00  0.00    -0.002 A 
ATOM     13  C   UNL     1       2.397   0.010  -0.020  0.00  0.00    +0.010 A 
ATOM     14  C   UNL     1       1.206  -0.686  -0.013  0.00  0.00    +0.004 A 
ENDBRANCH   1  12
BRANCH   4  15
ATOM     15  C   UNL     1       5.704   4.673  -1.262  0.00  0.00    +0.128 A 
ATOM     16  C   UNL     1       6.028   5.978  -1.314  0.00  0.00    +0.046 A 
ATOM     17  C   UNL     1       6.341   6.268  -2.662  0.00  0.00    +0.041 A 
ATOM     18  C   UNL     1       6.191   5.124  -3.353  0.00  0.00    +0.195 A 
ATOM     19  O   UNL     1       5.810   4.160  -2.499  0.00  0.00    -0.466 OA
ENDBRANCH   4  15
BRANCH   6  20
ATOM     20  C   UNL     1       7.633   0.824  -0.061  0.00  0.00    +0.215 C 
BRANCH  20  21
ATOM     21  N   UNL     1       9.097   0.769  -0.074  0.00  0.00    -0.215 N 
ATOM     22  C   UNL     1       9.863   0.734   1.035  0.00  0.00    +0.251 C 
ATOM     23  O   UNL     1       9.487   0.744   2.188  0.00  0.00    -0.272 OA
ATOM     24  C   UNL     1      11.291   0.682   0.539  0.00  0.00    +0.138 C 
ATOM     25  C   UNL     1      12.061   1.908   1.012  0.00  0.00    +0.040 C 
ATOM     26  C   UNL     1      13.537   1.727   0.639  0.00  0.00    +0.008 C 
ATOM     27  C   UNL     1      14.120   0.608   1.499  0.00  0.00    +0.035 C 
ATOM     28  C   UNL     1      13.259  -0.626   1.426  0.00  0.00    -0.042 A 
ATOM     29  C   UNL     1      11.952  -0.590   0.992  0.00  0.00    -0.012 A 
ATOM     30  C   UNL     1      11.204  -1.760   0.965  0.00  0.00    +0.006 A 
ATOM     31  C   UNL     1      11.762  -2.957   1.364  0.00  0.00    +0.000 A 
ATOM     32  C   UNL     1      13.075  -2.994   1.793  0.00  0.00    +0.000 A 
ATOM     33  C   UNL     1      13.819  -1.833   1.823  0.00  0.00    +0.004 A 
ATOM     34  N   UNL     1      11.158   0.693  -0.924  0.00  0.00    -0.281 N 
ATOM     35  C   UNL     1       9.839   0.741  -1.187  0.00  0.00    +0.310 C 
ATOM     36  O   UNL     1       9.374   0.759  -2.310  0.00  0.00    -0.252 OA
ATOM     37  H   UNL     1      11.879   0.669  -1.573  0.00  0.00    +0.152 HD
ENDBRANCH  20  21
ENDBRANCH   6  20
TORSDOF 4
