REMARK  Name = ZINC21464698
REMARK  9 active torsions:
REMARK  status: ('A' for Active; 'I' for Inactive)
REMARK    1  A    between atoms: C_1  and  C_2
REMARK    2  A    between atoms: C_2  and  C_4
REMARK    3  A    between atoms: C_2  and  O_23
REMARK    4  A    between atoms: N_6  and  C_7
REMARK    5  A    between atoms: C_9  and  S_14
REMARK    6  A    between atoms: S_14  and  N_17
REMARK    7  A    between atoms: O_23  and  C_24
REMARK    8  A    between atoms: C_24  and  C_26
REMARK    9  A    between atoms: C_26  and  N_27
REMARK                            x       y       z     vdW  Elec       q    Type
REMARK                         _______ _______ _______ _____ _____    ______ ____
ROOT
ATOM      1  C   UNL     1       7.035   0.956  -1.969  0.00  0.00    +0.258 C 
ATOM      2  O   UNL     1       7.050   0.868  -0.760  0.00  0.00    -0.271 OA
ATOM      3  N   UNL     1       6.215   0.167  -2.692  0.00  0.00    -0.281 N 
ATOM      4  H   UNL     1       6.266   0.181  -3.791  0.00  0.00    +0.155 HD
ENDROOT
BRANCH   3   5
ATOM      5  C   UNL     1       5.298  -0.669  -2.044  0.00  0.00    +0.054 A 
ATOM      6  C   UNL     1       4.852  -0.356  -0.767  0.00  0.00    +0.053 A 
ATOM      7  C   UNL     1       3.947  -1.183  -0.131  0.00  0.00    +0.107 A 
ATOM      8  C   UNL     1       3.490  -2.325  -0.762  0.00  0.00    +0.030 A 
ATOM      9  C   UNL     1       3.927  -2.638  -2.035  0.00  0.00    +0.024 A 
ATOM     10  C   UNL     1       4.832  -1.815  -2.678  0.00  0.00    +0.062 A 
ATOM     11 CL   UNL     1       5.386  -2.211  -4.275  0.00  0.00    -0.082 Cl
BRANCH   7  12
ATOM     12  S   UNL     1       3.381  -0.786   1.490  0.00  0.00    +0.061 S 
ATOM     13  O   UNL     1       4.378   0.039   2.077  0.00  0.00    -0.153 OA
ATOM     14  O   UNL     1       2.956  -2.006   2.082  0.00  0.00    -0.153 OA
BRANCH  12  15
ATOM     15  N   UNL     1       2.029   0.154   1.319  0.00  0.00    -0.177 NA
ATOM     16  C   UNL     1       0.696  -0.459   1.244  0.00  0.00    +0.109 C 
ATOM     17  C   UNL     1      -0.008   0.045  -0.020  0.00  0.00    +0.017 C 
ATOM     18  C   UNL     1      -0.019   1.576  -0.017  0.00  0.00    +0.003 C 
ATOM     19  C   UNL     1       1.419   2.098  -0.025  0.00  0.00    +0.017 C 
ATOM     20  C   UNL     1       2.139   1.617   1.239  0.00  0.00    +0.109 C 
ENDBRANCH  12  15
ENDBRANCH   7  12
ENDBRANCH   3   5
BRANCH   1  22
ATOM     21  C   UNL     1       7.080   3.007  -3.362  0.00  0.00    +0.062 C 
ATOM     22  C   UNL     1       7.934   1.946  -2.664  0.00  0.00    +0.259 C 
BRANCH  22  23
ATOM     23  O   UNL     1       8.797   2.585  -1.687  0.00  0.00    -0.451 OA
BRANCH  23  24
ATOM     24  C   UNL     1      10.006   2.986  -2.111  0.00  0.00    +0.325 C 
ATOM     25  O   UNL     1      10.332   2.808  -3.261  0.00  0.00    -0.249 OA
BRANCH  24  26
ATOM     26  C   UNL     1      10.956   3.657  -1.154  0.00  0.00    +0.229 C 
BRANCH  26  27
ATOM     27  N   UNL     1      12.197   3.995  -1.854  0.00  0.00    -0.281 N 
ATOM     28  C   UNL     1      13.317   3.035  -1.893  0.00  0.00    +0.178 C 
ATOM     29  S   UNL     1      14.359   3.753  -3.237  0.00  0.00    -0.132 S 
ATOM     30  C   UNL     1      13.643   5.452  -3.169  0.00  0.00    +0.166 C 
ATOM     31  C   UNL     1      12.329   5.170  -2.456  0.00  0.00    +0.227 C 
ATOM     32  O   UNL     1      11.435   5.989  -2.439  0.00  0.00    -0.275 OA
ENDBRANCH  26  27
ENDBRANCH  24  26
ENDBRANCH  23  24
ENDBRANCH  22  23
ENDBRANCH   1  22
TORSDOF 8
