REMARK  Name = ZINC46501756
REMARK  6 active torsions:
REMARK  status: ('A' for Active; 'I' for Inactive)
REMARK    1  A    between atoms: C_1  and  C_2
REMARK    2  A    between atoms: C_2  and  C_3
REMARK    3  A    between atoms: C_2  and  N_4
REMARK    4  A    between atoms: C_8  and  C_10
REMARK    5  A    between atoms: C_10  and  N_11
REMARK    6  A    between atoms: N_11  and  C_12
REMARK                            x       y       z     vdW  Elec       q    Type
REMARK                         _______ _______ _______ _____ _____    ______ ____
ROOT
ATOM      1  N   UNL     1      -0.157  -1.791   6.965  0.00  0.00    -0.334 N 
ATOM      2  H   UNL     1      -1.085  -1.532   6.846  0.00  0.00    +0.147 HD
ENDROOT
BRANCH   1   3
ATOM      3  C   UNL     1       0.292  -2.230   8.216  0.00  0.00    +0.050 A 
ATOM      4  C   UNL     1       1.622  -2.595   8.386  0.00  0.00    +0.072 A 
ATOM      5  C   UNL     1       2.063  -3.028   9.623  0.00  0.00    +0.144 A 
ATOM      6  C   UNL     1       1.174  -3.097  10.694  0.00  0.00    +0.077 A 
ATOM      7  C   UNL     1      -0.151  -2.732  10.523  0.00  0.00    +0.048 A 
ATOM      8  C   UNL     1      -0.591  -2.294   9.287  0.00  0.00    +0.064 A 
ATOM      9 CL   UNL     1      -2.249  -1.829   9.072  0.00  0.00    -0.082 Cl
ATOM     10  N   UNL     1       1.639  -3.541  11.944  0.00  0.00    -0.280 N 
ATOM     11  C   UNL     1       2.970  -3.587  12.168  0.00  0.00    +0.255 C 
ATOM     12  O   UNL     1       3.395  -3.995  13.228  0.00  0.00    -0.272 OA
ATOM     13  C   UNL     1       3.925  -3.128  11.095  0.00  0.00    +0.325 C 
ATOM     14  O   UNL     1       3.362  -3.388   9.807  0.00  0.00    -0.481 OA
ATOM     15  H   UNL     1       1.013  -3.811  12.634  0.00  0.00    +0.155 HD
ENDBRANCH   1   3
BRANCH   1  16
ATOM     16  C   UNL     1       0.772  -1.723   5.835  0.00  0.00    +0.198 C 
BRANCH  16  21
ATOM     17  N   UNL     1       0.711  -0.489   1.189  0.00  0.00    -0.297 N 
ATOM     18  C   UNL     1       0.051  -0.633   2.355  0.00  0.00    +0.306 C 
ATOM     19  O   UNL     1      -1.131  -0.361   2.423  0.00  0.00    -0.252 OA
ATOM     20  N   UNL     1       0.703  -1.080   3.447  0.00  0.00    -0.239 N 
ATOM     21  C   UNL     1       0.044  -1.224   4.614  0.00  0.00    +0.237 C 
ATOM     22  O   UNL     1      -1.136  -0.952   4.681  0.00  0.00    -0.274 OA
ATOM     23  H   UNL     1       1.654  -0.707   1.135  0.00  0.00    +0.151 HD
ATOM     24  H   UNL     1       1.647  -1.298   3.394  0.00  0.00    +0.159 HD
BRANCH  17  26
ATOM     25  C   UNL     1      -0.019   1.526   0.010  0.00  0.00    +0.027 C 
ATOM     26  C   UNL     1       0.002  -0.004   0.002  0.00  0.00    +0.068 C 
ATOM     27  C   UNL     1       0.718  -0.497  -1.257  0.00  0.00    +0.027 C 
ENDBRANCH  17  26
ENDBRANCH  16  21
ENDBRANCH   1  16
TORSDOF 4
