REMARK  Name = ZINC09846893
REMARK  6 active torsions:
REMARK  status: ('A' for Active; 'I' for Inactive)
REMARK    1  A    between atoms: C_4  and  C_7
REMARK    2  A    between atoms: C_19  and  C_21
REMARK    3  A    between atoms: C_19  and  C_29
REMARK    4  A    between atoms: C_19  and  N_51
REMARK    5  A    between atoms: C_21  and  C_22
REMARK    6  A    between atoms: C_22  and  C_23
REMARK                            x       y       z     vdW  Elec       q    Type
REMARK                         _______ _______ _______ _____ _____    ______ ____
ROOT
ATOM      1  C   UNL     1       0.665   1.558  -0.164  0.00  0.00    +0.084 A 
ATOM      2  C   UNL     1       1.769   2.432  -0.332  0.00  0.00    +0.028 A 
ATOM      3  C   UNL     1       3.064   1.955  -0.563  0.00  0.00    +0.032 A 
ATOM      4  C   UNL     1       4.089   2.843  -0.718  0.00  0.00    +0.042 A 
ATOM      5  C   UNL     1       3.863   4.216  -0.648  0.00  0.00    +0.022 A 
ATOM      6  C   UNL     1       2.613   4.712  -0.425  0.00  0.00    +0.030 A 
ATOM      7  C   UNL     1       1.537   3.828  -0.262  0.00  0.00    +0.077 A 
ATOM      8  N   UNL     1       0.289   4.265  -0.041  0.00  0.00    -0.212 NA
ATOM      9  C   UNL     1      -0.702   3.408   0.108  0.00  0.00    +0.232 A 
ATOM     10  N   UNL     1      -0.531   2.091   0.045  0.00  0.00    -0.212 NA
ATOM     11  N   UNL     1      -1.978   3.902   0.335  0.00  0.00    -0.297 N 
ATOM     12  C   UNL     1      -2.208   5.260   0.296  0.00  0.00    +0.176 C 
ATOM     13  N   UNL     1      -3.446   5.758   0.629  0.00  0.00    -0.371 N 
ATOM     14 CL   UNL     1       5.696   2.253  -1.004  0.00  0.00    -0.084 Cl
ATOM     15  H   UNL     1      -2.708   3.291   0.522  0.00  0.00    +0.172 HD
ATOM     16  H   UNL     1      -4.132   5.163   0.972  0.00  0.00    +0.159 HD
ATOM     17  H   UNL     1      -3.633   6.703   0.523  0.00  0.00    +0.159 HD
ATOM     18  N   UNL     1      -1.189   6.046  -0.068  0.00  0.00    -0.346 N 
ATOM     19  H   UNL     1      -0.258   5.641  -0.223  0.00  0.00    +0.163 HD
ENDROOT
BRANCH   1  23
ATOM     20  C   UNL     1       1.173  -2.657  -0.342  0.00  0.00    +0.000 A 
ATOM     21  C   UNL     1       2.071  -1.884   0.373  0.00  0.00    +0.001 A 
ATOM     22  C   UNL     1       1.911  -0.515   0.435  0.00  0.00    +0.010 A 
ATOM     23  C   UNL     1       0.842   0.090  -0.226  0.00  0.00    +0.001 A 
ATOM     24  C   UNL     1      -0.063  -0.695  -0.942  0.00  0.00    +0.010 A 
ATOM     25  C   UNL     1       0.111  -2.062  -1.000  0.00  0.00    +0.001 A 
ENDBRANCH   1  23
BRANCH  18  26
ATOM     26  C   UNL     1      -1.405   7.523  -0.250  0.00  0.00    +0.193 C 
BRANCH  26  27
ATOM     27  C   UNL     1      -0.378   8.264   0.608  0.00  0.00    +0.410 C 
ATOM     28  F   UNL     1       0.912   7.878   0.228  0.00  0.00    -0.168 F 
ATOM     29  F   UNL     1      -0.525   9.643   0.424  0.00  0.00    -0.168 F 
ATOM     30  F   UNL     1      -0.581   7.948   1.955  0.00  0.00    -0.168 F 
ENDBRANCH  26  27
BRANCH  26  31
ATOM     31  C   UNL     1      -1.186   7.863  -1.702  0.00  0.00    +0.113 C 
BRANCH  31  32
ATOM     32  C   UNL     1      -2.160   8.444  -2.406  0.00  0.00    +0.172 C 
ATOM     33  O   UNL     1      -3.349   8.729  -1.813  0.00  0.00    -0.291 OA
BRANCH  32  34
ATOM     34  C   UNL     1      -1.946   8.777  -3.825  0.00  0.00    +0.055 A 
ATOM     35  C   UNL     1      -2.809   9.363  -4.715  0.00  0.00    +0.019 A 
ATOM     36  C   UNL     1      -2.381   9.581  -6.005  0.00  0.00    +0.008 A 
ATOM     37  C   UNL     1      -1.126   9.201  -6.360  0.00  0.00    +0.046 A 
ATOM     38  S   UNL     1      -0.498   8.514  -4.837  0.00  0.00    -0.094 S 
ENDBRANCH  32  34
ENDBRANCH  31  32
ENDBRANCH  26  31
ENDBRANCH  18  26
TORSDOF 6
