REMARK  Name = ZINC09668135
REMARK  7 active torsions:
REMARK  status: ('A' for Active; 'I' for Inactive)
REMARK    1  A    between atoms: C_1  and  C_2
REMARK    2  A    between atoms: C_5  and  C_9
REMARK    3  A    between atoms: C_6  and  C_8
REMARK    4  A    between atoms: N_11  and  C_12
REMARK    5  A    between atoms: C_12  and  N_14
REMARK    6  A    between atoms: N_17  and  C_20
REMARK    7  A    between atoms: C_23  and  N_27
REMARK                            x       y       z     vdW  Elec       q    Type
REMARK                         _______ _______ _______ _____ _____    ______ ____
ROOT
ATOM      1  N   UNL     1       2.312   1.008  -0.148  0.00  0.00    -0.309 N 
ATOM      2  C   UNL     1       2.219  -0.459  -0.123  0.00  0.00    +0.125 C 
ATOM      3  C   UNL     1       3.160  -1.021  -1.200  0.00  0.00    +0.124 C 
ATOM      4  N   UNL     1       4.511  -0.482  -0.992  0.00  0.00    -0.326 N 
ATOM      5  C   UNL     1       4.533   0.978  -1.155  0.00  0.00    +0.124 C 
ATOM      6  C   UNL     1       3.648   1.622  -0.083  0.00  0.00    +0.125 C 
ENDROOT
BRANCH   4   7
ATOM      7  C   UNL     1       5.432  -1.095  -1.846  0.00  0.00    +0.048 A 
ATOM      8  C   UNL     1       5.321  -0.933  -3.221  0.00  0.00    +0.027 A 
ATOM      9  C   UNL     1       6.233  -1.541  -4.062  0.00  0.00    +0.034 A 
ATOM     10  C   UNL     1       7.256  -2.309  -3.537  0.00  0.00    +0.128 A 
ATOM     11  C   UNL     1       7.370  -2.473  -2.168  0.00  0.00    +0.054 A 
ATOM     12  C   UNL     1       6.464  -1.863  -1.321  0.00  0.00    +0.064 A 
ATOM     13 CL   UNL     1       6.612  -2.062   0.398  0.00  0.00    -0.082 Cl
BRANCH  10  14
ATOM     14  N   UNL     1       8.231  -2.958  -4.441  0.00  0.00    +0.056 N 
ATOM     15  O   UNL     1       8.132  -2.815  -5.647  0.00  0.00    -0.126 OA
ATOM     16  O   UNL     1       9.132  -3.635  -3.981  0.00  0.00    -0.126 OA
ENDBRANCH  10  14
ENDBRANCH   4   7
BRANCH   1  17
ATOM     17  C   UNL     1       1.204   1.771  -0.225  0.00  0.00    +0.139 C 
ATOM     18  S   UNL     1       1.343   3.471  -0.377  0.00  0.00    -0.018 S 
BRANCH  17  21
ATOM     19  C   UNL     1      -1.121   1.964  -0.155  0.00  0.00    +0.250 C 
ATOM     20  O   UNL     1      -1.022   3.175  -0.167  0.00  0.00    -0.270 OA
ATOM     21  N   UNL     1      -0.014   1.196  -0.181  0.00  0.00    -0.264 N 
ATOM     22  H   UNL     1      -0.094   0.229  -0.172  0.00  0.00    +0.157 HD
BRANCH  19  27
ATOM     23  C   UNL     1      -6.322  -0.492   0.009  0.00  0.00    +0.044 C 
ATOM     24  C   UNL     1      -4.960   0.151  -0.034  0.00  0.00    -0.050 A 
ATOM     25  C   UNL     1      -3.824  -0.637   0.028  0.00  0.00    +0.004 A 
ATOM     26  C   UNL     1      -2.575  -0.055  -0.011  0.00  0.00    +0.013 A 
ATOM     27  C   UNL     1      -2.457   1.333  -0.114  0.00  0.00    +0.040 A 
ATOM     28  C   UNL     1      -3.607   2.122  -0.171  0.00  0.00    -0.038 A 
ATOM     29  C   UNL     1      -4.851   1.526  -0.136  0.00  0.00    +0.007 A 
ATOM     30  C   UNL     1      -3.490   3.621  -0.277  0.00  0.00    +0.044 C 
ENDBRANCH  19  27
ENDBRANCH  17  21
ENDBRANCH   1  17
TORSDOF 5
