REMARK  Name = ZINC09993479
REMARK  4 active torsions:
REMARK  status: ('A' for Active; 'I' for Inactive)
REMARK    1  A    between atoms: C_4  and  C_7
REMARK    2  A    between atoms: C_12  and  C_26
REMARK    3  A    between atoms: C_14  and  C_24
REMARK    4  A    between atoms: C_15  and  N_23
REMARK                            x       y       z     vdW  Elec       q    Type
REMARK                         _______ _______ _______ _____ _____    ______ ____
ROOT
ATOM      1  C   UNL     1       3.199  -1.176  -0.168  0.00  0.00    +0.032 C 
ATOM      2  C   UNL     1       3.535  -1.962  -1.437  0.00  0.00    +0.060 C 
ATOM      3  C   UNL     1       4.932  -2.524  -1.329  0.00  0.00    +0.028 C 
ATOM      4  C   UNL     1       5.455  -2.861  -0.132  0.00  0.00    +0.025 C 
ATOM      5  C   UNL     1       6.851  -3.422  -0.026  0.00  0.00    +0.097 C 
ATOM      6  C   UNL     1       7.335  -3.926  -1.353  0.00  0.00    +0.077 C 
ATOM      7  C   UNL     1       6.735  -3.545  -2.510  0.00  0.00    +0.109 C 
ATOM      8  N   UNL     1       5.658  -2.688  -2.480  0.00  0.00    -0.228 N 
ATOM      9  C   UNL     1       5.301  -1.979  -3.632  0.00  0.00    +0.246 A 
ATOM     10  N   UNL     1       5.846  -2.137  -4.843  0.00  0.00    -0.202 NA
ATOM     11  C   UNL     1       5.282  -1.319  -5.693  0.00  0.00    +0.217 A 
ATOM     12  N   UNL     1       4.349  -0.609  -5.036  0.00  0.00    -0.264 N 
ATOM     13  H   UNL     1       3.769   0.074  -5.409  0.00  0.00    +0.190 HD
ATOM     14  N   UNL     1       4.373  -1.055  -3.704  0.00  0.00    -0.136 NA
ATOM     15  C   UNL     1       4.718  -2.696   1.054  0.00  0.00    +0.162 C 
ATOM     16  O   UNL     1       5.211  -3.027   2.114  0.00  0.00    -0.292 OA
ATOM     17  C   UNL     1       3.331  -2.113   1.038  0.00  0.00    +0.088 C 
ENDROOT
BRANCH   5  18
ATOM     18  C   UNL     1       7.782  -2.341   0.460  0.00  0.00    -0.035 A 
ATOM     19  C   UNL     1       7.933  -1.178  -0.274  0.00  0.00    +0.007 A 
ATOM     20  C   UNL     1       8.786  -0.186   0.171  0.00  0.00    +0.038 A 
ATOM     21  C   UNL     1       9.490  -0.357   1.351  0.00  0.00    +0.123 A 
ATOM     22  C   UNL     1       9.338  -1.521   2.084  0.00  0.00    +0.038 A 
ATOM     23  C   UNL     1       8.481  -2.510   1.641  0.00  0.00    +0.007 A 
ATOM     24  F   UNL     1      10.325   0.613   1.786  0.00  0.00    -0.205 F 
ENDBRANCH   5  18
BRANCH   1  28
ATOM     25  C   UNL     1      -0.803   0.297  -0.412  0.00  0.00    +0.000 A 
ATOM     26  C   UNL     1       0.251   1.180  -0.270  0.00  0.00    +0.000 A 
ATOM     27  C   UNL     1       1.546   0.703  -0.191  0.00  0.00    +0.004 A 
ATOM     28  C   UNL     1       1.787  -0.656  -0.253  0.00  0.00    -0.044 A 
ATOM     29  C   UNL     1       0.733  -1.539  -0.394  0.00  0.00    +0.004 A 
ATOM     30  C   UNL     1      -0.562  -1.063  -0.474  0.00  0.00    +0.000 A 
ENDBRANCH   1  28
BRANCH   7  31
ATOM     31  N   UNL     1       7.204  -4.014  -3.714  0.00  0.00    -0.345 N 
ATOM     32  H   UNL     1       7.963  -4.618  -3.736  0.00  0.00    +0.144 HD
ATOM     33  H   UNL     1       6.776  -3.742  -4.541  0.00  0.00    +0.144 HD
ENDBRANCH   7  31
BRANCH   6  34
ATOM     34  C   UNL     1       8.449  -4.825  -1.401  0.00  0.00    +0.099 C 
ATOM     35  N   UNL     1       9.332  -5.538  -1.439  0.00  0.00    -0.191 NA
ENDBRANCH   6  34
TORSDOF 4
