REMARK  Name = ZINC67637484
REMARK  9 active torsions:
REMARK  status: ('A' for Active; 'I' for Inactive)
REMARK    1  A    between atoms: C_1  and  C_2
REMARK    2  A    between atoms: N_5  and  C_8
REMARK    3  A    between atoms: C_8  and  C_9
REMARK    4  A    between atoms: C_9  and  C_11
REMARK    5  A    between atoms: C_9  and  O_29
REMARK    6  A    between atoms: C_11  and  N_12
REMARK    7  A    between atoms: N_15  and  C_16
REMARK    8  A    between atoms: N_19  and  C_22
REMARK    9  A    between atoms: C_22  and  C_23
REMARK                            x       y       z     vdW  Elec       q    Type
REMARK                         _______ _______ _______ _____ _____    ______ ____
ROOT
ATOM      1  N   UNL     1       1.220  -6.537   3.620  0.00  0.00    -0.297 N 
ATOM      2  C   UNL     1       1.291  -7.839   3.959  0.00  0.00    +0.300 C 
ATOM      3  O   UNL     1       0.946  -8.693   3.165  0.00  0.00    -0.253 OA
ATOM      4  N   UNL     1       1.745  -8.195   5.177  0.00  0.00    -0.297 N 
ATOM      5  H   UNL     1       1.496  -5.855   4.253  0.00  0.00    +0.150 HD
ATOM      6  H   UNL     1       2.020  -7.513   5.810  0.00  0.00    +0.151 HD
ENDROOT
BRANCH   4   7
ATOM      7  C   UNL     1       1.822  -9.611   5.545  0.00  0.00    +0.071 C 
ATOM      8  C   UNL     1       0.466 -10.074   6.087  0.00  0.00    +0.004 C 
ATOM      9  C   UNL     1       0.576 -11.530   6.543  0.00  0.00    -0.077 C 
ATOM     10  N   UNL     1       1.590 -11.641   7.598  0.00  0.00    +0.380 N 
ATOM     11  C   UNL     1       2.906 -11.267   7.066  0.00  0.00    -0.077 C 
ATOM     12  C   UNL     1       2.886  -9.801   6.630  0.00  0.00    +0.004 C 
ATOM     13  H   UNL     1       1.349 -11.025   8.361  0.00  0.00    -0.082 HD
BRANCH  10  14
ATOM     14  C   UNL     1       1.637 -13.026   8.087  0.00  0.00    -0.075 C 
BRANCH  14  15
ATOM     15  C   UNL     1       2.579 -13.111   9.290  0.00  0.00    -0.028 C 
ATOM     16  C   UNL     1       2.730 -14.572   9.717  0.00  0.00    +0.002 C 
ATOM     17  C   UNL     1       3.672 -14.657  10.919  0.00  0.00    +0.000 C 
ATOM     18  C   UNL     1       3.093 -13.844  12.079  0.00  0.00    +0.000 C 
ATOM     19  C   UNL     1       2.942 -12.383  11.652  0.00  0.00    +0.000 C 
ATOM     20  C   UNL     1       2.000 -12.298  10.449  0.00  0.00    +0.002 C 
ENDBRANCH  14  15
ENDBRANCH  10  14
ENDBRANCH   4   7
BRANCH   1  21
ATOM     21  C   UNL     1       0.727  -6.150   2.296  0.00  0.00    +0.135 C 
BRANCH  21  22
ATOM     22  C   UNL     1       0.748  -4.625   2.169  0.00  0.00    +0.115 C 
BRANCH  22  23
ATOM     23  O   UNL     1       2.099  -4.161   2.220  0.00  0.00    -0.392 OA
ATOM     24  H   UNL     1       2.662  -4.514   1.518  0.00  0.00    +0.210 HD
ENDBRANCH  22  23
BRANCH  22  25
ATOM     25  C   UNL     1       0.118  -4.215   0.836  0.00  0.00    -0.046 C 
BRANCH  25  30
ATOM     26  C   UNL     1      -0.971   1.343   0.173  0.00  0.00    +0.007 C 
ATOM     27  C   UNL     1      -1.118  -0.177   0.272  0.00  0.00    -0.018 C 
ATOM     28  C   UNL     1      -0.682  -0.643   1.664  0.00  0.00    -0.016 C 
ATOM     29  C   UNL     1      -0.756  -2.170   1.730  0.00  0.00    -0.078 C 
ATOM     30  N   UNL     1       0.133  -2.751   0.717  0.00  0.00    +0.381 N 
ATOM     31  C   UNL     1      -0.322  -2.366  -0.624  0.00  0.00    -0.078 C 
ATOM     32  C   UNL     1      -0.231  -0.847  -0.781  0.00  0.00    -0.016 C 
ATOM     33  H   UNL     1       1.073  -2.414   0.862  0.00  0.00    -0.082 HD
ENDBRANCH  25  30
ENDBRANCH  22  25
ENDBRANCH  21  22
ENDBRANCH   1  21
TORSDOF 8
