REMARK  Name = ZINC38037167
REMARK  3 active torsions:
REMARK  status: ('A' for Active; 'I' for Inactive)
REMARK    1  A    between atoms: C_1  and  C_2
REMARK    2  A    between atoms: C_5  and  N_9
REMARK    3  A    between atoms: C_12  and  C_17
REMARK                            x       y       z     vdW  Elec       q    Type
REMARK                         _______ _______ _______ _____ _____    ______ ____
ROOT
ATOM      1  N   UNL     1       0.058  -4.173  -0.022  0.00  0.00    -0.193 N 
ATOM      2  C   UNL     1       0.166  -4.936   1.084  0.00  0.00    +0.248 C 
ATOM      3  O   UNL     1       0.261  -4.554   2.231  0.00  0.00    -0.273 OA
ATOM      4  C   UNL     1       0.142  -6.371   0.596  0.00  0.00    +0.164 C 
ATOM      5  N   UNL     1       0.011  -6.238  -0.865  0.00  0.00    -0.287 N 
ATOM      6  C   UNL     1      -0.034  -4.919  -1.129  0.00  0.00    +0.314 C 
ATOM      7  O   UNL     1      -0.144  -4.457  -2.248  0.00  0.00    -0.252 OA
ATOM      8  H   UNL     1      -0.035  -6.960  -1.511  0.00  0.00    +0.151 HD
ENDROOT
BRANCH   1  13
ATOM      9  C   UNL     1      -0.018   1.503   0.010  0.00  0.00    +0.045 C 
ATOM     10  C   UNL     1       0.002  -0.004   0.002  0.00  0.00    -0.032 A 
ATOM     11  C   UNL     1       0.028  -0.687  -1.200  0.00  0.00    +0.006 A 
ATOM     12  C   UNL     1       0.046  -2.068  -1.211  0.00  0.00    +0.024 A 
ATOM     13  C   UNL     1       0.040  -2.771  -0.013  0.00  0.00    +0.047 A 
ATOM     14  C   UNL     1       0.014  -2.084   1.192  0.00  0.00    +0.044 A 
ATOM     15  C   UNL     1       0.001  -0.701   1.197  0.00  0.00    +0.046 A 
ATOM     16 CL   UNL     1      -0.024   0.160   2.704  0.00  0.00    -0.083 Cl
ENDBRANCH   1  13
BRANCH   4  17
ATOM     17  C   UNL     1      -1.058  -7.118   1.181  0.00  0.00    +0.018 C 
ATOM     18  C   UNL     1      -0.966  -7.115   2.708  0.00  0.00    +0.006 C 
ATOM     19  C   UNL     1      -2.166  -7.863   3.293  0.00  0.00    +0.000 C 
ATOM     20  C   UNL     1      -2.165  -9.306   2.785  0.00  0.00    +0.000 C 
ATOM     21  C   UNL     1      -2.258  -9.309   1.258  0.00  0.00    +0.000 C 
ATOM     22  C   UNL     1      -1.058  -8.561   0.673  0.00  0.00    +0.006 C 
ENDBRANCH   4  17
TORSDOF 2
