REMARK  Name = ZINC15519169
REMARK  14 active torsions:
REMARK  status: ('A' for Active; 'I' for Inactive)
REMARK    1  A    between atoms: C_1  and  C_2
REMARK    2  A    between atoms: C_2  and  C_3
REMARK    3  A    between atoms: C_3  and  C_4
REMARK    4  A    between atoms: C_4  and  N_5
REMARK    5  A    between atoms: C_6  and  N_29
REMARK    6  A    between atoms: C_7  and  N_14
REMARK    7  A    between atoms: N_14  and  C_15
REMARK    8  A    between atoms: C_15  and  C_16
REMARK    9  A    between atoms: C_17  and  C_19
REMARK   10  A    between atoms: C_19  and  N_58
REMARK   11  A    between atoms: C_20  and  C_21
REMARK   12  A    between atoms: C_20  and  N_58
REMARK   13  A    between atoms: C_23  and  C_24
REMARK   14  A    between atoms: C_23  and  N_58
REMARK                            x       y       z     vdW  Elec       q    Type
REMARK                         _______ _______ _______ _____ _____    ______ ____
ROOT
ATOM      1  N   UNL     1       1.265   2.228  -0.323  0.00  0.00    -0.266 N 
ATOM      2  C   UNL     1       0.108   1.574  -0.554  0.00  0.00    +0.203 C 
ATOM      3  O   UNL     1       0.073   0.363  -0.490  0.00  0.00    -0.277 OA
ENDROOT
BRANCH   1   6
ATOM      4  N   UNL     1       3.570   0.191   1.687  0.00  0.00    -0.280 N 
ATOM      5  C   UNL     1       2.440   0.881   1.314  0.00  0.00    +0.127 A 
ATOM      6  C   UNL     1       2.410   1.514   0.088  0.00  0.00    +0.140 A 
ATOM      7  C   UNL     1       3.540   1.429  -0.747  0.00  0.00    +0.277 A 
ATOM      8  O   UNL     1       3.539   1.976  -1.837  0.00  0.00    -0.266 OA
ATOM      9  N   UNL     1       4.624   0.746  -0.332  0.00  0.00    -0.273 N 
ATOM     10  H   UNL     1       5.430   0.693  -0.921  0.00  0.00    +0.173 HD
ATOM     11  C   UNL     1       4.635   0.135   0.866  0.00  0.00    +0.331 A 
ATOM     12  O   UNL     1       5.625  -0.480   1.214  0.00  0.00    -0.246 OA
BRANCH   5  13
ATOM     13  N   UNL     1       1.353   0.939   2.153  0.00  0.00    -0.343 N 
ATOM     14  H   UNL     1       0.599   1.508   1.931  0.00  0.00    +0.144 HD
ATOM     15  H   UNL     1       1.339   0.410   2.966  0.00  0.00    +0.144 HD
ENDBRANCH   5  13
BRANCH   4  16
ATOM     16  C   UNL     1       3.615  -0.486   2.985  0.00  0.00    +0.128 C 
BRANCH  16  17
ATOM     17  C   UNL     1       3.100  -1.919   2.831  0.00  0.00    +0.021 C 
BRANCH  17  19
ATOM     18  C   UNL     1       2.633  -4.059   4.033  0.00  0.00    +0.004 C 
ATOM     19  C   UNL     1       3.147  -2.626   4.187  0.00  0.00    -0.002 C 
ENDBRANCH  17  19
ENDBRANCH  16  17
ENDBRANCH   4  16
ENDBRANCH   1   6
BRANCH   1  20
ATOM     20  C   UNL     1       1.333   3.681  -0.498  0.00  0.00    +0.110 C 
ATOM     21  C   UNL     1       1.082   4.370   0.845  0.00  0.00    +0.025 C 
ENDBRANCH   1  20
BRANCH   2  22
ATOM     22  C   UNL     1      -1.139   2.346  -0.898  0.00  0.00    +0.020 C 
BRANCH  22  23
ATOM     23  N   UNL     1      -2.244   1.391  -1.127  0.00  0.00    +0.391 N 
ATOM     24  H   UNL     1      -1.937   0.683  -1.804  0.00  0.00    -0.080 HD
BRANCH  23  25
ATOM     25  C   UNL     1      -2.602   0.721   0.141  0.00  0.00    -0.051 C 
BRANCH  25  26
ATOM     26  C   UNL     1      -3.064   1.730   1.160  0.00  0.00    -0.053 C 
ATOM     27  C   UNL     1      -4.220   1.576   1.757  0.00  0.00    +0.002 C 
ENDBRANCH  25  26
ENDBRANCH  23  25
BRANCH  23  28
ATOM     28  C   UNL     1      -3.420   2.101  -1.673  0.00  0.00    -0.035 C 
BRANCH  28  29
ATOM     29  C   UNL     1      -4.414   1.082  -2.168  0.00  0.00    -0.027 A 
ATOM     30  C   UNL     1      -5.495   0.566  -1.534  0.00  0.00    +0.009 A 
ATOM     31  C   UNL     1      -6.277  -0.365  -2.192  0.00  0.00    +0.008 A 
ATOM     32  C   UNL     1      -5.933  -0.743  -3.447  0.00  0.00    +0.045 A 
ATOM     33  S   UNL     1      -4.468   0.236  -3.739  0.00  0.00    -0.103 S 
ENDBRANCH  28  29
ENDBRANCH  23  28
ENDBRANCH  22  23
ENDBRANCH   2  22
TORSDOF 12
