REMARK  Name = ZINC20905223
REMARK  15 active torsions:
REMARK  status: ('A' for Active; 'I' for Inactive)
REMARK    1  A    between atoms: C_1  and  C_2
REMARK    2  A    between atoms: C_3  and  C_11
REMARK    3  A    between atoms: C_4  and  C_10
REMARK    4  A    between atoms: N_5  and  C_7
REMARK    5  A    between atoms: C_7  and  C_8
REMARK    6  A    between atoms: C_7  and  C_9
REMARK    7  A    between atoms: N_12  and  N_13
REMARK    8  A    between atoms: C_16  and  S_19
REMARK    9  A    between atoms: S_19  and  C_20
REMARK   10  A    between atoms: C_20  and  C_21
REMARK   11  A    between atoms: N_23  and  N_24
REMARK   12  A    between atoms: C_25  and  C_27
REMARK   13  A    between atoms: C_27  and  C_28
REMARK   14  A    between atoms: C_27  and  C_29
REMARK   15  A    between atoms: C_27  and  C_30
REMARK                            x       y       z     vdW  Elec       q    Type
REMARK                         _______ _______ _______ _____ _____    ______ ____
ROOT
ATOM      1  N   UNL     1      -3.598   1.695   6.347  0.00  0.00    -0.205 N 
ATOM      2  C   UNL     1      -4.099   2.652   7.218  0.00  0.00    +0.232 A 
ATOM      3  N   UNL     1      -4.759   2.405   8.390  0.00  0.00    -0.186 NA
ATOM      4  C   UNL     1      -5.088   3.607   8.950  0.00  0.00    +0.211 A 
ATOM      5  N   UNL     1      -4.650   4.557   8.158  0.00  0.00    -0.144 NA
ATOM      6  N   UNL     1      -4.019   3.951   7.064  0.00  0.00    -0.245 N 
ATOM      7  H   UNL     1      -3.717   0.626   6.577  0.00  0.00    +0.177 HD
ATOM      8  H   UNL     1      -3.516   4.370   6.180  0.00  0.00    +0.192 HD
ENDROOT
BRANCH   1  10
ATOM      9  C   UNL     1      -2.472   1.195   4.361  0.00  0.00    +0.141 C 
ATOM     10  N   UNL     1      -2.941   2.090   5.175  0.00  0.00    -0.187 NA
BRANCH   9  13
ATOM     11  C   UNL     1      -1.979   4.186   3.430  0.00  0.00    +0.068 C 
ATOM     12  C   UNL     1      -1.553   2.938   2.700  0.00  0.00    +0.069 A 
ATOM     13  C   UNL     1      -1.779   1.612   3.126  0.00  0.00    +0.038 A 
ATOM     14  C   UNL     1      -1.238   0.778   2.172  0.00  0.00    +0.045 A 
ATOM     15  N   UNL     1      -0.698   1.558   1.213  0.00  0.00    -0.265 N 
ATOM     16  N   UNL     1      -0.911   2.897   1.564  0.00  0.00    -0.175 NA
ATOM     17  C   UNL     1      -1.245  -0.729   2.196  0.00  0.00    +0.066 C 
BRANCH  15  18
ATOM     18  C   UNL     1      -0.013   1.086   0.008  0.00  0.00    +0.101 C 
ATOM     19  C   UNL     1       1.423   1.615  -0.003  0.00  0.00    +0.032 C 
ATOM     20  C   UNL     1      -0.753   1.593  -1.232  0.00  0.00    +0.032 C 
ENDBRANCH  15  18
ENDBRANCH   9  13
ENDBRANCH   1  10
BRANCH   4  21
ATOM     21  S   UNL     1      -5.947   3.841  10.470  0.00  0.00    -0.075 S 
BRANCH  21  22
ATOM     22  C   UNL     1      -6.061   5.643  10.638  0.00  0.00    +0.174 C 
BRANCH  22  23
ATOM     23  C   UNL     1      -6.785   5.984  11.915  0.00  0.00    +0.239 C 
ATOM     24  O   UNL     1      -7.185   5.098  12.641  0.00  0.00    -0.273 OA
ATOM     25  N   UNL     1      -6.988   7.274  12.251  0.00  0.00    -0.234 N 
ATOM     26  H   UNL     1      -6.625   8.077  11.593  0.00  0.00    +0.173 HD
BRANCH  25  27
ATOM     27  N   UNL     1      -7.661   7.591  13.438  0.00  0.00    -0.234 N 
ATOM     28  C   UNL     1      -7.864   8.880  13.774  0.00  0.00    +0.234 C 
ATOM     29  O   UNL     1      -7.465   9.766  13.048  0.00  0.00    -0.274 OA
ATOM     30  H   UNL     1      -8.024   6.787  14.096  0.00  0.00    +0.173 HD
BRANCH  28  31
ATOM     31  C   UNL     1      -8.588   9.221  15.051  0.00  0.00    +0.040 C 
ATOM     32  C   UNL     1      -8.684  10.742  15.192  0.00  0.00    +0.020 C 
ATOM     33  C   UNL     1      -9.996   8.622  15.014  0.00  0.00    +0.020 C 
ATOM     34  C   UNL     1      -7.820   8.646  16.242  0.00  0.00    +0.020 C 
ENDBRANCH  28  31
ENDBRANCH  25  27
ENDBRANCH  22  23
ENDBRANCH  21  22
ENDBRANCH   4  21
TORSDOF 8
