REMARK  Name = ZINC19961558
REMARK  5 active torsions:
REMARK  status: ('A' for Active; 'I' for Inactive)
REMARK    1  A    between atoms: C_1  and  C_2
REMARK    2  A    between atoms: C_2  and  C_3
REMARK    3  A    between atoms: C_2  and  C_4
REMARK    4  A    between atoms: C_7  and  C_10
REMARK    5  A    between atoms: C_23  and  C_25
REMARK                            x       y       z     vdW  Elec       q    Type
REMARK                         _______ _______ _______ _____ _____    ______ ____
ROOT
ATOM      1  C   UNL     1      -0.732   1.960   1.270  0.00  0.00    +0.083 C 
ATOM      2  C   UNL     1      -1.026   3.430   1.141  0.00  0.00    +0.066 A 
ATOM      3  C   UNL     1      -1.026   4.255   2.270  0.00  0.00    +0.258 A 
ATOM      4  O   UNL     1      -0.764   3.801   3.373  0.00  0.00    -0.267 OA
ATOM      5  N   UNL     1      -1.322   5.564   2.116  0.00  0.00    -0.295 N 
ATOM      6  H   UNL     1      -1.321   6.234   2.988  0.00  0.00    +0.172 HD
ATOM      7  C   UNL     1      -1.621   6.053   0.882  0.00  0.00    +0.200 A 
ATOM      8  N   UNL     1      -1.617   5.281  -0.184  0.00  0.00    -0.200 NA
ATOM      9  C   UNL     1      -1.317   3.980  -0.095  0.00  0.00    +0.138 A 
ATOM     10  N   UNL     1      -1.296   3.191  -1.232  0.00  0.00    -0.269 N 
ATOM     11  C   UNL     1      -0.744   1.966  -1.212  0.00  0.00    +0.236 C 
ATOM     12  O   UNL     1      -0.833   1.253  -2.188  0.00  0.00    -0.274 OA
ATOM     13  C   UNL     1      -0.018   1.468   0.010  0.00  0.00    +0.189 C 
ATOM     14  N   UNL     1      -1.933   7.380   0.746  0.00  0.00    -0.301 N 
ATOM     15  C   UNL     1      -2.971   7.777   1.706  0.00  0.00    +0.108 C 
ATOM     16  C   UNL     1      -3.190   9.290   1.626  0.00  0.00    +0.019 C 
ATOM     17  C   UNL     1      -3.613   9.665   0.203  0.00  0.00    +0.003 C 
ATOM     18  C   UNL     1      -2.538   9.197  -0.781  0.00  0.00    +0.019 C 
ATOM     19  C   UNL     1      -2.338   7.687  -0.631  0.00  0.00    +0.108 C 
ATOM     20  H   UNL     1      -1.734   3.565  -2.169  0.00  0.00    +0.156 HD
ENDROOT
BRANCH   1  24
ATOM     21  C   UNL     1      -4.391  -0.188   1.764  0.00  0.00    -0.045 A 
ATOM     22  C   UNL     1      -3.418  -0.247   2.743  0.00  0.00    +0.004 A 
ATOM     23  C   UNL     1      -2.234   0.449   2.584  0.00  0.00    +0.004 A 
ATOM     24  C   UNL     1      -2.023   1.202   1.444  0.00  0.00    -0.038 A 
ATOM     25  C   UNL     1      -2.998   1.265   0.467  0.00  0.00    +0.004 A 
ATOM     26  C   UNL     1      -4.181   0.566   0.625  0.00  0.00    +0.004 A 
BRANCH  21  28
ATOM     27  C   UNL     1      -6.856   0.034   1.921  0.00  0.00    +0.012 C 
ATOM     28  C   UNL     1      -5.681  -0.947   1.937  0.00  0.00    +0.013 C 
ATOM     29  C   UNL     1      -5.840  -1.951   0.794  0.00  0.00    +0.012 C 
ENDBRANCH  21  28
ENDBRANCH   1  24
BRANCH  13  30
ATOM     30  C   UNL     1       0.002  -0.004   0.002  0.00  0.00    +0.076 C 
ATOM     31  N   UNL     1       0.018  -1.140  -0.004  0.00  0.00    -0.196 NA
ENDBRANCH  13  30
TORSDOF 3
