REMARK  Name = ZINC38564776
REMARK  9 active torsions:
REMARK  status: ('A' for Active; 'I' for Inactive)
REMARK    1  A    between atoms: C_6  and  C_7
REMARK    2  A    between atoms: C_7  and  S_8
REMARK    3  A    between atoms: S_8  and  C_9
REMARK    4  A    between atoms: C_15  and  N_19
REMARK    5  A    between atoms: N_20  and  C1*_21
REMARK    6  A    between atoms: C2*_23  and  O2*_33
REMARK    7  A    between atoms: C3*_25  and  O3*_32
REMARK    8  A    between atoms: C4*_27  and  C5*_30
REMARK    9  A    between atoms: C5*_30  and  O5*_31
REMARK                            x       y       z     vdW  Elec       q    Type
REMARK                         _______ _______ _______ _____ _____    ______ ____
ROOT
ATOM      1  C   UNL     1      -3.379  -1.999  -1.513  0.00  0.00    +0.256 C 
ATOM      2  N   UNL     1      -3.144  -3.227  -0.745  0.00  0.00    -0.242 NA
ATOM      3  C   UNL     1      -3.862  -3.192   0.325  0.00  0.00    +0.165 C 
ATOM      4  C   UNL     1      -4.645  -1.930   0.369  0.00  0.00    +0.159 C 
ATOM      5  N   UNL     1      -5.438  -1.727   1.401  0.00  0.00    -0.198 NA
ATOM      6  C   UNL     1      -5.546  -2.619   2.387  0.00  0.00    +0.226 C 
ATOM      7  N   UNL     1      -4.892  -3.765   2.437  0.00  0.00    -0.141 NA
ATOM      8  C   UNL     1      -4.043  -4.133   1.469  0.00  0.00    +0.291 C 
ATOM      9  O   UNL     1      -3.443  -5.192   1.520  0.00  0.00    -0.266 OA
ATOM     10  N   UNL     1      -4.352  -1.205  -0.749  0.00  0.00    -0.254 N 
ENDROOT
BRANCH  10  11
ATOM     11  C1* UNL     1      -4.898   0.104  -1.117  0.00  0.00    +0.241 C 
ATOM     12  C2* UNL     1      -6.423   0.007  -1.341  0.00  0.00    +0.193 C 
ATOM     13  C3* UNL     1      -6.971   1.337  -0.775  0.00  0.00    +0.178 C 
ATOM     14  C4* UNL     1      -5.712   2.079  -0.276  0.00  0.00    +0.177 C 
ATOM     15  O4* UNL     1      -4.742   1.038  -0.026  0.00  0.00    -0.348 OA
BRANCH  13  16
ATOM     16  O3* UNL     1      -7.624   2.086  -1.802  0.00  0.00    -0.386 OA
ATOM     17  H3* UNL     1      -7.987   2.931  -1.502  0.00  0.00    +0.210 HD
ENDBRANCH  13  16
BRANCH  12  18
ATOM     18  O2* UNL     1      -6.718  -0.106  -2.735  0.00  0.00    -0.385 OA
ATOM     19  H2* UNL     1      -7.662  -0.170  -2.933  0.00  0.00    +0.210 HD
ENDBRANCH  12  18
BRANCH  14  20
ATOM     20  C5* UNL     1      -6.021   2.844   1.013  0.00  0.00    +0.190 C 
BRANCH  20  21
ATOM     21  O5* UNL     1      -4.880   3.616   1.394  0.00  0.00    -0.392 OA
ATOM     22  H5* UNL     1      -5.005   4.128   2.204  0.00  0.00    +0.210 HD
ENDBRANCH  20  21
ENDBRANCH  14  20
ENDBRANCH  10  11
BRANCH   6  23
ATOM     23  N   UNL     1      -6.395  -2.324   3.423  0.00  0.00    -0.234 NA
ATOM     24  H   UNL     1      -6.498  -2.949   4.157  0.00  0.00    +0.173 HD
ENDBRANCH   6  23
BRANCH   1  25
ATOM     25  S   UNL     1      -1.829  -1.075  -1.696  0.00  0.00    -0.110 S 
BRANCH  25  26
ATOM     26  C   UNL     1      -1.293  -0.775   0.011  0.00  0.00    +0.108 C 
BRANCH  26  32
ATOM     27  C   UNL     1      -0.017   1.378   0.010  0.00  0.00    +0.006 A 
ATOM     28  C   UNL     1       1.171   2.086   0.002  0.00  0.00    +0.022 A 
ATOM     29  C   UNL     1       2.378   1.412  -0.013  0.00  0.00    +0.059 A 
ATOM     30  C   UNL     1       2.397   0.027  -0.021  0.00  0.00    +0.060 A 
ATOM     31  C   UNL     1       1.208  -0.680  -0.013  0.00  0.00    +0.026 A 
ATOM     32  C   UNL     1       0.002  -0.004   0.002  0.00  0.00    -0.036 A 
ATOM     33 CL   UNL     1       3.912  -0.821  -0.040  0.00  0.00    -0.082 Cl
ATOM     34 CL   UNL     1       3.869   2.301  -0.023  0.00  0.00    -0.082 Cl
ENDBRANCH  26  32
ENDBRANCH  25  26
ENDBRANCH   1  25
TORSDOF 9
