REMARK  Name = ZINC67562617
REMARK  6 active torsions:
REMARK  status: ('A' for Active; 'I' for Inactive)
REMARK    1  A    between atoms: C_1  and  S_2
REMARK    2  A    between atoms: S_2  and  C_3
REMARK    3  A    between atoms: C_3  and  C_4
REMARK    4  A    between atoms: C_7  and  N_10
REMARK    5  A    between atoms: C_11  and  C_13
REMARK    6  A    between atoms: C_19  and  C_22
REMARK                            x       y       z     vdW  Elec       q    Type
REMARK                         _______ _______ _______ _____ _____    ______ ____
ROOT
ATOM      1  N   UNL     1       1.225  -6.079   1.882  0.00  0.00    -0.278 N 
ATOM      2  C   UNL     1       2.199  -6.752   1.237  0.00  0.00    +0.303 C 
ATOM      3  O   UNL     1       3.011  -6.149   0.566  0.00  0.00    -0.265 OA
ATOM      4  H   UNL     1       0.625  -6.549   2.482  0.00  0.00    +0.155 HD
ENDROOT
BRANCH   2   5
ATOM      5  C   UNL     1       2.278  -8.239   1.349  0.00  0.00    +0.302 C 
ATOM      6  O   UNL     1       1.401  -8.852   1.922  0.00  0.00    -0.265 OA
ATOM      7  N   UNL     1       3.324  -8.900   0.815  0.00  0.00    -0.289 N 
ATOM      8  C   UNL     1       4.398  -8.178   0.114  0.00  0.00    +0.136 C 
ATOM      9  C   UNL     1       5.744  -8.637   0.689  0.00  0.00    +0.180 C 
ATOM     10  O   UNL     1       5.809 -10.065   0.652  0.00  0.00    -0.364 OA
ATOM     11  C   UNL     1       4.819 -10.716   1.451  0.00  0.00    +0.221 C 
ATOM     12  C   UNL     1       3.429 -10.364   0.920  0.00  0.00    +0.149 C 
BRANCH  11  13
ATOM     13  C   UNL     1       5.022 -12.208   1.386  0.00  0.00    +0.241 C 
ATOM     14  O   UNL     1       5.867 -12.674   0.651  0.00  0.00    -0.273 OA
ATOM     15  N   UNL     1       4.265 -13.025   2.145  0.00  0.00    -0.327 N 
ATOM     16  H   UNL     1       3.589 -12.653   2.733  0.00  0.00    +0.145 HD
ATOM     17  H   UNL     1       4.396 -13.985   2.103  0.00  0.00    +0.145 HD
ENDBRANCH  11  13
ENDBRANCH   2   5
BRANCH   1  21
ATOM     18  C   UNL     1       0.791  -1.979   1.297  0.00  0.00    -0.037 A 
ATOM     19  C   UNL     1       0.412  -2.548   2.499  0.00  0.00    +0.006 A 
ATOM     20  C   UNL     1       0.554  -3.907   2.696  0.00  0.00    +0.023 A 
ATOM     21  C   UNL     1       1.079  -4.703   1.685  0.00  0.00    +0.034 A 
ATOM     22  C   UNL     1       1.458  -4.128   0.479  0.00  0.00    +0.023 A 
ATOM     23  C   UNL     1       1.308  -2.769   0.286  0.00  0.00    +0.006 A 
BRANCH  18  24
ATOM     24  C   UNL     1       0.633  -0.495   1.085  0.00  0.00    +0.104 C 
BRANCH  24  26
ATOM     25  C   UNL     1      -1.036   1.650   0.199  0.00  0.00    +0.084 C 
ATOM     26  S   UNL     1      -1.007  -0.154   0.391  0.00  0.00    -0.159 S 
ENDBRANCH  24  26
ENDBRANCH  18  24
ENDBRANCH   1  21
TORSDOF 5
