REMARK  Name = ZINC19431032
REMARK  4 active torsions:
REMARK  status: ('A' for Active; 'I' for Inactive)
REMARK    1  A    between atoms: C_1  and  C_2
REMARK    2  A    between atoms: C_7  and  C_10
REMARK    3  A    between atoms: C_12  and  C_17
REMARK    4  A    between atoms: N_18  and  O_19
REMARK                            x       y       z     vdW  Elec       q    Type
REMARK                         _______ _______ _______ _____ _____    ______ ____
ROOT
ATOM      1  C   UNL     1      -6.607   2.645   0.160  0.00  0.00    +0.039 C 
ATOM      2  C   UNL     1      -5.461   3.658   0.195  0.00  0.00    +0.133 C 
ATOM      3  C   UNL     1      -4.122   2.915   0.203  0.00  0.00    +0.138 C 
ATOM      4  N   UNL     1      -3.027   3.889   0.314  0.00  0.00    -0.310 N 
ATOM      5  C   UNL     1      -3.166   4.691   1.538  0.00  0.00    +0.138 C 
ATOM      6  C   UNL     1      -4.514   5.417   1.517  0.00  0.00    +0.133 C 
ATOM      7  O   UNL     1      -5.564   4.456   1.377  0.00  0.00    -0.371 OA
ATOM      8  C   UNL     1      -4.552   6.390   0.338  0.00  0.00    +0.039 C 
ATOM      9  C   UNL     1      -1.795   3.258   0.271  0.00  0.00    +0.132 A 
ATOM     10  C   UNL     1      -0.923   3.502  -0.803  0.00  0.00    +0.058 A 
ATOM     11  C   UNL     1       0.315   2.855  -0.825  0.00  0.00    +0.016 A 
ATOM     12  C   UNL     1       0.629   1.998   0.216  0.00  0.00    +0.020 A 
ATOM     13  C   UNL     1      -0.281   1.808   1.239  0.00  0.00    +0.113 A 
ATOM     14  N   UNL     1      -1.448   2.425   1.239  0.00  0.00    -0.240 NA
ENDROOT
BRANCH  10  15
ATOM     15  C   UNL     1      -1.309   4.427  -1.890  0.00  0.00    +0.166 C 
ATOM     16  N   UNL     1      -2.504   4.941  -1.913  0.00  0.00    -0.071 NA
ATOM     17  N   UNL     1      -0.398   4.746  -2.883  0.00  0.00    -0.340 N 
ATOM     18  H   UNL     1      -0.685   5.434  -3.692  0.00  0.00    +0.144 HD
ATOM     19  H   UNL     1       0.612   4.311  -2.863  0.00  0.00    +0.144 HD
BRANCH  16  20
ATOM     20  O   UNL     1      -2.910   5.741  -3.009  0.00  0.00    -0.408 OA
ATOM     21  H   UNL     1      -3.920   6.175  -3.029  0.00  0.00    +0.328 HD
ENDBRANCH  16  20
ENDBRANCH  10  15
TORSDOF 2
