REMARK  Name = ZINC59477668
REMARK  8 active torsions:
REMARK  status: ('A' for Active; 'I' for Inactive)
REMARK    1  A    between atoms: C_1  and  C_2
REMARK    2  A    between atoms: C_6  and  C_24
REMARK    3  A    between atoms: C_7  and  N_8
REMARK    4  A    between atoms: C_9  and  C_11
REMARK    5  A    between atoms: C_12  and  C_13
REMARK    6  A    between atoms: C_16  and  N_21
REMARK    7  A    between atoms: C_18  and  O_19
REMARK    8  A    between atoms: O_19  and  C_20
REMARK                            x       y       z     vdW  Elec       q    Type
REMARK                         _______ _______ _______ _____ _____    ______ ____
ROOT
ATOM      1  C   UNL     1      -0.168   0.141   4.816  0.00  0.00    +0.068 C 
ATOM      2  C   UNL     1      -0.321  -0.512   5.988  0.00  0.00    +0.016 C 
ENDROOT
BRANCH   2   3
ATOM      3  C   UNL     1      -0.407   0.244   7.245  0.00  0.00    +0.017 A 
ATOM      4  C   UNL     1      -0.336   1.642   7.232  0.00  0.00    +0.014 A 
ATOM      5  C   UNL     1      -0.418   2.344   8.414  0.00  0.00    +0.033 A 
ATOM      6  C   UNL     1      -0.569   1.673   9.617  0.00  0.00    +0.130 A 
ATOM      7  C   UNL     1      -0.640   0.294   9.645  0.00  0.00    +0.079 A 
ATOM      8  C   UNL     1      -0.567  -0.430   8.466  0.00  0.00    +0.129 A 
BRANCH   6   9
ATOM      9  N   UNL     1      -0.654   2.440  10.880  0.00  0.00    +0.057 N 
ATOM     10  O   UNL     1      -0.592   3.647  10.860  0.00  0.00    -0.126 OA
ATOM     11  O   UNL     1      -0.786   1.859  11.932  0.00  0.00    -0.126 OA
ENDBRANCH   6   9
BRANCH   8  12
ATOM     12  O   UNL     1      -0.643  -1.785   8.491  0.00  0.00    -0.494 OA
ATOM     13  C   UNL     1      -0.805  -2.401   9.770  0.00  0.00    +0.277 C 
ENDBRANCH   8  12
ENDBRANCH   2   3
BRANCH   1  15
ATOM     14  N   UNL     1       0.071   0.040   2.396  0.00  0.00    -0.282 N 
ATOM     15  C   UNL     1      -0.082  -0.612   3.566  0.00  0.00    +0.241 C 
ATOM     16  O   UNL     1      -0.149  -1.827   3.581  0.00  0.00    -0.270 OA
ATOM     17  H   UNL     1       0.193   1.002   2.389  0.00  0.00    +0.155 HD
BRANCH  14  24
ATOM     18  C   UNL     1       2.541  -0.376   1.046  0.00  0.00    +0.045 C 
ATOM     19  C   UNL     1       1.237  -0.897   0.500  0.00  0.00    -0.029 A 
ATOM     20  C   UNL     1       1.217  -1.604  -0.686  0.00  0.00    +0.005 A 
ATOM     21  C   UNL     1       0.020  -2.082  -1.188  0.00  0.00    +0.001 A 
ATOM     22  C   UNL     1      -1.160  -1.855  -0.504  0.00  0.00    +0.005 A 
ATOM     23  C   UNL     1      -1.147  -1.149   0.683  0.00  0.00    -0.029 A 
ATOM     24  C   UNL     1       0.053  -0.671   1.192  0.00  0.00    +0.039 A 
ATOM     25  C   UNL     1      -2.434  -0.901   1.427  0.00  0.00    +0.045 C 
ENDBRANCH  14  24
ENDBRANCH   1  15
TORSDOF 5
