REMARK  Name = ZINC54681417
REMARK  5 active torsions:
REMARK  status: ('A' for Active; 'I' for Inactive)
REMARK    1  A    between atoms: C_1  and  C_2
REMARK    2  A    between atoms: C_2  and  C_3
REMARK    3  A    between atoms: C_2  and  C_4
REMARK    4  A    between atoms: C_2  and  C_5
REMARK    5  A    between atoms: C_6  and  C_11
REMARK                            x       y       z     vdW  Elec       q    Type
REMARK                         _______ _______ _______ _____ _____    ______ ____
ROOT
ATOM      1  C   UNL     1       0.046  -2.325  -0.394  0.00  0.00    +0.212 C 
ATOM      2  N   UNL     1       0.399  -3.630  -0.982  0.00  0.00    -0.293 N 
ATOM      3  C   UNL     1      -0.332  -4.127  -2.029  0.00  0.00    +0.183 C 
ATOM      4  N   UNL     1      -1.613  -3.838  -2.174  0.00  0.00    -0.183 NA
ATOM      5  C   UNL     1      -2.183  -2.981  -1.294  0.00  0.00    +0.236 A 
ATOM      6  N   UNL     1      -1.418  -2.237  -0.412  0.00  0.00    -0.285 N 
ATOM      7  C   UNL     1      -2.273  -1.478   0.353  0.00  0.00    +0.076 A 
ATOM      8  C   UNL     1      -2.100  -0.570   1.389  0.00  0.00    +0.077 A 
ATOM      9  C   UNL     1      -3.200   0.041   1.960  0.00  0.00    +0.164 A 
ATOM     10  C   UNL     1      -4.483  -0.248   1.504  0.00  0.00    +0.164 A 
ATOM     11  C   UNL     1      -4.674  -1.149   0.477  0.00  0.00    +0.079 A 
ATOM     12  C   UNL     1      -3.569  -1.773  -0.110  0.00  0.00    +0.095 A 
ATOM     13  N   UNL     1      -3.445  -2.687  -1.120  0.00  0.00    -0.210 NA
ATOM     14  O   UNL     1      -5.558   0.367   2.081  0.00  0.00    -0.488 OA
ATOM     15  C   UNL     1      -5.840  -0.003   3.432  0.00  0.00    +0.232 C 
ATOM     16  C   UNL     1      -4.997   0.810   4.402  0.00  0.00    +0.082 C 
ATOM     17  C   UNL     1      -3.511   0.522   4.259  0.00  0.00    +0.232 C 
ATOM     18  O   UNL     1      -3.034   0.936   2.978  0.00  0.00    -0.488 OA
ATOM     19  N   UNL     1       0.279  -4.940  -2.945  0.00  0.00    -0.331 N 
ATOM     20  H   UNL     1       1.147  -4.136  -0.629  0.00  0.00    +0.151 HD
ATOM     21  H   UNL     1       1.219  -5.159  -2.849  0.00  0.00    +0.145 HD
ATOM     22  H   UNL     1      -0.228  -5.297  -3.691  0.00  0.00    +0.145 HD
ENDROOT
BRANCH   1  24
ATOM     23  C   UNL     1       1.926  -0.679  -1.073  0.00  0.00    +0.075 A 
ATOM     24  C   UNL     1       0.641  -1.211  -1.216  0.00  0.00    +0.034 A 
ATOM     25  C   UNL     1       0.025  -0.549  -2.223  0.00  0.00    +0.112 A 
ATOM     26  N   UNL     1       0.891   0.369  -2.701  0.00  0.00    -0.284 N 
ATOM     27  H   UNL     1       0.721   0.990  -3.427  0.00  0.00    +0.188 HD
ATOM     28  N   UNL     1       2.075   0.272  -1.960  0.00  0.00    -0.178 NA
BRANCH  23  30
ATOM     29  C   UNL     1       4.278  -0.395  -0.341  0.00  0.00    +0.017 C 
ATOM     30  C   UNL     1       2.959  -1.120  -0.068  0.00  0.00    +0.007 C 
ATOM     31  C   UNL     1       3.173  -2.630  -0.187  0.00  0.00    +0.017 C 
ATOM     32  C   UNL     1       2.474  -0.783   1.343  0.00  0.00    +0.017 C 
ENDBRANCH  23  30
ENDBRANCH   1  24
TORSDOF 2
