REMARK  Name = ZINC43091174
REMARK  8 active torsions:
REMARK  status: ('A' for Active; 'I' for Inactive)
REMARK    1  A    between atoms: C_1  and  C_2
REMARK    2  A    between atoms: C_2  and  C_3
REMARK    3  A    between atoms: C_3  and  C_5
REMARK    4  A    between atoms: C_3  and  N_22
REMARK    5  A    between atoms: C_5  and  C_7
REMARK    6  A    between atoms: C_5  and  N_14
REMARK    7  A    between atoms: C_17  and  C_20
REMARK    8  A    between atoms: C_20  and  O_21
REMARK                            x       y       z     vdW  Elec       q    Type
REMARK                         _______ _______ _______ _____ _____    ______ ____
ROOT
ATOM      1  C   UNL     1      -1.413  -2.059   0.130  0.00  0.00    +0.073 C 
ENDROOT
BRANCH   1   2
ATOM      2  C   UNL     1      -2.809  -2.622   0.045  0.00  0.00    -0.018 A 
ATOM      3  C   UNL     1      -3.714  -2.380   1.062  0.00  0.00    +0.006 A 
ATOM      4  C   UNL     1      -4.995  -2.896   0.984  0.00  0.00    +0.000 A 
ATOM      5  C   UNL     1      -5.370  -3.653  -0.111  0.00  0.00    +0.001 A 
ATOM      6  C   UNL     1      -4.465  -3.895  -1.127  0.00  0.00    +0.015 A 
ATOM      7  C   UNL     1      -3.185  -3.375  -1.052  0.00  0.00    +0.022 A 
ATOM      8 BR   UNL     1      -1.949  -3.699  -2.446  0.00  0.00    -0.050 Br
ENDBRANCH   1   2
BRANCH   1   9
ATOM      9  N   UNL     1      -0.537  -3.023   0.809  0.00  0.00    -0.297 NA
ATOM     10  C   UNL     1      -1.095  -3.416   2.110  0.00  0.00    +0.085 C 
ATOM     11  C   UNL     1      -0.092  -4.303   2.850  0.00  0.00    +0.021 C 
ATOM     12  C   UNL     1       0.205  -5.545   2.005  0.00  0.00    +0.017 C 
ATOM     13  C   UNL     1       0.739  -5.107   0.638  0.00  0.00    +0.021 C 
ATOM     14  C   UNL     1      -0.288  -4.196  -0.038  0.00  0.00    +0.085 C 
BRANCH  12  15
ATOM     15  C   UNL     1       1.253  -6.406   2.711  0.00  0.00    +0.159 C 
BRANCH  15  16
ATOM     16  O   UNL     1       1.444  -7.620   1.981  0.00  0.00    -0.395 OA
ATOM     17  H   UNL     1       2.097  -8.216   2.372  0.00  0.00    +0.209 HD
ENDBRANCH  15  16
ENDBRANCH  12  15
ENDBRANCH   1   9
BRANCH   1  18
ATOM     18  C   UNL     1      -1.439  -0.749   0.920  0.00  0.00    -0.053 C 
BRANCH  18  19
ATOM     19  N   UNL     1      -2.315   0.215   0.240  0.00  0.00    +0.381 N 
ATOM     20  H   UNL     1      -1.966   0.390  -0.690  0.00  0.00    -0.090 HD
ATOM     21  H   UNL     1      -3.249  -0.162   0.184  0.00  0.00    -0.090 HD
ATOM     22  H   UNL     1      -2.332   1.079   0.761  0.00  0.00    -0.090 HD
ENDBRANCH  18  19
BRANCH  18  24
ATOM     23  C   UNL     1      -0.026   1.065   1.899  0.00  0.00    +0.002 C 
ATOM     24  C   UNL     1      -0.022  -0.177   1.006  0.00  0.00    -0.018 C 
ENDBRANCH  18  24
ENDBRANCH   1  18
TORSDOF 7
