REMARK  Name = ZINC61770043
REMARK  4 active torsions:
REMARK  status: ('A' for Active; 'I' for Inactive)
REMARK    1  A    between atoms: C_6  and  N_7
REMARK    2  A    between atoms: C_9  and  S_11
REMARK    3  A    between atoms: S_11  and  C_12
REMARK    4  A    between atoms: N_15  and  C_19
REMARK                            x       y       z     vdW  Elec       q    Type
REMARK                         _______ _______ _______ _____ _____    ______ ____
ROOT
ATOM      1  C   UNL     1      -0.017   1.389   0.010  0.00  0.00    +0.025 A 
ATOM      2  C   UNL     1       1.143   2.119   0.003  0.00  0.00    +0.031 A 
ATOM      3  C   UNL     1       2.403   1.478  -0.013  0.00  0.00    +0.080 A 
ATOM      4  C   UNL     1       2.386   0.064  -0.021  0.00  0.00    +0.042 A 
ATOM      5  C   UNL     1       1.224  -0.665  -0.014  0.00  0.00    +0.040 A 
ATOM      6  C   UNL     1       0.002  -0.004   0.002  0.00  0.00    +0.026 A 
ATOM      7  S   UNL     1       4.118  -0.335  -0.040  0.00  0.00    -0.061 S 
ATOM      8  C   UNL     1       4.735   1.343  -0.036  0.00  0.00    +0.142 A 
ATOM      9  N   UNL     1       3.628   2.049  -0.022  0.00  0.00    -0.232 NA
ENDROOT
BRANCH   6  10
ATOM     10  N   UNL     1      -1.195  -0.729   0.010  0.00  0.00    -0.358 N 
ATOM     11  H   UNL     1      -2.045  -0.262   0.021  0.00  0.00    +0.142 HD
ATOM     12  H   UNL     1      -1.175  -1.699   0.005  0.00  0.00    +0.142 HD
ENDBRANCH   6  10
BRANCH   8  13
ATOM     13  S   UNL     1       6.405   1.905  -0.050  0.00  0.00    -0.038 S 
BRANCH  13  14
ATOM     14  C   UNL     1       6.263   3.662  -0.039  0.00  0.00    +0.168 A 
ATOM     15  C   UNL     1       7.463   4.505  -0.052  0.00  0.00    +0.284 A 
ATOM     16  O   UNL     1       8.576   4.006  -0.070  0.00  0.00    -0.265 OA
ATOM     17  N   UNL     1       7.306   5.847  -0.043  0.00  0.00    -0.309 N 
ATOM     18  C   UNL     1       6.046   6.369  -0.023  0.00  0.00    +0.109 A 
ATOM     19  C   UNL     1       4.963   5.562  -0.011  0.00  0.00    +0.130 A 
ATOM     20  N   UNL     1       5.078   4.235  -0.024  0.00  0.00    -0.242 NA
BRANCH  17  21
ATOM     21  C   UNL     1       8.475   6.731  -0.055  0.00  0.00    +0.090 C 
ATOM     22  C   UNL     1       8.232   8.226   0.158  0.00  0.00    +0.027 C 
ATOM     23  C   UNL     1       8.613   7.704  -1.228  0.00  0.00    +0.027 C 
ENDBRANCH  17  21
ENDBRANCH  13  14
ENDBRANCH   8  13
TORSDOF 4
