REMARK  Name = ZINC63478762
REMARK  6 active torsions:
REMARK  status: ('A' for Active; 'I' for Inactive)
REMARK    1  A    between atoms: C_1  and  C_2
REMARK    2  A    between atoms: N_16  and  C_17
REMARK    3  A    between atoms: C_20  and  C_23
REMARK    4  A    between atoms: N_25  and  C_26
REMARK    5  A    between atoms: C_26  and  C_27
REMARK    6  A    between atoms: C_27  and  C_28
REMARK                            x       y       z     vdW  Elec       q    Type
REMARK                         _______ _______ _______ _____ _____    ______ ____
ROOT
ATOM      1  C   UNL     1       1.667   0.337  -1.546  0.00  0.00    +0.042 A 
ATOM      2  C   UNL     1       2.137   1.372  -0.744  0.00  0.00    +0.024 A 
ATOM      3  C   UNL     1       3.184   2.156  -1.173  0.00  0.00    +0.015 A 
ATOM      4  C   UNL     1       3.776   1.910  -2.415  0.00  0.00    +0.037 A 
ATOM      5  C   UNL     1       3.302   0.869  -3.218  0.00  0.00    +0.015 A 
ATOM      6  C   UNL     1       2.257   0.086  -2.781  0.00  0.00    +0.024 A 
ENDROOT
BRANCH   1  21
ATOM      7  C   UNL     1       2.143  -1.560   0.431  0.00  0.00    +0.079 C 
ATOM      8  C   UNL     1       0.895  -1.720  -0.440  0.00  0.00    +0.185 C 
ATOM      9  C   UNL     1      -0.299  -2.105   0.445  0.00  0.00    +0.096 C 
ATOM     10  C   UNL     1      -1.540  -2.120  -0.463  0.00  0.00    +0.114 C 
ATOM     11  C   UNL     1      -1.264  -3.044  -1.627  0.00  0.00    +0.015 A 
ATOM     12  C   UNL     1      -2.331  -3.615  -2.296  0.00  0.00    +0.009 A 
ATOM     13  C   UNL     1      -2.107  -4.458  -3.368  0.00  0.00    +0.001 A 
ATOM     14  C   UNL     1      -0.813  -4.731  -3.773  0.00  0.00    +0.004 A 
ATOM     15  C   UNL     1       0.254  -4.165  -3.106  0.00  0.00    +0.046 A 
ATOM     16  C   UNL     1       0.033  -3.318  -2.024  0.00  0.00    +0.128 A 
ATOM     17  O   UNL     1       1.113  -2.759  -1.390  0.00  0.00    -0.468 OA
ATOM     18  N   UNL     1      -1.718  -0.758  -0.993  0.00  0.00    -0.292 N 
ATOM     19  C   UNL     1      -0.641  -0.022  -1.315  0.00  0.00    +0.310 C 
ATOM     20  O   UNL     1      -0.809   1.075  -1.811  0.00  0.00    -0.252 OA
ATOM     21  N   UNL     1       0.606  -0.455  -1.109  0.00  0.00    -0.216 N 
ATOM     22  H   UNL     1      -2.609  -0.394  -1.110  0.00  0.00    +0.151 HD
ENDBRANCH   1  21
BRANCH   4  23
ATOM     23  C   UNL     1       4.899   2.749  -2.878  0.00  0.00    +0.244 C 
ATOM     24  O   UNL     1       5.310   3.654  -2.178  0.00  0.00    -0.270 OA
ATOM     25  N   UNL     1       5.468   2.510  -4.076  0.00  0.00    -0.311 N 
ATOM     26  H   UNL     1       5.140   1.788  -4.634  0.00  0.00    +0.149 HD
BRANCH  25  27
ATOM     27  C   UNL     1       6.583   3.343  -4.535  0.00  0.00    +0.109 C 
BRANCH  27  28
ATOM     28  C   UNL     1       7.041   2.865  -5.915  0.00  0.00    +0.052 C 
BRANCH  28  29
ATOM     29  C   UNL     1       8.188   3.721  -6.387  0.00  0.00    -0.040 C 
ATOM     30  C   UNL     1       9.508   3.454  -6.261  0.00  0.00    -0.001 A 
ATOM     31  C   UNL     1      10.243   2.331  -5.668  0.00  0.00    +0.010 A 
ATOM     32  C   UNL     1      11.595   2.346  -5.692  0.00  0.00    +0.001 A 
ATOM     33  C   UNL     1      12.310   3.405  -6.268  0.00  0.00    +0.002 A 
ATOM     34  C   UNL     1      11.706   4.471  -6.833  0.00  0.00    +0.026 A 
ATOM     35  C   UNL     1      10.287   4.560  -6.863  0.00  0.00    +0.043 A 
ATOM     36  N   UNL     1       9.479   5.475  -7.343  0.00  0.00    -0.380 N 
ATOM     37  C   UNL     1       8.096   5.049  -7.105  0.00  0.00    +0.144 C 
ATOM     38  H   UNL     1       9.751   6.294  -7.786  0.00  0.00    +0.160 HD
ENDBRANCH  28  29
ENDBRANCH  27  28
ENDBRANCH  25  27
ENDBRANCH   4  23
TORSDOF 5
