REMARK  Name = ZINC67020582
REMARK  7 active torsions:
REMARK  status: ('A' for Active; 'I' for Inactive)
REMARK    1  A    between atoms: C_1  and  C_2
REMARK    2  A    between atoms: C_6  and  C_22
REMARK    3  A    between atoms: C_7  and  N_8
REMARK    4  A    between atoms: C_9  and  C_11
REMARK    5  A    between atoms: C_24  and  C_27
REMARK    6  A    between atoms: C_27  and  C_28
REMARK    7  A    between atoms: C_27  and  C_29
REMARK                            x       y       z     vdW  Elec       q    Type
REMARK                         _______ _______ _______ _____ _____    ______ ____
ROOT
ATOM      1  N   UNL     1       0.235  -0.013   2.401  0.00  0.00    -0.280 N 
ATOM      2  C   UNL     1       0.420   1.322   2.401  0.00  0.00    +0.252 C 
ATOM      3  O   UNL     1       0.402   1.938   1.353  0.00  0.00    -0.270 OA
ATOM      4  H   UNL     1       0.173  -0.494   3.242  0.00  0.00    +0.155 HD
ENDROOT
BRANCH   2   5
ATOM      5  C   UNL     1       0.643   2.036   3.672  0.00  0.00    +0.080 A 
ATOM      6  C   UNL     1       0.671   1.332   4.880  0.00  0.00    +0.017 A 
ATOM      7  C   UNL     1       0.881   2.002   6.066  0.00  0.00    +0.003 A 
ATOM      8  C   UNL     1       1.066   3.375   6.072  0.00  0.00    +0.027 A 
ATOM      9  C   UNL     1       1.041   4.086   4.885  0.00  0.00    +0.076 A 
ATOM     10  C   UNL     1       0.836   3.421   3.677  0.00  0.00    +0.154 A 
ATOM     11  O   UNL     1       0.817   4.127   2.519  0.00  0.00    -0.480 OA
ATOM     12  C   UNL     1       0.305   5.461   2.587  0.00  0.00    +0.325 C 
ATOM     13  C   UNL     1       0.908   6.175   3.771  0.00  0.00    +0.255 C 
ATOM     14  O   UNL     1       1.094   7.372   3.730  0.00  0.00    -0.272 OA
ATOM     15  N   UNL     1       1.228   5.476   4.878  0.00  0.00    -0.280 N 
ATOM     16  H   UNL     1       1.593   5.928   5.655  0.00  0.00    +0.155 HD
ENDBRANCH   2   5
BRANCH   1  23
ATOM     17  C   UNL     1      -2.041   0.470   0.769  0.00  0.00    +0.045 C 
ATOM     18  C   UNL     1      -0.961  -0.499   0.365  0.00  0.00    -0.028 A 
ATOM     19  C   UNL     1      -1.057  -1.179  -0.833  0.00  0.00    +0.005 A 
ATOM     20  C   UNL     1      -0.069  -2.072  -1.213  0.00  0.00    +0.001 A 
ATOM     21  C   UNL     1       1.022  -2.291  -0.399  0.00  0.00    +0.015 A 
ATOM     22  C   UNL     1       1.133  -1.611   0.815  0.00  0.00    +0.061 A 
ATOM     23  C   UNL     1       0.133  -0.703   1.195  0.00  0.00    +0.049 A 
BRANCH  22  24
ATOM     24  C   UNL     1       2.298  -1.841   1.691  0.00  0.00    +0.260 A 
ATOM     25  N   UNL     1       3.302  -2.654   1.445  0.00  0.00    -0.192 NA
ATOM     26  C   UNL     1       4.179  -2.613   2.451  0.00  0.00    +0.175 A 
ATOM     27  N   UNL     1       3.753  -1.776   3.355  0.00  0.00    -0.061 NA
ATOM     28  O   UNL     1       2.523  -1.251   2.879  0.00  0.00    -0.333 OA
BRANCH  26  29
ATOM     29  C   UNL     1       5.457  -3.408   2.529  0.00  0.00    +0.054 C 
ATOM     30  C   UNL     1       6.647  -2.451   2.625  0.00  0.00    +0.015 C 
ATOM     31  C   UNL     1       5.424  -4.307   3.766  0.00  0.00    +0.015 C 
ENDBRANCH  26  29
ENDBRANCH  22  24
ENDBRANCH   1  23
TORSDOF 4
