REMARK  Name = ZINC35346914
REMARK  5 active torsions:
REMARK  status: ('A' for Active; 'I' for Inactive)
REMARK    1  A    between atoms: C_1  and  C_2
REMARK    2  A    between atoms: C_6  and  N_22
REMARK    3  A    between atoms: C_7  and  S_8
REMARK    4  A    between atoms: S_8  and  N_11
REMARK    5  A    between atoms: C_19  and  C_21
REMARK                            x       y       z     vdW  Elec       q    Type
REMARK                         _______ _______ _______ _____ _____    ______ ____
ROOT
ATOM      1  S   UNL     1       1.802   0.407   2.036  0.00  0.00    +0.077 S 
ATOM      2  O   UNL     1       3.051  -0.246   2.216  0.00  0.00    -0.150 OA
ATOM      3  O   UNL     1       1.702   1.733   1.535  0.00  0.00    -0.150 OA
ENDROOT
BRANCH   1   4
ATOM      4  N   UNL     1       1.047   0.400   3.510  0.00  0.00    -0.200 N 
ATOM      5  C   UNL     1       0.166   1.384   3.962  0.00  0.00    +0.055 A 
ATOM      6  C   UNL     1      -0.268   2.546   3.320  0.00  0.00    +0.025 A 
ATOM      7  C   UNL     1      -1.152   3.397   3.947  0.00  0.00    +0.002 A 
ATOM      8  C   UNL     1      -1.616   3.108   5.217  0.00  0.00    +0.000 A 
ATOM      9  C   UNL     1      -1.191   1.959   5.859  0.00  0.00    +0.005 A 
ATOM     10  C   UNL     1      -0.305   1.102   5.234  0.00  0.00    -0.023 A 
ATOM     11  C   UNL     1       0.311  -0.198   5.699  0.00  0.00    +0.061 C 
ATOM     12  C   UNL     1       1.201  -0.643   4.527  0.00  0.00    +0.099 C 
ATOM     13  C   UNL     1       2.660  -0.735   4.977  0.00  0.00    +0.030 C 
ENDBRANCH   1   4
BRANCH   1  20
ATOM     14  C   UNL     1       2.063  -2.600   1.872  0.00  0.00    +0.046 C 
ATOM     15  C   UNL     1       1.041  -1.979   0.954  0.00  0.00    -0.022 A 
ATOM     16  C   UNL     1       0.291  -2.781   0.112  0.00  0.00    +0.005 A 
ATOM     17  C   UNL     1      -0.646  -2.215  -0.732  0.00  0.00    +0.002 A 
ATOM     18  C   UNL     1      -0.837  -0.847  -0.737  0.00  0.00    +0.025 A 
ATOM     19  C   UNL     1      -0.086  -0.040   0.107  0.00  0.00    +0.052 A 
ATOM     20  C   UNL     1       0.851  -0.612   0.958  0.00  0.00    +0.132 A 
BRANCH  19  21
ATOM     21  N   UNL     1      -0.277   1.344   0.105  0.00  0.00    -0.356 N 
ATOM     22  H   UNL     1      -0.420   1.812  -0.732  0.00  0.00    +0.142 HD
ATOM     23  H   UNL     1      -0.267   1.837   0.941  0.00  0.00    +0.142 HD
ENDBRANCH  19  21
ENDBRANCH   1  20
TORSDOF 3
