REMARK  Name = ZINC65010445
REMARK  7 active torsions:
REMARK  status: ('A' for Active; 'I' for Inactive)
REMARK    1  A    between atoms: C_1  and  C_2
REMARK    2  A    between atoms: C_5  and  C_29
REMARK    3  A    between atoms: C_6  and  C_22
REMARK    4  A    between atoms: C_9  and  S_12
REMARK    5  A    between atoms: C_10  and  C_11
REMARK    6  A    between atoms: S_12  and  N_15
REMARK    7  A    between atoms: N_15  and  C_16
REMARK                            x       y       z     vdW  Elec       q    Type
REMARK                         _______ _______ _______ _____ _____    ______ ____
ROOT
ATOM      1  C   UNL     1       0.369   1.373  -0.185  0.00  0.00    +0.044 C 
ATOM      2  C   UNL     1       0.317  -0.129  -0.069  0.00  0.00    -0.045 A 
ATOM      3  C   UNL     1       0.359  -0.899  -1.197  0.00  0.00    +0.015 A 
ATOM      4  C   UNL     1       0.311  -2.291  -1.087  0.00  0.00    +0.026 A 
ATOM      5  C   UNL     1       0.335  -3.390  -2.051  0.00  0.00    +0.008 A 
ATOM      6  C   UNL     1       0.259  -4.532  -1.320  0.00  0.00    +0.194 A 
ATOM      7  O   UNL     1       0.192  -4.230  -0.007  0.00  0.00    -0.448 OA
ATOM      8  C   UNL     1       0.220  -2.896   0.180  0.00  0.00    +0.163 A 
ATOM      9  C   UNL     1       0.179  -2.092   1.313  0.00  0.00    +0.151 A 
ATOM     10  C   UNL     1       0.232  -0.721   1.184  0.00  0.00    -0.018 A 
ATOM     11  C   UNL     1       0.193   0.146   2.416  0.00  0.00    +0.046 C 
ATOM     12  C   UNL     1       0.424  -3.279  -3.551  0.00  0.00    +0.048 C 
ENDROOT
BRANCH   6  13
ATOM     13  C   UNL     1       0.251  -5.893  -1.876  0.00  0.00    +0.282 C 
ATOM     14  O   UNL     1       0.316  -6.059  -3.079  0.00  0.00    -0.267 OA
ATOM     15  N   UNL     1       0.172  -6.957  -1.052  0.00  0.00    -0.295 N 
ATOM     16  C   UNL     1       0.083  -6.901   0.414  0.00  0.00    +0.108 C 
ATOM     17  C   UNL     1       0.039  -8.355   0.927  0.00  0.00    +0.020 C 
ATOM     18  C   UNL     1       0.677  -9.155  -0.240  0.00  0.00    +0.020 C 
ATOM     19  C   UNL     1       0.155  -8.370  -1.473  0.00  0.00    +0.108 C 
ENDBRANCH   6  13
BRANCH   9  20
ATOM     20  S   UNL     1       0.065  -2.824   2.912  0.00  0.00    +0.062 S 
ATOM     21  O   UNL     1      -0.403  -1.810   3.791  0.00  0.00    -0.153 OA
ATOM     22  O   UNL     1      -0.616  -4.061   2.745  0.00  0.00    -0.153 OA
BRANCH  20  23
ATOM     23  N   UNL     1       1.606  -3.193   3.393  0.00  0.00    -0.187 NA
ATOM     24  H   UNL     1       1.869  -4.120   3.508  0.00  0.00    +0.148 HD
BRANCH  23  25
ATOM     25  C   UNL     1       2.572  -2.121   3.643  0.00  0.00    +0.077 C 
ATOM     26  C   UNL     1       3.418  -1.893   2.388  0.00  0.00    +0.020 C 
ATOM     27  C   UNL     1       4.426  -0.773   2.649  0.00  0.00    +0.002 C 
ATOM     28  C   UNL     1       5.337  -1.168   3.813  0.00  0.00    +0.000 C 
ATOM     29  C   UNL     1       4.492  -1.396   5.068  0.00  0.00    +0.002 C 
ATOM     30  C   UNL     1       3.483  -2.516   4.807  0.00  0.00    +0.020 C 
ENDBRANCH  23  25
ENDBRANCH  20  23
ENDBRANCH   9  20
TORSDOF 4
