REMARK  Name = ZINC06445146
REMARK  10 active torsions:
REMARK  status: ('A' for Active; 'I' for Inactive)
REMARK    1  A    between atoms: C_12  and  C_13
REMARK    2  A    between atoms: C_13  and  N_14
REMARK    3  A    between atoms: N_14  and  C_15
REMARK    4  A    between atoms: N_14  and  C_22
REMARK    5  A    between atoms: C_15  and  C_16
REMARK    6  A    between atoms: C_22  and  N_24
REMARK    7  A    between atoms: N_24  and  C_25
REMARK    8  A    between atoms: C_25  and  C_26
REMARK    9  A    between atoms: C_26  and  C_27
REMARK   10  A    between atoms: C_27  and  N_66
REMARK                            x       y       z     vdW  Elec       q    Type
REMARK                         _______ _______ _______ _____ _____    ______ ____
ROOT
ATOM      1  N   UNL     1      -3.396   4.391  -0.757  0.00  0.00    -0.306 N 
ENDROOT
BRANCH   1   2
ATOM      2  C   UNL     1      -4.667   4.118  -1.112  0.00  0.00    +0.133 C 
ATOM      3  S   UNL     1      -5.962   4.969  -0.383  0.00  0.00    -0.019 S 
BRANCH   2   4
ATOM      4  N   UNL     1      -4.920   3.174  -2.041  0.00  0.00    -0.326 N 
ATOM      5  H   UNL     1      -4.186   2.692  -2.454  0.00  0.00    +0.148 HD
BRANCH   4   6
ATOM      6  C   UNL     1      -6.301   2.877  -2.427  0.00  0.00    +0.101 C 
BRANCH   6   7
ATOM      7  C   UNL     1      -6.308   1.777  -3.490  0.00  0.00    +0.000 C 
BRANCH   7   8
ATOM      8  C   UNL     1      -7.751   1.467  -3.893  0.00  0.00    -0.077 C 
BRANCH   8  14
ATOM      9  C   UNL     1      -7.146   0.881  -6.164  0.00  0.00    -0.050 C 
ATOM     10  C   UNL     1      -7.120  -0.266  -7.177  0.00  0.00    +0.141 C 
ATOM     11  O   UNL     1      -8.451  -0.751  -7.375  0.00  0.00    -0.383 OA
ATOM     12  C   UNL     1      -9.077  -1.219  -6.177  0.00  0.00    +0.141 C 
ATOM     13  C   UNL     1      -9.123  -0.081  -5.154  0.00  0.00    -0.050 C 
ATOM     14  N   UNL     1      -7.743   0.389  -4.905  0.00  0.00    +0.383 N 
ATOM     15  H   UNL     1      -7.182  -0.396  -4.554  0.00  0.00    -0.082 HD
ENDBRANCH   8  14
ENDBRANCH   7   8
ENDBRANCH   6   7
ENDBRANCH   4   6
ENDBRANCH   2   4
ENDBRANCH   1   2
BRANCH   1  16
ATOM     16  C   UNL     1      -3.122   5.416   0.253  0.00  0.00    +0.147 C 
BRANCH  16  28
ATOM     17  C   UNL     1      -4.015   7.595  -0.529  0.00  0.00    +0.020 A 
ATOM     18  C   UNL     1      -3.819   8.887  -1.184  0.00  0.00    +0.003 A 
ATOM     19  C   UNL     1      -4.875   9.797  -1.317  0.00  0.00    +0.059 A 
ATOM     20  C   UNL     1      -4.662  11.004  -1.944  0.00  0.00    +0.167 A 
ATOM     21  C   UNL     1      -3.394  11.323  -2.449  0.00  0.00    +0.168 A 
ATOM     22  C   UNL     1      -2.346  10.431  -2.321  0.00  0.00    +0.075 A 
ATOM     23  C   UNL     1      -2.545   9.209  -1.691  0.00  0.00    +0.053 A 
ATOM     24  N   UNL     1      -1.509   8.307  -1.554  0.00  0.00    -0.322 N 
ATOM     25  H   UNL     1      -0.632   8.530  -1.902  0.00  0.00    +0.169 HD
ATOM     26  C   UNL     1      -1.699   7.123  -0.945  0.00  0.00    +0.254 A 
ATOM     27  O   UNL     1      -0.761   6.351  -0.842  0.00  0.00    -0.268 OA
ATOM     28  C   UNL     1      -2.954   6.753  -0.422  0.00  0.00    +0.035 A 
ATOM     29  O   UNL     1      -3.454  12.563  -3.016  0.00  0.00    -0.453 OA
ATOM     30  C   UNL     1      -4.854  12.826  -3.221  0.00  0.00    +0.466 C 
ATOM     31  O   UNL     1      -5.505  12.048  -2.200  0.00  0.00    -0.453 OA
ENDBRANCH  16  28
ENDBRANCH   1  16
BRANCH   1  32
ATOM     32  C   UNL     1      -2.289   3.662  -1.380  0.00  0.00    +0.138 C 
BRANCH  32  33
ATOM     33  C   UNL     1      -1.978   2.408  -0.561  0.00  0.00    +0.136 C 
ATOM     34  C   UNL     1      -0.811   1.623  -1.201  0.00  0.00    +0.035 C 
ATOM     35  C   UNL     1      -0.013   1.086   0.008  0.00  0.00    +0.031 C 
ATOM     36  C   UNL     1      -0.788   1.610   1.237  0.00  0.00    +0.160 C 
ATOM     37  O   UNL     1      -1.501   2.772   0.753  0.00  0.00    -0.375 OA
ENDBRANCH  32  33
ENDBRANCH   1  32
TORSDOF 10
