REMARK  Name = ZINC46269321
REMARK  7 active torsions:
REMARK  status: ('A' for Active; 'I' for Inactive)
REMARK    1  A    between atoms: C_1  and  C_2
REMARK    2  A    between atoms: C_5  and  O_21
REMARK    3  A    between atoms: C_6  and  C_8
REMARK    4  A    between atoms: N_10  and  C_11
REMARK    5  A    between atoms: C_11  and  C_12
REMARK    6  A    between atoms: C_12  and  C_14
REMARK    7  A    between atoms: C_12  and  N_15
REMARK                            x       y       z     vdW  Elec       q    Type
REMARK                         _______ _______ _______ _____ _____    ______ ____
ROOT
ATOM      1  C   UNL     1      -0.357  -3.178   2.600  0.00  0.00    +0.248 C 
ATOM      2  O   UNL     1      -0.271  -4.387   2.694  0.00  0.00    -0.270 OA
ATOM      3  N   UNL     1      -0.246  -2.408   3.701  0.00  0.00    -0.310 N 
ATOM      4  H   UNL     1      -0.315  -1.443   3.626  0.00  0.00    +0.149 HD
ENDROOT
BRANCH   1  10
ATOM      5  C   UNL     1      -1.001   0.910  -0.181  0.00  0.00    +0.044 C 
ATOM      6  C   UNL     1      -0.894  -0.588  -0.062  0.00  0.00    -0.050 A 
ATOM      7  C   UNL     1      -1.008  -1.380  -1.194  0.00  0.00    +0.007 A 
ATOM      8  C   UNL     1      -0.912  -2.753  -1.098  0.00  0.00    +0.046 A 
ATOM      9  C   UNL     1      -0.700  -3.351   0.136  0.00  0.00    +0.129 A 
ATOM     10  C   UNL     1      -0.583  -2.554   1.283  0.00  0.00    +0.078 A 
ATOM     11  C   UNL     1      -0.678  -1.165   1.170  0.00  0.00    +0.020 A 
BRANCH   9  12
ATOM     12  O   UNL     1      -0.605  -4.701   0.232  0.00  0.00    -0.506 OA
ATOM     13  H   UNL     1       0.295  -5.040   0.135  0.00  0.00    +0.292 HD
ENDBRANCH   9  12
ENDBRANCH   1  10
BRANCH   3  14
ATOM     14  C   UNL     1      -0.022  -3.027   5.009  0.00  0.00    +0.123 C 
BRANCH  14  15
ATOM     15  C   UNL     1       0.185  -1.936   6.061  0.00  0.00    +0.071 C 
ATOM     16  C   UNL     1       0.308  -2.578   7.445  0.00  0.00    +0.026 C 
BRANCH  15  17
ATOM     17  N   UNL     1      -0.962  -1.019   6.048  0.00  0.00    -0.294 NA
ATOM     18  C   UNL     1      -0.683   0.185   6.844  0.00  0.00    +0.113 C 
ATOM     19  C   UNL     1      -1.878   1.138   6.753  0.00  0.00    +0.175 C 
ATOM     20  O   UNL     1      -3.057   0.459   7.194  0.00  0.00    -0.377 OA
ATOM     21  C   UNL     1      -3.359  -0.718   6.440  0.00  0.00    +0.175 C 
ATOM     22  C   UNL     1      -2.179  -1.690   6.527  0.00  0.00    +0.113 C 
ENDBRANCH  15  17
ENDBRANCH  14  15
ENDBRANCH   3  14
TORSDOF 5
