REMARK  Name = ZINC56905051
REMARK  6 active torsions:
REMARK  status: ('A' for Active; 'I' for Inactive)
REMARK    1  A    between atoms: C_1  and  C_2
REMARK    2  A    between atoms: C_10  and  C_11
REMARK    3  A    between atoms: C_11  and  C_13
REMARK    4  A    between atoms: C_11  and  N_14
REMARK    5  A    between atoms: C_20  and  C_23
REMARK    6  A    between atoms: C_23  and  O_24
REMARK                            x       y       z     vdW  Elec       q    Type
REMARK                         _______ _______ _______ _____ _____    ______ ____
ROOT
ATOM      1  N   UNL     1      -0.929  -1.145   3.276  0.00  0.00    -0.290 N 
ATOM      2  C   UNL     1      -1.473  -0.636   4.399  0.00  0.00    +0.303 C 
ATOM      3  O   UNL     1      -1.102   0.442   4.821  0.00  0.00    -0.253 OA
ATOM      4  N   UNL     1      -2.429  -1.323   5.056  0.00  0.00    -0.286 N 
ATOM      5  C   UNL     1      -2.806  -2.677   4.627  0.00  0.00    +0.109 C 
ATOM      6  C   UNL     1      -4.322  -2.721   4.410  0.00  0.00    +0.025 C 
ATOM      7  C   UNL     1      -5.029  -2.245   5.680  0.00  0.00    +0.017 C 
ATOM      8  C   UNL     1      -4.626  -0.799   5.979  0.00  0.00    +0.025 C 
ATOM      9  C   UNL     1      -3.110  -0.735   6.217  0.00  0.00    +0.109 C 
ATOM     10  H   UNL     1      -1.171  -2.036   2.981  0.00  0.00    +0.151 HD
ENDROOT
BRANCH   1  11
ATOM     11  C   UNL     1       0.029  -0.351   2.502  0.00  0.00    +0.138 C 
ATOM     12  C   UNL     1       1.431  -0.530   3.088  0.00  0.00    +0.036 C 
BRANCH  11  22
ATOM     13  C   UNL     1      -0.023   1.504   0.009  0.00  0.00    +0.048 C 
ATOM     14  C   UNL     1      -0.002  -0.003   0.001  0.00  0.00    +0.000 A 
ATOM     15  C   UNL     1       0.005  -0.877  -1.178  0.00  0.00    +0.023 A 
ATOM     16  C   UNL     1      -0.005  -0.658  -2.554  0.00  0.00    +0.012 A 
ATOM     17  C   UNL     1       0.005  -1.725  -3.410  0.00  0.00    +0.001 A 
ATOM     18  C   UNL     1       0.026  -3.021  -2.917  0.00  0.00    +0.004 A 
ATOM     19  C   UNL     1       0.036  -3.257  -1.559  0.00  0.00    +0.047 A 
ATOM     20  C   UNL     1       0.026  -2.188  -0.672  0.00  0.00    +0.136 A 
ATOM     21  O   UNL     1       0.031  -2.098   0.673  0.00  0.00    -0.458 OA
ATOM     22  C   UNL     1       0.021  -0.813   1.068  0.00  0.00    +0.129 A 
ENDBRANCH  11  22
ENDBRANCH   1  11
BRANCH   7  23
ATOM     23  C   UNL     1      -6.544  -2.320   5.479  0.00  0.00    +0.159 C 
BRANCH  23  24
ATOM     24  O   UNL     1      -7.205  -1.987   6.702  0.00  0.00    -0.395 OA
ATOM     25  H   UNL     1      -8.170  -2.014   6.648  0.00  0.00    +0.209 HD
ENDBRANCH  23  24
ENDBRANCH   7  23
TORSDOF 4
