REMARK  Name = ZINC04085273
REMARK  5 active torsions:
REMARK  status: ('A' for Active; 'I' for Inactive)
REMARK    1  A    between atoms: C_1  and  C_2
REMARK    2  A    between atoms: C_2  and  C_3
REMARK    3  A    between atoms: C_3  and  C_5
REMARK    4  A    between atoms: C_3  and  N_6
REMARK    5  A    between atoms: C_7  and  C_9
REMARK                            x       y       z     vdW  Elec       q    Type
REMARK                         _______ _______ _______ _____ _____    ______ ____
ROOT
ATOM      1  C   UNL     1       4.485   5.158  -0.377  0.00  0.00    +0.167 C 
ATOM      2  C   UNL     1       2.954   5.254  -0.315  0.00  0.00    +0.069 C 
ATOM      3  C   UNL     1       2.345   3.876  -0.305  0.00  0.00    -0.015 A 
ATOM      4  C   UNL     1       0.955   3.527  -0.545  0.00  0.00    +0.003 A 
ATOM      5  C   UNL     1      -0.171   4.298  -0.850  0.00  0.00    +0.010 A 
ATOM      6  C   UNL     1      -1.356   3.624  -1.015  0.00  0.00    +0.001 A 
ATOM      7  C   UNL     1      -1.443   2.247  -0.896  0.00  0.00    +0.002 A 
ATOM      8  C   UNL     1      -0.345   1.462  -0.588  0.00  0.00    +0.026 A 
ATOM      9  C   UNL     1       0.871   2.119  -0.412  0.00  0.00    +0.047 A 
ATOM     10  N   UNL     1       2.122   1.664  -0.109  0.00  0.00    -0.356 N 
ATOM     11  H   UNL     1       2.356   0.735   0.043  0.00  0.00    +0.166 HD
ATOM     12  C   UNL     1       2.995   2.716  -0.053  0.00  0.00    +0.046 A 
ATOM     13  C   UNL     1       4.474   2.651   0.236  0.00  0.00    +0.155 C 
ATOM     14  N   UNL     1       4.899   4.048   0.488  0.00  0.00    -0.273 N 
ATOM     15  C   UNL     1       5.639   4.074   1.604  0.00  0.00    +0.248 C 
ATOM     16  O   UNL     1       6.306   5.018   1.980  0.00  0.00    -0.270 OA
ATOM     17  C   UNL     1       5.522   2.790   2.303  0.00  0.00    +0.042 A 
ATOM     18  C   UNL     1       4.781   1.907   1.491  0.00  0.00    -0.009 A 
ATOM     19  C   UNL     1       4.475   0.631   1.908  0.00  0.00    +0.006 A 
ATOM     20  C   UNL     1       4.940   0.246   3.161  0.00  0.00    +0.000 A 
ATOM     21  C   UNL     1       5.677   1.099   3.958  0.00  0.00    +0.001 A 
ATOM     22  C   UNL     1       5.989   2.389   3.557  0.00  0.00    +0.013 A 
ENDROOT
BRANCH   1  24
ATOM     23  N   UNL     1       5.735   7.260  -0.749  0.00  0.00    -0.311 N 
ATOM     24  C   UNL     1       5.097   6.445   0.115  0.00  0.00    +0.234 C 
ATOM     25  O   UNL     1       5.016   6.746   1.286  0.00  0.00    -0.274 OA
ATOM     26  H   UNL     1       5.799   7.019  -1.686  0.00  0.00    +0.149 HD
BRANCH  23  27
ATOM     27  C   UNL     1       6.330   8.511  -0.271  0.00  0.00    +0.070 C 
ATOM     28  C   UNL     1       5.263   9.608  -0.250  0.00  0.00    +0.028 C 
BRANCH  27  30
ATOM     29  C   UNL     1       8.591   7.887  -1.133  0.00  0.00    +0.005 C 
ATOM     30  C   UNL     1       7.468   8.924  -1.207  0.00  0.00    +0.018 C 
ENDBRANCH  27  30
ENDBRANCH  23  27
ENDBRANCH   1  24
TORSDOF 3
