REMARK  Name = ZINC09539877
REMARK  8 active torsions:
REMARK  status: ('A' for Active; 'I' for Inactive)
REMARK    1  A    between atoms: C_6  and  S_7
REMARK    2  A    between atoms: S_7  and  N_10
REMARK    3  A    between atoms: C_12  and  O_34
REMARK    4  A    between atoms: C_15  and  C_17
REMARK    5  A    between atoms: C_17  and  O_19
REMARK    6  A    between atoms: O_19  and  C_20
REMARK    7  A    between atoms: C_20  and  C_21
REMARK    8  A    between atoms: C_21  and  C_23
REMARK                            x       y       z     vdW  Elec       q    Type
REMARK                         _______ _______ _______ _____ _____    ______ ____
ROOT
ATOM      1  C   UNL     1      -2.105  -3.569  -1.792  0.00  0.00    +0.327 C 
ATOM      2  O   UNL     1      -2.749  -3.525  -0.771  0.00  0.00    -0.249 OA
ENDROOT
BRANCH   1   7
ATOM      3  N   UNL     1      -1.948  -1.147  -1.567  0.00  0.00    -0.160 NA
ATOM      4  C   UNL     1      -2.782  -0.240  -2.377  0.00  0.00    +0.141 C 
ATOM      5  C   UNL     1      -2.392  -0.547  -3.844  0.00  0.00    +0.132 C 
ATOM      6  C   UNL     1      -2.177  -2.083  -3.795  0.00  0.00    +0.064 C 
ATOM      7  C   UNL     1      -1.563  -2.299  -2.396  0.00  0.00    +0.191 C 
BRANCH   3   8
ATOM      8  S   UNL     1      -1.512  -0.905   0.012  0.00  0.00    +0.062 S 
ATOM      9  O   UNL     1      -1.218  -2.186   0.553  0.00  0.00    -0.153 OA
ATOM     10  O   UNL     1      -2.492  -0.046   0.577  0.00  0.00    -0.153 OA
BRANCH   8  16
ATOM     11  C   UNL     1      -0.017   1.378   0.010  0.00  0.00    +0.030 A 
ATOM     12  C   UNL     1       1.171   2.086   0.002  0.00  0.00    +0.022 A 
ATOM     13  C   UNL     1       2.378   1.410  -0.013  0.00  0.00    +0.041 A 
ATOM     14  C   UNL     1       2.396   0.027  -0.021  0.00  0.00    +0.022 A 
ATOM     15  C   UNL     1       1.208  -0.679  -0.013  0.00  0.00    +0.030 A 
ATOM     16  C   UNL     1       0.002  -0.004   0.002  0.00  0.00    +0.106 A 
ATOM     17 CL   UNL     1       3.870   2.298  -0.023  0.00  0.00    -0.084 Cl
ENDBRANCH   8  16
ENDBRANCH   3   8
BRANCH   5  18
ATOM     18  O   UNL     1      -1.186   0.128  -4.205  0.00  0.00    -0.390 OA
ATOM     19  H   UNL     1      -1.245   1.092  -4.155  0.00  0.00    +0.210 HD
ENDBRANCH   5  18
ENDBRANCH   1   7
BRANCH   1  20
ATOM     20  O   UNL     1      -1.871  -4.749  -2.388  0.00  0.00    -0.455 OA
BRANCH  20  21
ATOM     21  C   UNL     1      -2.414  -5.912  -1.760  0.00  0.00    +0.311 C 
BRANCH  21  22
ATOM     22  C   UNL     1      -2.052  -7.133  -2.566  0.00  0.00    +0.200 C 
ATOM     23  O   UNL     1      -1.394  -7.018  -3.578  0.00  0.00    -0.288 OA
BRANCH  22  24
ATOM     24  C   UNL     1      -2.497  -8.462  -2.125  0.00  0.00    +0.023 A 
ATOM     25  C   UNL     1      -3.262  -8.595  -0.960  0.00  0.00    +0.015 A 
ATOM     26  C   UNL     1      -3.679  -9.841  -0.547  0.00  0.00    +0.048 A 
ATOM     27  C   UNL     1      -3.343 -10.968  -1.285  0.00  0.00    +0.142 A 
ATOM     28  C   UNL     1      -2.579 -10.842  -2.449  0.00  0.00    +0.076 A 
ATOM     29  C   UNL     1      -2.161  -9.598  -2.873  0.00  0.00    +0.038 A 
ATOM     30  N   UNL     1      -2.250 -11.994  -3.179  0.00  0.00    -0.280 N 
ATOM     31  C   UNL     1      -2.925 -13.139  -2.935  0.00  0.00    +0.255 C 
ATOM     32  O   UNL     1      -2.637 -14.154  -3.533  0.00  0.00    -0.272 OA
ATOM     33  C   UNL     1      -4.036 -13.149  -1.916  0.00  0.00    +0.325 C 
ATOM     34  O   UNL     1      -3.751 -12.200  -0.885  0.00  0.00    -0.481 OA
ATOM     35  H   UNL     1      -1.549 -11.969  -3.849  0.00  0.00    +0.155 HD
ENDBRANCH  22  24
ENDBRANCH  21  22
ENDBRANCH  20  21
ENDBRANCH   1  20
TORSDOF 8
