REMARK  Name = ZINC59669553
REMARK  3 active torsions:
REMARK  status: ('A' for Active; 'I' for Inactive)
REMARK    1  A    between atoms: C_1  and  C_2
REMARK    2  A    between atoms: C_4  and  C_21
REMARK    3  A    between atoms: C_6  and  C_14
REMARK                            x       y       z     vdW  Elec       q    Type
REMARK                         _______ _______ _______ _____ _____    ______ ____
ROOT
ATOM      1  C   UNL     1       2.068  -0.491  -0.370  0.00  0.00    +0.028 C 
ATOM      2  C   UNL     1       1.942  -1.962  -0.773  0.00  0.00    +0.084 C 
ATOM      3  C   UNL     1       0.691  -2.153  -1.637  0.00  0.00    +0.124 C 
ATOM      4  C   UNL     1       0.766  -1.238  -2.866  0.00  0.00    +0.157 C 
ATOM      5  N   UNL     1       2.075  -1.402  -3.497  0.00  0.00    -0.225 N 
ATOM      6  C   UNL     1       3.160  -1.928  -2.878  0.00  0.00    +0.214 A 
ATOM      7  N   UNL     1       4.151  -1.928  -3.729  0.00  0.00    -0.202 NA
ATOM      8  C   UNL     1       3.740  -1.411  -4.892  0.00  0.00    +0.247 A 
ATOM      9  N   UNL     1       2.478  -1.077  -4.793  0.00  0.00    -0.156 NA
ATOM     10  N   UNL     1       3.126  -2.364  -1.556  0.00  0.00    -0.310 N 
ATOM     11  H   UNL     1       3.836  -2.902  -1.172  0.00  0.00    +0.149 HD
ENDROOT
BRANCH   4  12
ATOM     12  C   UNL     1      -0.318  -1.615  -3.843  0.00  0.00    +0.013 A 
ATOM     13  C   UNL     1      -0.260  -2.825  -4.508  0.00  0.00    +0.008 A 
ATOM     14  C   UNL     1      -1.254  -3.171  -5.404  0.00  0.00    +0.001 A 
ATOM     15  C   UNL     1      -2.308  -2.306  -5.636  0.00  0.00    +0.003 A 
ATOM     16  C   UNL     1      -2.369  -1.096  -4.972  0.00  0.00    +0.039 A 
ATOM     17  C   UNL     1      -1.376  -0.751  -4.070  0.00  0.00    +0.129 A 
ATOM     18  F   UNL     1      -1.437   0.430  -3.417  0.00  0.00    -0.205 F 
ENDBRANCH   4  12
BRANCH   3  19
ATOM     19  C   UNL     1       0.606  -3.589  -2.087  0.00  0.00    +0.218 C 
ATOM     20  O   UNL     1       1.615  -4.188  -2.395  0.00  0.00    -0.276 OA
ATOM     21  N   UNL     1      -0.590  -4.207  -2.146  0.00  0.00    -0.329 N 
ATOM     22  H   UNL     1      -1.396  -3.728  -1.900  0.00  0.00    +0.145 HD
ATOM     23  H   UNL     1      -0.644  -5.131  -2.436  0.00  0.00    +0.145 HD
ENDBRANCH   3  19
TORSDOF 2
