REMARK  Name = ZINC06631764
REMARK  9 active torsions:
REMARK  status: ('A' for Active; 'I' for Inactive)
REMARK    1  A    between atoms: C_1  and  C_2
REMARK    2  A    between atoms: C_2  and  C_3
REMARK    3  A    between atoms: C_3  and  C_5
REMARK    4  A    between atoms: C_3  and  N_13
REMARK    5  A    between atoms: N_7  and  C_8
REMARK    6  A    between atoms: N_13  and  C_14
REMARK    7  A    between atoms: C_21  and  C_23
REMARK    8  A    between atoms: C_24  and  N_31
REMARK    9  A    between atoms: C_25  and  C_28
REMARK                            x       y       z     vdW  Elec       q    Type
REMARK                         _______ _______ _______ _____ _____    ______ ____
ROOT
ATOM      1  N   UNL     1      -2.384   0.963  -0.110  0.00  0.00    -0.255 N 
ATOM      2  C   UNL     1      -3.370   1.012  -1.028  0.00  0.00    +0.261 C 
ATOM      3  O   UNL     1      -3.281   1.770  -1.977  0.00  0.00    -0.269 OA
ENDROOT
BRANCH   1   4
ATOM      4  C   UNL     1      -2.537   0.180   1.039  0.00  0.00    +0.038 A 
ATOM      5  C   UNL     1      -2.897   0.773   2.242  0.00  0.00    +0.025 A 
ATOM      6  C   UNL     1      -3.052  -0.003   3.374  0.00  0.00    +0.022 A 
ATOM      7  C   UNL     1      -2.839  -1.369   3.312  0.00  0.00    +0.041 A 
ATOM      8  C   UNL     1      -2.475  -1.961   2.116  0.00  0.00    +0.022 A 
ATOM      9  C   UNL     1      -2.324  -1.191   0.980  0.00  0.00    +0.025 A 
ATOM     10 CL   UNL     1      -3.028  -2.340   4.739  0.00  0.00    -0.084 Cl
ENDBRANCH   1   4
BRANCH   2  11
ATOM     11  C   UNL     1      -4.547   0.154  -0.884  0.00  0.00    +0.116 A 
ATOM     12  C   UNL     1      -5.620  -0.031  -1.759  0.00  0.00    +0.076 A 
ATOM     13  C   UNL     1      -6.557  -0.941  -1.270  0.00  0.00    +0.155 A 
ATOM     14  N   UNL     1      -6.361  -1.498  -0.096  0.00  0.00    -0.203 NA
ATOM     15  S   UNL     1      -5.000  -0.927   0.456  0.00  0.00    +0.019 S 
BRANCH  13  16
ATOM     16  C   UNL     1      -7.758  -1.269  -2.059  0.00  0.00    +0.262 C 
ATOM     17  O   UNL     1      -7.934  -0.749  -3.145  0.00  0.00    -0.269 OA
ATOM     18  N   UNL     1      -8.662  -2.145  -1.578  0.00  0.00    -0.324 N 
ATOM     19  H   UNL     1      -8.522  -2.560  -0.712  0.00  0.00    +0.145 HD
ATOM     20  H   UNL     1      -9.453  -2.361  -2.097  0.00  0.00    +0.145 HD
ENDBRANCH  13  16
BRANCH  12  21
ATOM     21  N   UNL     1      -5.738   0.617  -2.982  0.00  0.00    -0.355 N 
ATOM     22  H   UNL     1      -5.052   1.239  -3.270  0.00  0.00    +0.142 HD
ATOM     23  H   UNL     1      -6.508   0.448  -3.548  0.00  0.00    +0.142 HD
ENDBRANCH  12  21
ENDBRANCH   2  11
BRANCH   1  24
ATOM     24  C   UNL     1      -1.153   1.730  -0.316  0.00  0.00    +0.167 C 
BRANCH  24  25
ATOM     25  C   UNL     1       0.012   0.783  -0.450  0.00  0.00    +0.234 C 
ATOM     26  O   UNL     1      -0.169  -0.414  -0.381  0.00  0.00    -0.274 OA
ATOM     27  N   UNL     1       1.253   1.267  -0.653  0.00  0.00    -0.311 N 
ATOM     28  H   UNL     1       1.398   2.225  -0.708  0.00  0.00    +0.149 HD
BRANCH  27  29
ATOM     29  C   UNL     1       2.385   0.346  -0.789  0.00  0.00    +0.073 C 
ATOM     30  C   UNL     1       2.973   0.022   0.600  0.00  0.00    +0.022 C 
ATOM     31  C   UNL     1       4.500  -0.062   0.355  0.00  0.00    +0.002 C 
ATOM     32  C   UNL     1       4.745   1.069  -0.674  0.00  0.00    +0.002 C 
ATOM     33  C   UNL     1       3.511   1.012  -1.599  0.00  0.00    +0.022 C 
ENDBRANCH  27  29
ENDBRANCH  24  25
BRANCH  24  35
ATOM     34  C   UNL     1      -2.013   3.728   0.913  0.00  0.00    +0.006 C 
ATOM     35  C   UNL     1      -0.923   2.655   0.881  0.00  0.00    +0.029 C 
ENDBRANCH  24  35
ENDBRANCH   1  24
TORSDOF 8
