REMARK  Name = ZINC65271814
REMARK  7 active torsions:
REMARK  status: ('A' for Active; 'I' for Inactive)
REMARK    1  A    between atoms: C_1  and  C_2
REMARK    2  A    between atoms: C_3  and  C_23
REMARK    3  A    between atoms: C_12  and  N_15
REMARK    4  A    between atoms: N_18  and  C_19
REMARK    5  A    between atoms: C_19  and  C_20
REMARK    6  A    between atoms: C_20  and  O_21
REMARK    7  A    between atoms: O_21  and  C_22
REMARK                            x       y       z     vdW  Elec       q    Type
REMARK                         _______ _______ _______ _____ _____    ______ ____
ROOT
ATOM      1  C   UNL     1      -2.367   0.084   0.337  0.00  0.00    +0.049 C 
ATOM      2  C   UNL     1      -1.075  -0.669   0.155  0.00  0.00    +0.018 C 
ATOM      3  C   UNL     1      -0.705  -1.206  -1.031  0.00  0.00    +0.126 C 
ATOM      4  S   UNL     1       0.865  -1.945  -0.629  0.00  0.00    +0.101 S 
ATOM      5  O   UNL     1       1.874  -1.220  -1.319  0.00  0.00    -0.146 OA
ATOM      6  O   UNL     1       0.716  -3.355  -0.715  0.00  0.00    -0.146 OA
ATOM      7  N   UNL     1       0.964  -1.538   0.992  0.00  0.00    -0.113 NA
ATOM      8  C   UNL     1      -0.129  -0.870   1.234  0.00  0.00    +0.148 C 
ATOM      9  N   UNL     1      -0.382  -0.367   2.495  0.00  0.00    -0.314 N 
ATOM     10  C   UNL     1      -1.097   0.905   2.665  0.00  0.00    +0.108 C 
ATOM     11  C   UNL     1      -0.256   1.830   3.551  0.00  0.00    +0.041 C 
ATOM     12  C   UNL     1       0.070   1.113   4.863  0.00  0.00    +0.077 C 
ATOM     13  C   UNL     1       0.887  -0.148   4.569  0.00  0.00    +0.041 C 
ATOM     14  C   UNL     1       0.054  -1.097   3.694  0.00  0.00    +0.108 C 
ENDROOT
BRANCH   3  15
ATOM     15  C   UNL     1      -1.417  -1.186  -2.320  0.00  0.00    +0.002 A 
ATOM     16  C   UNL     1      -2.230  -0.099  -2.655  0.00  0.00    +0.012 A 
ATOM     17  C   UNL     1      -2.893  -0.085  -3.863  0.00  0.00    +0.039 A 
ATOM     18  C   UNL     1      -2.756  -1.147  -4.745  0.00  0.00    +0.123 A 
ATOM     19  C   UNL     1      -1.951  -2.228  -4.418  0.00  0.00    +0.039 A 
ATOM     20  C   UNL     1      -1.278  -2.250  -3.215  0.00  0.00    +0.012 A 
ATOM     21  F   UNL     1      -3.409  -1.128  -5.928  0.00  0.00    -0.205 F 
ENDBRANCH   3  15
BRANCH  12  22
ATOM     22  N   UNL     1       0.846   2.006   5.727  0.00  0.00    -0.296 N 
ATOM     23  C   UNL     1       0.827   1.835   7.064  0.00  0.00    +0.300 C 
ATOM     24  O   UNL     1       0.165   0.940   7.553  0.00  0.00    -0.253 OA
ATOM     25  N   UNL     1       1.541   2.657   7.859  0.00  0.00    -0.297 N 
ATOM     26  H   UNL     1       1.374   2.720   5.337  0.00  0.00    +0.151 HD
ATOM     27  H   UNL     1       2.068   3.371   7.469  0.00  0.00    +0.150 HD
BRANCH  25  28
ATOM     28  C   UNL     1       1.519   2.471   9.312  0.00  0.00    +0.133 C 
BRANCH  28  29
ATOM     29  C   UNL     1       2.406   3.527   9.974  0.00  0.00    +0.178 C 
BRANCH  29  30
ATOM     30  O   UNL     1       1.850   4.825   9.751  0.00  0.00    -0.381 OA
ATOM     31  C   UNL     1       2.606   5.889  10.331  0.00  0.00    +0.194 C 
ENDBRANCH  29  30
ENDBRANCH  28  29
ENDBRANCH  25  28
ENDBRANCH  12  22
TORSDOF 5
