REMARK  Name = ZINC12702139
REMARK  11 active torsions:
REMARK  status: ('A' for Active; 'I' for Inactive)
REMARK    1  A    between atoms: C_1  and  C_2
REMARK    2  A    between atoms: C_5  and  C_8
REMARK    3  A    between atoms: C_8  and  C_10
REMARK    4  A    between atoms: C_8  and  N_18
REMARK    5  A    between atoms: N_12  and  C_13
REMARK    6  A    between atoms: N_18  and  C_19
REMARK    7  A    between atoms: C_23  and  C_26
REMARK    8  A    between atoms: C_24  and  C_25
REMARK    9  A    between atoms: C_27  and  C_29
REMARK   10  A    between atoms: C_30  and  N_37
REMARK   11  A    between atoms: C_31  and  C_34
REMARK                            x       y       z     vdW  Elec       q    Type
REMARK                         _______ _______ _______ _____ _____    ______ ____
ROOT
ATOM      1  N   UNL     1       1.829   1.195   2.282  0.00  0.00    -0.251 N 
ATOM      2  C   UNL     1       2.175   0.342   3.266  0.00  0.00    +0.262 C 
ATOM      3  O   UNL     1       2.777   0.751   4.242  0.00  0.00    -0.269 OA
ENDROOT
BRANCH   1   4
ATOM      4  C   UNL     1       1.139   0.725   1.160  0.00  0.00    +0.041 A 
ATOM      5  C   UNL     1      -0.249   0.661   1.174  0.00  0.00    +0.024 A 
ATOM      6  C   UNL     1      -0.928   0.197   0.064  0.00  0.00    +0.002 A 
ATOM      7  C   UNL     1      -0.228  -0.204  -1.059  0.00  0.00    +0.004 A 
ATOM      8  C   UNL     1       1.153  -0.137  -1.077  0.00  0.00    -0.046 A 
ATOM      9  C   UNL     1       1.838   0.321   0.031  0.00  0.00    -0.026 A 
ATOM     10  C   UNL     1       3.344   0.389   0.012  0.00  0.00    +0.046 C 
ATOM     11  C   UNL     1       1.911  -0.570  -2.306  0.00  0.00    +0.044 C 
ENDBRANCH   1   4
BRANCH   2  12
ATOM     12  C   UNL     1       1.828  -1.077   3.162  0.00  0.00    +0.116 A 
ATOM     13  C   UNL     1       2.091  -2.120   4.051  0.00  0.00    +0.076 A 
ATOM     14  C   UNL     1       1.596  -3.344   3.601  0.00  0.00    +0.155 A 
ATOM     15  N   UNL     1       0.972  -3.399   2.445  0.00  0.00    -0.203 NA
ATOM     16  S   UNL     1       0.964  -1.934   1.862  0.00  0.00    +0.019 S 
BRANCH  14  17
ATOM     17  C   UNL     1       1.774  -4.563   4.410  0.00  0.00    +0.262 C 
ATOM     18  O   UNL     1       2.352  -4.505   5.478  0.00  0.00    -0.269 OA
ATOM     19  N   UNL     1       1.296  -5.742   3.966  0.00  0.00    -0.324 N 
ATOM     20  H   UNL     1       0.835  -5.789   3.114  0.00  0.00    +0.145 HD
ATOM     21  H   UNL     1       1.414  -6.545   4.498  0.00  0.00    +0.145 HD
ENDBRANCH  14  17
BRANCH  13  22
ATOM     22  N   UNL     1       2.769  -1.957   5.252  0.00  0.00    -0.355 N 
ATOM     23  H   UNL     1       3.088  -1.080   5.514  0.00  0.00    +0.142 HD
ATOM     24  H   UNL     1       2.922  -2.721   5.830  0.00  0.00    +0.142 HD
ENDBRANCH  13  22
ENDBRANCH   2  12
BRANCH   1  25
ATOM     25  C   UNL     1       2.177   2.614   2.386  0.00  0.00    +0.197 C 
BRANCH  25  30
ATOM     26  C   UNL     1       0.773   5.308  -2.530  0.00  0.00    +0.044 C 
ATOM     27  C   UNL     1       1.139   4.605  -1.248  0.00  0.00    -0.050 A 
ATOM     28  C   UNL     1       2.457   4.570  -0.831  0.00  0.00    +0.004 A 
ATOM     29  C   UNL     1       2.793   3.926   0.346  0.00  0.00    +0.006 A 
ATOM     30  C   UNL     1       1.811   3.317   1.104  0.00  0.00    -0.018 A 
ATOM     31  C   UNL     1       0.494   3.347   0.684  0.00  0.00    +0.006 A 
ATOM     32  C   UNL     1       0.158   3.996  -0.489  0.00  0.00    +0.004 A 
ENDBRANCH  25  30
BRANCH  25  33
ATOM     33  C   UNL     1       1.419   3.233   3.533  0.00  0.00    +0.239 C 
ATOM     34  O   UNL     1       0.664   2.556   4.197  0.00  0.00    -0.273 OA
ATOM     35  N   UNL     1       1.582   4.540   3.820  0.00  0.00    -0.311 N 
ATOM     36  H   UNL     1       2.186   5.082   3.289  0.00  0.00    +0.149 HD
BRANCH  35  37
ATOM     37  C   UNL     1       0.846   5.142   4.934  0.00  0.00    +0.073 C 
ATOM     38  C   UNL     1      -0.530   5.643   4.449  0.00  0.00    +0.022 C 
ATOM     39  C   UNL     1      -0.758   6.955   5.240  0.00  0.00    +0.002 C 
ATOM     40  C   UNL     1       0.658   7.582   5.277  0.00  0.00    +0.002 C 
ATOM     41  C   UNL     1       1.601   6.375   5.460  0.00  0.00    +0.022 C 
ENDBRANCH  35  37
ENDBRANCH  25  33
ENDBRANCH   1  25
TORSDOF 8
