REMARK  Name = ZINC40383659
REMARK  5 active torsions:
REMARK  status: ('A' for Active; 'I' for Inactive)
REMARK    1  A    between atoms: C_4  and  C_7
REMARK    2  A    between atoms: C_7  and  N_8
REMARK    3  A    between atoms: C_9  and  C_11
REMARK    4  A    between atoms: C_11  and  C_12
REMARK    5  A    between atoms: C_20  and  C_22
REMARK                            x       y       z     vdW  Elec       q    Type
REMARK                         _______ _______ _______ _____ _____    ______ ____
ROOT
ATOM      1  C   UNL     1       7.099  -2.600   2.966  0.00  0.00    +0.205 C 
ATOM      2  C   UNL     1       6.913  -4.005   2.434  0.00  0.00    +0.245 C 
ATOM      3  O   UNL     1       6.515  -4.322   1.333  0.00  0.00    -0.273 OA
ATOM      4  N   UNL     1       7.280  -4.833   3.431  0.00  0.00    -0.253 N 
ATOM      5  C   UNL     1       7.683  -4.121   4.550  0.00  0.00    +0.221 A 
ATOM      6  N   UNL     1       7.599  -2.790   4.332  0.00  0.00    -0.220 N 
ATOM      7  N   UNL     1       8.023  -2.147   5.500  0.00  0.00    -0.148 NA
ATOM      8  C   UNL     1       8.339  -3.092   6.358  0.00  0.00    +0.183 A 
ATOM      9  N   UNL     1       8.131  -4.291   5.780  0.00  0.00    -0.193 NA
ATOM     10  H   UNL     1       7.264  -5.801   3.374  0.00  0.00    +0.158 HD
ENDROOT
BRANCH   8  11
ATOM     11  C   UNL     1       8.843  -2.874   7.737  0.00  0.00    +0.021 A 
ATOM     12  C   UNL     1       9.009  -1.579   8.223  0.00  0.00    +0.011 A 
ATOM     13  C   UNL     1       9.478  -1.382   9.506  0.00  0.00    +0.001 A 
ATOM     14  C   UNL     1       9.782  -2.467  10.309  0.00  0.00    +0.000 A 
ATOM     15  C   UNL     1       9.618  -3.754   9.831  0.00  0.00    +0.001 A 
ATOM     16  C   UNL     1       9.145  -3.963   8.551  0.00  0.00    +0.011 A 
ENDBRANCH   8  11
BRANCH   1  17
ATOM     17  C   UNL     1       5.764  -1.853   2.984  0.00  0.00    +0.132 C 
BRANCH  17  19
ATOM     18  N   UNL     1       4.152  -0.952   1.338  0.00  0.00    -0.311 N 
ATOM     19  C   UNL     1       5.311  -1.601   1.569  0.00  0.00    +0.216 C 
ATOM     20  O   UNL     1       5.989  -1.981   0.638  0.00  0.00    -0.276 OA
ATOM     21  H   UNL     1       3.610  -0.648   2.082  0.00  0.00    +0.149 HD
BRANCH  18  22
ATOM     22  C   UNL     1       3.711  -0.707  -0.038  0.00  0.00    +0.139 C 
BRANCH  22  26
ATOM     23  C   UNL     1      -0.017   1.378   0.010  0.00  0.00    +0.000 A 
ATOM     24  C   UNL     1       1.171   2.086   0.002  0.00  0.00    +0.000 A 
ATOM     25  C   UNL     1       2.377   1.411  -0.013  0.00  0.00    +0.005 A 
ATOM     26  C   UNL     1       2.396   0.029  -0.020  0.00  0.00    -0.030 A 
ATOM     27  C   UNL     1       1.208  -0.679  -0.012  0.00  0.00    +0.005 A 
ATOM     28  C   UNL     1       0.002  -0.004   0.002  0.00  0.00    +0.000 A 
ENDBRANCH  22  26
ENDBRANCH  18  22
ENDBRANCH  17  19
ENDBRANCH   1  17
TORSDOF 5
