REMARK  Name = ZINC56788048
REMARK  12 active torsions:
REMARK  status: ('A' for Active; 'I' for Inactive)
REMARK    1  A    between atoms: C_1  and  C_2
REMARK    2  A    between atoms: C_4  and  C_28
REMARK    3  A    between atoms: N_5  and  C_7
REMARK    4  A    between atoms: C_7  and  C_8
REMARK    5  A    between atoms: C_8  and  C_10
REMARK    6  A    between atoms: C_8  and  C_11
REMARK    7  A    between atoms: C_11  and  N_12
REMARK    8  A    between atoms: N_15  and  C_16
REMARK    9  A    between atoms: C_16  and  C_18
REMARK   10  A    between atoms: C_16  and  C_19
REMARK   11  A    between atoms: C_19  and  N_20
REMARK   12  A    between atoms: C_24  and  C_27
REMARK                            x       y       z     vdW  Elec       q    Type
REMARK                         _______ _______ _______ _____ _____    ______ ____
ROOT
ATOM      1  N   UNL     1       2.912  -5.145   3.146  0.00  0.00    -0.299 N 
ATOM      2  C   UNL     1       3.178  -6.137   4.019  0.00  0.00    +0.300 C 
ATOM      3  O   UNL     1       2.267  -6.785   4.498  0.00  0.00    -0.253 OA
ATOM      4  N   UNL     1       4.452  -6.411   4.361  0.00  0.00    -0.299 N 
ATOM      5  H   UNL     1       3.639  -4.628   2.764  0.00  0.00    +0.150 HD
ATOM      6  H   UNL     1       5.179  -5.894   3.978  0.00  0.00    +0.150 HD
ENDROOT
BRANCH   4   7
ATOM      7  C   UNL     1       4.741  -7.489   5.310  0.00  0.00    +0.055 C 
ATOM      8  C   UNL     1       4.627  -6.955   6.739  0.00  0.00    +0.026 C 
BRANCH   7   9
ATOM      9  C   UNL     1       6.159  -8.012   5.072  0.00  0.00    -0.057 C 
BRANCH   9  10
ATOM     10  N   UNL     1       6.304  -8.414   3.667  0.00  0.00    +0.381 N 
ATOM     11  C   UNL     1       5.412  -9.547   3.389  0.00  0.00    -0.079 C 
ATOM     12  C   UNL     1       5.499  -9.918   1.907  0.00  0.00    -0.018 C 
ATOM     13  C   UNL     1       6.941 -10.306   1.567  0.00  0.00    -0.001 C 
ATOM     14  C   UNL     1       7.871  -9.145   1.930  0.00  0.00    -0.031 C 
ATOM     15  C   UNL     1       7.696  -8.802   3.411  0.00  0.00    -0.076 C 
ATOM     16  C   UNL     1       9.322  -9.551   1.666  0.00  0.00    +0.005 C 
ATOM     17  H   UNL     1       6.057  -7.640   3.069  0.00  0.00    -0.082 HD
ENDBRANCH   9  10
ENDBRANCH   7   9
ENDBRANCH   4   7
BRANCH   1  18
ATOM     18  C   UNL     1       1.527  -4.848   2.774  0.00  0.00    +0.110 C 
BRANCH  18  19
ATOM     19  C   UNL     1       1.504  -3.688   1.777  0.00  0.00    +0.024 C 
ATOM     20  C   UNL     1       2.188  -4.118   0.478  0.00  0.00    +0.011 C 
BRANCH  19  21
ATOM     21  C   UNL     1       0.055  -3.295   1.485  0.00  0.00    +0.148 C 
BRANCH  21  26
ATOM     22  C   UNL     1      -0.018   1.503   0.010  0.00  0.00    +0.067 C 
ATOM     23  C   UNL     1       0.002  -0.004   0.002  0.00  0.00    +0.060 A 
ATOM     24  C   UNL     1       0.008  -0.818  -1.135  0.00  0.00    +0.047 A 
ATOM     25  C   UNL     1       0.028  -2.107  -0.725  0.00  0.00    +0.036 A 
ATOM     26  N   UNL     1       0.034  -2.109   0.625  0.00  0.00    -0.268 N 
ATOM     27  N   UNL     1       0.023  -0.777   1.058  0.00  0.00    -0.176 NA
ATOM     28  C   UNL     1       0.040  -3.323  -1.615  0.00  0.00    +0.065 C 
ENDBRANCH  21  26
ENDBRANCH  19  21
ENDBRANCH  18  19
ENDBRANCH   1  18
TORSDOF 7
