REMARK  Name = ZINC53350444
REMARK  8 active torsions:
REMARK  status: ('A' for Active; 'I' for Inactive)
REMARK    1  A    between atoms: C_1  and  C_2
REMARK    2  A    between atoms: N_5  and  C_8
REMARK    3  A    between atoms: C_8  and  C_9
REMARK    4  A    between atoms: C_12  and  C_15
REMARK    5  A    between atoms: C_15  and  N_16
REMARK    6  A    between atoms: C_17  and  C_19
REMARK    7  A    between atoms: C_19  and  S_20
REMARK    8  A    between atoms: S_20  and  C_21
REMARK                            x       y       z     vdW  Elec       q    Type
REMARK                         _______ _______ _______ _____ _____    ______ ____
ROOT
ATOM      1  C   UNL     1      -0.143  -4.380   2.730  0.00  0.00    -0.064 A 
ATOM      2  C   UNL     1       1.212  -4.640   2.812  0.00  0.00    +0.002 A 
ATOM      3  C   UNL     1       1.769  -5.033   4.014  0.00  0.00    +0.005 A 
ATOM      4  C   UNL     1       0.971  -5.166   5.135  0.00  0.00    -0.030 A 
ATOM      5  C   UNL     1      -0.384  -4.906   5.053  0.00  0.00    +0.005 A 
ATOM      6  C   UNL     1      -0.940  -4.508   3.852  0.00  0.00    +0.002 A 
ENDROOT
BRANCH   1   7
ATOM      7  C   UNL     1      -0.750  -3.952   1.419  0.00  0.00    -0.043 C 
BRANCH   7  12
ATOM      8  C   UNL     1      -0.019   1.526   0.010  0.00  0.00    +0.007 C 
ATOM      9  C   UNL     1       0.002  -0.004   0.002  0.00  0.00    -0.018 C 
ATOM     10  C   UNL     1      -1.434  -0.536   0.023  0.00  0.00    -0.016 C 
ATOM     11  C   UNL     1      -1.405  -2.064   0.095  0.00  0.00    -0.078 C 
ATOM     12  N   UNL     1      -0.707  -2.487   1.315  0.00  0.00    +0.382 N 
ATOM     13  C   UNL     1       0.691  -2.042   1.269  0.00  0.00    -0.078 C 
ATOM     14  C   UNL     1       0.743  -0.513   1.242  0.00  0.00    -0.016 C 
ATOM     15  H   UNL     1      -1.162  -2.082   2.119  0.00  0.00    -0.081 HD
ENDBRANCH   7  12
ENDBRANCH   1   7
BRANCH   4  16
ATOM     16  C   UNL     1       1.578  -5.596   6.446  0.00  0.00    +0.139 C 
BRANCH  16  17
ATOM     17  N   UNL     1       2.010  -4.413   7.195  0.00  0.00    -0.311 N 
ATOM     18  C   UNL     1       2.585  -4.555   8.405  0.00  0.00    +0.224 C 
ATOM     19  O   UNL     1       2.746  -5.662   8.874  0.00  0.00    -0.275 OA
ATOM     20  H   UNL     1       1.881  -3.528   6.820  0.00  0.00    +0.149 HD
BRANCH  18  21
ATOM     21  C   UNL     1       3.029  -3.338   9.176  0.00  0.00    +0.172 C 
BRANCH  21  22
ATOM     22  S   UNL     1       3.760  -3.855  10.754  0.00  0.00    -0.088 S 
BRANCH  22  23
ATOM     23  C   UNL     1       4.222  -2.341  11.526  0.00  0.00    +0.160 A 
ATOM     24  N   UNL     1       4.080  -1.103  11.091  0.00  0.00    -0.133 NA
ATOM     25  N   UNL     1       4.516  -0.052  11.864  0.00  0.00    -0.125 NA
ATOM     26  C   UNL     1       5.074  -0.286  13.036  0.00  0.00    +0.180 A 
ATOM     27  S   UNL     1       5.002  -2.070  13.110  0.00  0.00    -0.025 S 
ATOM     28  N   UNL     1       5.579   0.614  13.966  0.00  0.00    -0.336 N 
ATOM     29  H   UNL     1       5.545   1.567  13.788  0.00  0.00    +0.144 HD
ATOM     30  H   UNL     1       5.966   0.290  14.795  0.00  0.00    +0.144 HD
ENDBRANCH  22  23
ENDBRANCH  21  22
ENDBRANCH  18  21
ENDBRANCH  16  17
ENDBRANCH   4  16
TORSDOF 7
