REMARK  Name = ZINC14960065
REMARK  14 active torsions:
REMARK  status: ('A' for Active; 'I' for Inactive)
REMARK    1  A    between atoms: C_1  and  C_2
REMARK    2  A    between atoms: C_5  and  S_7
REMARK    3  A    between atoms: S_7  and  C_8
REMARK    4  A    between atoms: C_8  and  C_9
REMARK    5  A    between atoms: C_17  and  C_21
REMARK    6  A    between atoms: C_21  and  C_23
REMARK    7  A    between atoms: C_21  and  N_27
REMARK    8  A    between atoms: C_23  and  C_24
REMARK    9  A    between atoms: C_24  and  C_25
REMARK   10  A    between atoms: C_24  and  C_26
REMARK   11  A    between atoms: C_28  and  C_30
REMARK   12  A    between atoms: C_30  and  C_31
REMARK   13  A    between atoms: C_31  and  O_32
REMARK   14  A    between atoms: O_32  and  C_33
REMARK                            x       y       z     vdW  Elec       q    Type
REMARK                         _______ _______ _______ _____ _____    ______ ____
ROOT
ATOM      1  C   UNL     1      -5.410   3.966   4.363  0.00  0.00    +0.226 C 
ATOM      2  O   UNL     1      -6.292   3.920   3.531  0.00  0.00    -0.275 OA
ATOM      3  N   UNL     1      -5.713   4.224   5.651  0.00  0.00    -0.299 N 
ATOM      4  C   UNL     1      -4.657   4.281   6.664  0.00  0.00    +0.115 C 
ATOM      5  C   UNL     1      -5.235   3.786   7.994  0.00  0.00    +0.095 C 
ATOM      6  C   UNL     1      -5.940   4.924   8.681  0.00  0.00    +0.135 A 
ATOM      7  N   UNL     1      -5.825   5.270   9.933  0.00  0.00    -0.134 NA
ATOM      8  N   UNL     1      -6.607   6.262  10.179  0.00  0.00    -0.132 NA
ATOM      9  C   UNL     1      -7.245   6.599   9.091  0.00  0.00    +0.154 A 
ATOM     10  N   UNL     1      -6.820   5.776   8.104  0.00  0.00    -0.312 N 
ATOM     11  C   UNL     1      -7.218   5.839   6.698  0.00  0.00    +0.143 C 
ATOM     12  C   UNL     1      -7.107   4.458   6.057  0.00  0.00    +0.129 C 
ENDROOT
BRANCH   1  13
ATOM     13  C   UNL     1      -3.978   3.734   3.957  0.00  0.00    +0.172 C 
BRANCH  13  14
ATOM     14  S   UNL     1      -3.899   3.415   2.177  0.00  0.00    -0.089 S 
BRANCH  14  19
ATOM     15  C   UNL     1       0.606   2.472  -0.339  0.00  0.00    +0.066 C 
ATOM     16  C   UNL     1      -0.167   2.777   0.919  0.00  0.00    +0.047 A 
ATOM     17  C   UNL     1       0.469   2.912   2.107  0.00  0.00    +0.070 A 
ATOM     18  S   UNL     1      -0.912   3.255   3.187  0.00  0.00    -0.069 S 
ATOM     19  C   UNL     1      -2.163   3.186   1.984  0.00  0.00    +0.135 A 
ATOM     20  N   UNL     1      -1.478   2.924   0.886  0.00  0.00    -0.238 NA
ENDBRANCH  14  19
ENDBRANCH  13  14
ENDBRANCH   1  13
BRANCH   9  21
ATOM     21  C   UNL     1      -8.266   7.700   8.959  0.00  0.00    +0.141 C 
BRANCH  21  22
ATOM     22  N   UNL     1      -7.723   8.940   9.521  0.00  0.00    -0.305 N 
ATOM     23  C   UNL     1      -8.193  10.132   9.103  0.00  0.00    +0.216 C 
ATOM     24  O   UNL     1      -9.121  10.178   8.324  0.00  0.00    -0.276 OA
ATOM     25  H   UNL     1      -7.025   8.902  10.194  0.00  0.00    +0.149 HD
BRANCH  23  26
ATOM     26  C   UNL     1      -7.565  11.407   9.604  0.00  0.00    +0.124 C 
BRANCH  26  27
ATOM     27  C   UNL     1      -8.281  12.607   8.981  0.00  0.00    +0.168 C 
BRANCH  27  28
ATOM     28  O   UNL     1      -7.686  13.816   9.456  0.00  0.00    -0.382 OA
ATOM     29  C   UNL     1      -8.283  15.003   8.932  0.00  0.00    +0.194 C 
ENDBRANCH  27  28
ENDBRANCH  26  27
ENDBRANCH  23  26
ENDBRANCH  21  22
BRANCH  21  30
ATOM     30  C   UNL     1      -9.537   7.311   9.716  0.00  0.00    +0.033 C 
BRANCH  30  31
ATOM     31  C   UNL     1     -10.179   6.096   9.043  0.00  0.00    -0.015 C 
ATOM     32  C   UNL     1     -11.364   5.615   9.883  0.00  0.00    +0.007 C 
ATOM     33  C   UNL     1     -10.670   6.486   7.647  0.00  0.00    +0.007 C 
ENDBRANCH  30  31
ENDBRANCH  21  30
ENDBRANCH   9  21
TORSDOF 10
