REMARK  Name = ZINC35894302
REMARK  5 active torsions:
REMARK  status: ('A' for Active; 'I' for Inactive)
REMARK    1  A    between atoms: C_1  and  C_2
REMARK    2  A    between atoms: C_2  and  C_3
REMARK    3  A    between atoms: C_2  and  N_4
REMARK    4  A    between atoms: C_5  and  C_7
REMARK    5  A    between atoms: C_12  and  N_22
REMARK                            x       y       z     vdW  Elec       q    Type
REMARK                         _______ _______ _______ _____ _____    ______ ____
ROOT
ATOM      1  C   UNL     1      -3.057  -2.256  -0.474  0.00  0.00    +0.100 C 
ATOM      2  C   UNL     1      -3.565  -2.329   0.966  0.00  0.00    +0.051 C 
ATOM      3  C   UNL     1      -2.885  -3.414   1.755  0.00  0.00    -0.023 A 
ATOM      4  C   UNL     1      -2.916  -3.365   3.139  0.00  0.00    +0.038 A 
ATOM      5  C   UNL     1      -2.308  -4.354   3.886  0.00  0.00    +0.127 A 
ATOM      6  C   UNL     1      -1.662  -5.406   3.262  0.00  0.00    +0.034 A 
ATOM      7  C   UNL     1      -1.621  -5.465   1.882  0.00  0.00    +0.025 A 
ATOM      8  C   UNL     1      -2.227  -4.470   1.133  0.00  0.00    +0.033 A 
ATOM      9  N   UNL     1      -2.180  -4.488  -0.262  0.00  0.00    -0.326 N 
ATOM     10  C   UNL     1      -3.091  -3.659  -1.085  0.00  0.00    +0.086 C 
ATOM     11  C   UNL     1      -2.512  -3.662  -2.510  0.00  0.00    +0.025 C 
ATOM     12  C   UNL     1      -1.826  -5.056  -2.577  0.00  0.00    +0.021 C 
ATOM     13  C   UNL     1      -1.248  -5.198  -1.138  0.00  0.00    +0.105 C 
ENDROOT
BRANCH   1  15
ATOM     14  N   UNL     1      -1.372  -0.511   0.012  0.00  0.00    -0.313 N 
ATOM     15  C   UNL     1      -1.643  -1.734  -0.485  0.00  0.00    +0.218 C 
ATOM     16  O   UNL     1      -0.749  -2.415  -0.941  0.00  0.00    -0.275 OA
ATOM     17  H   UNL     1      -2.087   0.033   0.377  0.00  0.00    +0.149 HD
BRANCH  14  19
ATOM     18  C   UNL     1      -0.019   1.526   0.010  0.00  0.00    +0.027 C 
ATOM     19  C   UNL     1       0.002  -0.004   0.002  0.00  0.00    +0.067 C 
ATOM     20  C   UNL     1       0.742  -0.511   1.242  0.00  0.00    +0.027 C 
ENDBRANCH  14  19
ENDBRANCH   1  15
BRANCH   5  21
ATOM     21  N   UNL     1      -2.348  -4.288   5.364  0.00  0.00    +0.056 N 
ATOM     22  O   UNL     1      -2.911  -3.370   5.914  0.00  0.00    -0.126 OA
ATOM     23  O   UNL     1      -1.817  -5.152   6.022  0.00  0.00    -0.126 OA
ENDBRANCH   5  21
TORSDOF 3
