REMARK  Name = ZINC49932405
REMARK  5 active torsions:
REMARK  status: ('A' for Active; 'I' for Inactive)
REMARK    1  A    between atoms: C_1  and  N_2
REMARK    2  A    between atoms: N_2  and  C_3
REMARK    3  A    between atoms: C_6  and  N_19
REMARK    4  A    between atoms: C_8  and  C_9
REMARK    5  A    between atoms: N_11  and  C_12
REMARK                            x       y       z     vdW  Elec       q    Type
REMARK                         _______ _______ _______ _____ _____    ______ ____
ROOT
ATOM      1  C   UNL     1       0.590  -0.687  -1.058  0.00  0.00    +0.039 A 
ATOM      2  C   UNL     1       1.076   0.011  -2.157  0.00  0.00    +0.026 A 
ATOM      3  C   UNL     1       1.661  -0.670  -3.205  0.00  0.00    +0.034 A 
ATOM      4  C   UNL     1       1.769  -2.051  -3.172  0.00  0.00    +0.127 A 
ATOM      5  C   UNL     1       1.293  -2.761  -2.091  0.00  0.00    +0.047 A 
ATOM      6  C   UNL     1       0.703  -2.086  -1.019  0.00  0.00    +0.060 A 
ENDROOT
BRANCH   6   7
ATOM      7  C   UNL     1       0.198  -2.838   0.143  0.00  0.00    +0.250 C 
ATOM      8  O   UNL     1      -0.399  -2.258   1.031  0.00  0.00    -0.270 OA
ATOM      9  N   UNL     1       0.396  -4.169   0.223  0.00  0.00    -0.280 N 
ATOM     10  H   UNL     1       0.941  -4.619  -0.442  0.00  0.00    +0.155 HD
BRANCH   9  11
ATOM     11  C   UNL     1      -0.183  -4.902   1.265  0.00  0.00    +0.048 A 
ATOM     12  C   UNL     1      -1.327  -4.431   1.895  0.00  0.00    +0.024 A 
ATOM     13  C   UNL     1      -1.896  -5.156   2.923  0.00  0.00    +0.002 A 
ATOM     14  C   UNL     1      -1.328  -6.350   3.326  0.00  0.00    +0.001 A 
ATOM     15  C   UNL     1      -0.188  -6.823   2.702  0.00  0.00    +0.017 A 
ATOM     16  C   UNL     1       0.383  -6.105   1.668  0.00  0.00    +0.039 A 
ATOM     17 BR   UNL     1       1.937  -6.755   0.809  0.00  0.00    -0.048 Br
ENDBRANCH   9  11
ENDBRANCH   6   7
BRANCH   1  19
ATOM     18  C   UNL     1      -0.015   1.460   0.005  0.00  0.00    +0.125 C 
ATOM     19  N   UNL     1       0.001  -0.005  -0.002  0.00  0.00    -0.346 N 
ATOM     20  H   UNL     1      -0.400  -0.498   0.731  0.00  0.00    +0.146 HD
ENDBRANCH   1  19
BRANCH   4  21
ATOM     21  N   UNL     1       2.399  -2.768  -4.303  0.00  0.00    +0.056 N 
ATOM     22  O   UNL     1       2.817  -2.148  -5.253  0.00  0.00    -0.126 OA
ATOM     23  O   UNL     1       2.495  -3.973  -4.277  0.00  0.00    -0.126 OA
ENDBRANCH   4  21
TORSDOF 4
