REMARK  Name = ZINC47240746
REMARK  5 active torsions:
REMARK  status: ('A' for Active; 'I' for Inactive)
REMARK    1  A    between atoms: C_1  and  C_2
REMARK    2  A    between atoms: C_4  and  C_19
REMARK    3  A    between atoms: C_6  and  N_8
REMARK    4  A    between atoms: C_9  and  C_11
REMARK    5  A    between atoms: C_14  and  N_16
REMARK                            x       y       z     vdW  Elec       q    Type
REMARK                         _______ _______ _______ _____ _____    ______ ____
ROOT
ATOM      1  N   UNL     1       0.052  -2.797   2.393  0.00  0.00    -0.285 N 
ATOM      2  C   UNL     1       0.562  -4.044   2.436  0.00  0.00    +0.223 C 
ATOM      3  O   UNL     1       1.090  -4.518   1.452  0.00  0.00    -0.275 OA
ATOM      4  H   UNL     1      -0.301  -2.390   3.199  0.00  0.00    +0.155 HD
ENDROOT
BRANCH   1  10
ATOM      5  C   UNL     1       0.333   1.481  -0.014  0.00  0.00    +0.044 C 
ATOM      6  C   UNL     1       0.165  -0.017  -0.011  0.00  0.00    -0.048 A 
ATOM      7  C   UNL     1      -0.010  -0.695  -1.203  0.00  0.00    +0.006 A 
ATOM      8  C   UNL     1      -0.164  -2.069  -1.205  0.00  0.00    -0.048 A 
ATOM      9  C   UNL     1      -0.143  -2.769  -0.014  0.00  0.00    +0.026 A 
ATOM     10  C   UNL     1       0.032  -2.091   1.185  0.00  0.00    +0.034 A 
ATOM     11  C   UNL     1       0.191  -0.712   1.183  0.00  0.00    +0.026 A 
ATOM     12  C   UNL     1      -0.354  -2.803  -2.507  0.00  0.00    +0.044 C 
ENDBRANCH   1  10
BRANCH   2  13
ATOM     13  C   UNL     1       0.477  -4.849   3.707  0.00  0.00    +0.107 C 
ATOM     14  C   UNL     1       1.782  -5.132   4.453  0.00  0.00    +0.047 C 
ATOM     15  C   UNL     1       1.077  -6.257   3.692  0.00  0.00    +0.182 C 
BRANCH  15  16
ATOM     16  N   UNL     1       0.401  -7.288   4.484  0.00  0.00    +0.026 N 
ATOM     17  O   UNL     1      -0.035  -8.277   3.942  0.00  0.00    -0.131 OA
ATOM     18  O   UNL     1       0.280  -7.150   5.679  0.00  0.00    -0.131 OA
ENDBRANCH  15  16
ENDBRANCH   2  13
TORSDOF 3
