REMARK  Name = ZINC04897871
REMARK  9 active torsions:
REMARK  status: ('A' for Active; 'I' for Inactive)
REMARK    1  A    between atoms: C_1  and  C_2
REMARK    2  A    between atoms: C_2  and  O_3
REMARK    3  A    between atoms: O_3  and  C_4
REMARK    4  A    between atoms: C_7  and  C_10
REMARK    5  A    between atoms: C_17  and  N_31
REMARK    6  A    between atoms: C_18  and  C_29
REMARK    7  A    between atoms: C_19  and  C_21
REMARK    8  A    between atoms: C_21  and  C_28
REMARK    9  A    between atoms: C_22  and  C_23
REMARK                            x       y       z     vdW  Elec       q    Type
REMARK                         _______ _______ _______ _____ _____    ______ ____
ROOT
ATOM      1  C   UNL     1       1.446  -5.502  -1.768  0.00  0.00    +0.100 A 
ATOM      2  C   UNL     1       1.226  -6.362  -2.849  0.00  0.00    +0.054 A 
ATOM      3  C   UNL     1       1.459  -7.639  -2.427  0.00  0.00    +0.223 A 
ATOM      4  N   UNL     1       1.814  -7.583  -1.127  0.00  0.00    -0.246 N 
ATOM      5  H   UNL     1       2.040  -8.341  -0.564  0.00  0.00    +0.192 HD
ATOM      6  N   UNL     1       1.805  -6.236  -0.732  0.00  0.00    -0.171 NA
ATOM      7  O   UNL     1       1.329  -8.714  -3.243  0.00  0.00    -0.423 OA
ATOM      8  C   UNL     1       0.696  -8.533  -4.420  0.00  0.00    +0.200 C 
ATOM      9  C   UNL     1       0.422  -7.319  -4.947  0.00  0.00    +0.098 C 
ATOM     10  C   UNL     1       0.807  -6.033  -4.258  0.00  0.00    +0.097 C 
ENDROOT
BRANCH   1  14
ATOM     11  C   UNL     1       1.046  -1.267  -1.818  0.00  0.00    +0.121 A 
ATOM     12  C   UNL     1       2.120  -1.854  -1.164  0.00  0.00    +0.046 A 
ATOM     13  C   UNL     1       2.253  -3.227  -1.146  0.00  0.00    +0.013 A 
ATOM     14  C   UNL     1       1.306  -4.025  -1.785  0.00  0.00    +0.003 A 
ATOM     15  C   UNL     1       0.228  -3.433  -2.441  0.00  0.00    +0.013 A 
ATOM     16  C   UNL     1       0.099  -2.060  -2.451  0.00  0.00    +0.046 A 
BRANCH  11  17
ATOM     17  O   UNL     1       0.918   0.086  -1.834  0.00  0.00    -0.492 OA
BRANCH  17  19
ATOM     18  C   UNL     1       1.618   2.333  -1.288  0.00  0.00    +0.048 C 
ATOM     19  C   UNL     1       1.929   0.841  -1.163  0.00  0.00    +0.225 C 
ENDBRANCH  17  19
ENDBRANCH  11  17
ENDBRANCH   1  14
BRANCH  10  20
ATOM     20  C   UNL     1       1.955  -5.388  -4.992  0.00  0.00    -0.056 C 
ATOM     21  C   UNL     1       1.847  -4.136  -5.427  0.00  0.00    +0.046 C 
ATOM     22  C   UNL     1       3.225  -6.163  -5.234  0.00  0.00    +0.040 C 
BRANCH  21  23
ATOM     23  C   UNL     1       2.908  -3.553  -6.261  0.00  0.00    +0.128 A 
ATOM     24  C   UNL     1       2.976  -2.258  -6.680  0.00  0.00    +0.049 A 
ATOM     25  C   UNL     1       4.150  -2.142  -7.449  0.00  0.00    +0.042 A 
ATOM     26  C   UNL     1       4.735  -3.356  -7.463  0.00  0.00    +0.195 A 
ATOM     27  O   UNL     1       3.986  -4.205  -6.740  0.00  0.00    -0.464 OA
ENDBRANCH  21  23
ENDBRANCH  10  20
BRANCH   8  28
ATOM     28  N   UNL     1       0.307  -9.646  -5.123  0.00  0.00    -0.328 N 
ATOM     29  H   UNL     1       0.490 -10.531  -4.771  0.00  0.00    +0.145 HD
ATOM     30  H   UNL     1      -0.150  -9.547  -5.973  0.00  0.00    +0.145 HD
ENDBRANCH   8  28
BRANCH   9  31
ATOM     31  C   UNL     1      -0.260  -7.251  -6.204  0.00  0.00    +0.101 C 
ATOM     32  N   UNL     1      -0.800  -7.197  -7.202  0.00  0.00    -0.191 NA
ENDBRANCH   9  31
TORSDOF 7
