REMARK  Name = ZINC02283315
REMARK  3 active torsions:
REMARK  status: ('A' for Active; 'I' for Inactive)
REMARK    1  A    between atoms: C_4  and  C_7
REMARK    2  A    between atoms: C_7  and  N_17
REMARK    3  A    between atoms: N_17  and  C_18
REMARK                            x       y       z     vdW  Elec       q    Type
REMARK                         _______ _______ _______ _____ _____    ______ ____
ROOT
ATOM      1  C   UNL     1      -1.314   6.677   0.130  0.00  0.00    +0.233 C 
ATOM      2  C   UNL     1      -2.056   6.519   1.433  0.00  0.00    +0.033 A 
ATOM      3  C   UNL     1      -2.674   5.453   2.044  0.00  0.00    +0.010 A 
ATOM      4  C   UNL     1      -3.288   5.622   3.274  0.00  0.00    +0.000 A 
ATOM      5  C   UNL     1      -3.284   6.861   3.890  0.00  0.00    +0.001 A 
ATOM      6  C   UNL     1      -2.667   7.937   3.285  0.00  0.00    +0.015 A 
ATOM      7  C   UNL     1      -2.046   7.774   2.046  0.00  0.00    +0.068 A 
ATOM      8  C   UNL     1      -1.320   8.707   1.165  0.00  0.00    +0.342 C 
ATOM      9  O   UNL     1      -1.130   9.883   1.403  0.00  0.00    -0.245 OA
ATOM     10  O   UNL     1      -0.899   8.069   0.060  0.00  0.00    -0.428 OA
ENDROOT
BRANCH   1  14
ATOM     11  C   UNL     1      -3.888   5.747  -3.150  0.00  0.00    +0.000 A 
ATOM     12  C   UNL     1      -3.106   4.758  -2.583  0.00  0.00    +0.000 A 
ATOM     13  C   UNL     1      -2.273   5.059  -1.521  0.00  0.00    +0.009 A 
ATOM     14  C   UNL     1      -2.222   6.349  -1.028  0.00  0.00    +0.019 A 
ATOM     15  C   UNL     1      -3.007   7.337  -1.591  0.00  0.00    +0.009 A 
ATOM     16  C   UNL     1      -3.836   7.037  -2.656  0.00  0.00    +0.000 A 
ENDBRANCH   1  14
BRANCH   1  17
ATOM     17  N   UNL     1      -0.139   5.802   0.111  0.00  0.00    -0.299 N 
ATOM     18  H   UNL     1      -0.043   5.104   0.778  0.00  0.00    +0.150 HD
BRANCH  17  19
ATOM     19  C   UNL     1       0.843   5.972  -0.869  0.00  0.00    +0.030 A 
ATOM     20  C   UNL     1       2.020   5.237  -0.808  0.00  0.00    +0.024 A 
ATOM     21  C   UNL     1       2.989   5.407  -1.777  0.00  0.00    +0.022 A 
ATOM     22  C   UNL     1       2.788   6.308  -2.808  0.00  0.00    +0.041 A 
ATOM     23  C   UNL     1       1.619   7.046  -2.868  0.00  0.00    +0.022 A 
ATOM     24  C   UNL     1       0.644   6.876  -1.904  0.00  0.00    +0.024 A 
ATOM     25 CL   UNL     1       4.008   6.518  -4.025  0.00  0.00    -0.084 Cl
ENDBRANCH  17  19
ENDBRANCH   1  17
TORSDOF 3
