REMARK  Name = ZINC19990043
REMARK  7 active torsions:
REMARK  status: ('A' for Active; 'I' for Inactive)
REMARK    1  A    between atoms: C_1  and  C_2
REMARK    2  A    between atoms: C_2  and  C_3
REMARK    3  A    between atoms: C_3  and  C_5
REMARK    4  A    between atoms: C_3  and  N_6
REMARK    5  A    between atoms: C_7  and  C_9
REMARK    6  A    between atoms: C_9  and  N_10
REMARK    7  A    between atoms: C_18  and  C_22
REMARK                            x       y       z     vdW  Elec       q    Type
REMARK                         _______ _______ _______ _____ _____    ______ ____
ROOT
ATOM      1  N   UNL     1      -0.063   5.245   0.034  0.00  0.00    -0.256 N 
ATOM      2  C   UNL     1      -0.059   3.843   0.024  0.00  0.00    +0.080 A 
ATOM      3  C   UNL     1      -1.248   3.132   0.032  0.00  0.00    +0.047 A 
ATOM      4  C   UNL     1      -1.222   1.749   0.017  0.00  0.00    +0.043 A 
ATOM      5  C   UNL     1      -0.013   1.076   0.008  0.00  0.00    +0.024 A 
ATOM      6  C   UNL     1       1.177   1.781   0.000  0.00  0.00    +0.049 A 
ATOM      7  C   UNL     1       1.159   3.165   0.008  0.00  0.00    +0.143 A 
ATOM      8  O   UNL     1       2.319   3.874  -0.000  0.00  0.00    -0.478 OA
ATOM      9  C   UNL     1       2.301   5.129  -0.685  0.00  0.00    +0.256 C 
ATOM     10  C   UNL     1       1.071   5.905  -0.288  0.00  0.00    +0.261 C 
ATOM     11  O   UNL     1       1.100   7.117  -0.256  0.00  0.00    -0.271 OA
ATOM     12  C   UNL     1       3.551   5.930  -0.315  0.00  0.00    +0.062 C 
ATOM     13 CL   UNL     1      -2.710   0.855   0.018  0.00  0.00    -0.083 Cl
ENDROOT
BRANCH   1  14
ATOM     14  C   UNL     1      -1.278   5.983   0.387  0.00  0.00    +0.209 C 
BRANCH  14  16
ATOM     15  N   UNL     1      -3.253   6.914  -0.774  0.00  0.00    -0.311 N 
ATOM     16  C   UNL     1      -2.087   6.245  -0.857  0.00  0.00    +0.231 C 
ATOM     17  O   UNL     1      -1.687   5.853  -1.934  0.00  0.00    -0.274 OA
ATOM     18  H   UNL     1      -3.616   7.269   0.202  0.00  0.00    +0.149 HD
BRANCH  15  19
ATOM     19  C   UNL     1      -4.040   7.168  -1.984  0.00  0.00    +0.070 C 
ATOM     20  C   UNL     1      -3.529   8.438  -2.667  0.00  0.00    +0.028 C 
BRANCH  19  22
ATOM     21  C   UNL     1      -6.057   6.037  -1.039  0.00  0.00    +0.005 C 
ATOM     22  C   UNL     1      -5.511   7.348  -1.607  0.00  0.00    +0.018 C 
ENDBRANCH  19  22
ENDBRANCH  15  19
ENDBRANCH  14  16
ENDBRANCH   1  14
TORSDOF 4
