REMARK  Name = ZINC66058214
REMARK  6 active torsions:
REMARK  status: ('A' for Active; 'I' for Inactive)
REMARK    1  A    between atoms: C_1  and  C_2
REMARK    2  A    between atoms: C_2  and  C_22
REMARK    3  A    between atoms: N_5  and  C_9
REMARK    4  A    between atoms: C_9  and  C_10
REMARK    5  A    between atoms: N_12  and  C_13
REMARK    6  A    between atoms: C_16  and  C_20
REMARK                            x       y       z     vdW  Elec       q    Type
REMARK                         _______ _______ _______ _____ _____    ______ ____
ROOT
ATOM      1  C   UNL     1       2.874  -1.899  -1.400  0.00  0.00    +0.214 C 
ENDROOT
BRANCH   1   6
ATOM      2  C   UNL     1      -0.028   1.522  -0.006  0.00  0.00    +0.042 C 
ATOM      3  C   UNL     1      -0.002  -0.008  -0.003  0.00  0.00    +0.113 C 
ATOM      4  C   UNL     1       0.812  -0.529  -1.171  0.00  0.00    +0.247 C 
ATOM      5  O   UNL     1       0.591  -0.360  -2.351  0.00  0.00    -0.273 OA
ATOM      6  N   UNL     1       1.833  -1.219  -0.626  0.00  0.00    -0.215 N 
ATOM      7  C   UNL     1       1.778  -1.206   0.711  0.00  0.00    +0.310 C 
ATOM      8  O   UNL     1       2.591  -1.760   1.426  0.00  0.00    -0.252 OA
ATOM      9  N   UNL     1       0.724  -0.512   1.176  0.00  0.00    -0.285 N 
ATOM     10  H   UNL     1       0.487  -0.371   2.106  0.00  0.00    +0.151 HD
BRANCH   3  11
ATOM     11  C   UNL     1      -1.424  -0.570  -0.041  0.00  0.00    +0.021 C 
ATOM     12  C   UNL     1      -2.555   0.393  -0.408  0.00  0.00    +0.006 C 
ATOM     13  C   UNL     1      -2.401  -0.092   1.035  0.00  0.00    +0.006 C 
ENDBRANCH   3  11
ENDBRANCH   1   6
BRANCH   1  14
ATOM     14  C   UNL     1       4.019  -0.950  -1.646  0.00  0.00    +0.235 C 
ATOM     15  O   UNL     1       3.970   0.183  -1.216  0.00  0.00    -0.274 OA
ATOM     16  N   UNL     1       5.097  -1.360  -2.343  0.00  0.00    -0.284 N 
ATOM     17  H   UNL     1       5.166  -2.284  -2.629  0.00  0.00    +0.155 HD
BRANCH  16  18
ATOM     18  C   UNL     1       6.113  -0.455  -2.653  0.00  0.00    +0.035 A 
ATOM     19  C   UNL     1       6.448   0.548  -1.748  0.00  0.00    +0.024 A 
ATOM     20  C   UNL     1       7.450   1.443  -2.050  0.00  0.00    +0.022 A 
ATOM     21  C   UNL     1       8.131   1.344  -3.267  0.00  0.00    +0.070 A 
ATOM     22  C   UNL     1       7.792   0.334  -4.173  0.00  0.00    +0.060 A 
ATOM     23  C   UNL     1       6.791  -0.562  -3.861  0.00  0.00    +0.044 A 
ATOM     24 CL   UNL     1       8.633   0.205  -5.686  0.00  0.00    -0.082 Cl
BRANCH  21  25
ATOM     25  C   UNL     1       9.173   2.273  -3.584  0.00  0.00    +0.101 C 
ATOM     26  N   UNL     1      10.000   3.011  -3.836  0.00  0.00    -0.191 NA
ENDBRANCH  21  25
ENDBRANCH  16  18
ENDBRANCH   1  14
TORSDOF 5
