REMARK  Name = ZINC11287738
REMARK  5 active torsions:
REMARK  status: ('A' for Active; 'I' for Inactive)
REMARK    1  A    between atoms: C_1  and  C_2
REMARK    2  A    between atoms: C_8  and  N_10
REMARK    3  A    between atoms: C_11  and  C_13
REMARK    4  A    between atoms: C_13  and  C_24
REMARK    5  A    between atoms: C_14  and  C_15
REMARK                            x       y       z     vdW  Elec       q    Type
REMARK                         _______ _______ _______ _____ _____    ______ ____
ROOT
ATOM      1  C   UNL     1       1.022  -2.527   3.147  0.00  0.00    +0.117 C 
ATOM      2  C   UNL     1       2.020  -3.208   3.821  0.00  0.00    +0.070 C 
ENDROOT
BRANCH   2   3
ATOM      3  C   UNL     1       2.039  -4.619   3.813  0.00  0.00    +0.131 A 
ATOM      4  C   UNL     1       2.968  -5.400   4.439  0.00  0.00    +0.057 A 
ATOM      5  C   UNL     1       2.616  -6.747   4.178  0.00  0.00    +0.021 A 
ATOM      6  C   UNL     1       3.170  -7.980   4.540  0.00  0.00    +0.011 A 
ATOM      7  C   UNL     1       2.581  -9.138   4.119  0.00  0.00    +0.001 A 
ATOM      8  C   UNL     1       1.437  -9.101   3.334  0.00  0.00    +0.004 A 
ATOM      9  C   UNL     1       0.874  -7.897   2.966  0.00  0.00    +0.047 A 
ATOM     10  C   UNL     1       1.455  -6.706   3.382  0.00  0.00    +0.136 A 
ATOM     11  O   UNL     1       1.137  -5.410   3.190  0.00  0.00    -0.455 OA
ENDBRANCH   2   3
BRANCH   1  13
ATOM     12  N   UNL     1       0.031  -0.392   2.498  0.00  0.00    -0.308 N 
ATOM     13  C   UNL     1       1.002  -1.057   3.155  0.00  0.00    +0.255 C 
ATOM     14  O   UNL     1       1.863  -0.440   3.755  0.00  0.00    -0.269 OA
ATOM     15  H   UNL     1      -0.655  -0.884   2.020  0.00  0.00    +0.149 HD
BRANCH  12  22
ATOM     16  C   UNL     1      -0.013   1.086   0.008  0.00  0.00    +0.009 C 
ATOM     17  C   UNL     1      -0.729   1.579   1.267  0.00  0.00    +0.006 C 
ATOM     18  C   UNL     1      -2.164   1.050   1.278  0.00  0.00    +0.005 C 
ATOM     19  C   UNL     1      -2.880   1.543   2.537  0.00  0.00    +0.000 C 
ATOM     20  C   UNL     1      -2.140   1.036   3.776  0.00  0.00    +0.002 C 
ATOM     21  C   UNL     1      -0.705   1.566   3.765  0.00  0.00    +0.022 C 
ATOM     22  C   UNL     1       0.011   1.072   2.506  0.00  0.00    +0.076 C 
ENDBRANCH  12  22
ENDBRANCH   1  13
BRANCH   1  23
ATOM     23  C   UNL     1       0.010  -3.252   2.441  0.00  0.00    +0.104 C 
ATOM     24  N   UNL     1      -0.794  -3.828   1.881  0.00  0.00    -0.191 NA
ENDBRANCH   1  23
TORSDOF 4
