REMARK  Name = ZINC55332920
REMARK  4 active torsions:
REMARK  status: ('A' for Active; 'I' for Inactive)
REMARK    1  A    between atoms: C_1  and  C_2
REMARK    2  A    between atoms: C_5  and  C_8
REMARK    3  A    between atoms: C_9  and  C_14
REMARK    4  A    between atoms: C_12  and  N_13
REMARK                            x       y       z     vdW  Elec       q    Type
REMARK                         _______ _______ _______ _____ _____    ______ ____
ROOT
ATOM      1  C   UNL     1       0.059  -4.254  -0.021  0.00  0.00    +0.071 A 
ATOM      2  C   UNL     1      -0.995  -5.146   0.471  0.00  0.00    +0.130 A 
ATOM      3  N   UNL     1      -0.580  -6.378   0.277  0.00  0.00    -0.075 NA
ATOM      4  O   UNL     1       0.701  -6.339  -0.320  0.00  0.00    -0.339 OA
ATOM      5  C   UNL     1       1.071  -5.062  -0.499  0.00  0.00    +0.224 A 
ENDROOT
BRANCH   1  10
ATOM      6  C   UNL     1      -0.018   1.503   0.010  0.00  0.00    +0.044 C 
ATOM      7  C   UNL     1       0.002  -0.004   0.002  0.00  0.00    -0.050 A 
ATOM      8  C   UNL     1       0.006  -0.686  -1.202  0.00  0.00    +0.004 A 
ATOM      9  C   UNL     1       0.024  -2.066  -1.216  0.00  0.00    +0.009 A 
ATOM     10  C   UNL     1       0.040  -2.773  -0.013  0.00  0.00    -0.011 A 
ATOM     11  C   UNL     1       0.036  -2.079   1.197  0.00  0.00    +0.009 A 
ATOM     12  C   UNL     1       0.023  -0.699   1.198  0.00  0.00    +0.004 A 
ENDBRANCH   1  10
BRANCH   2  13
ATOM     13  C   UNL     1      -2.281  -4.738   1.071  0.00  0.00    +0.043 A 
ATOM     14  C   UNL     1      -3.508  -5.340   0.976  0.00  0.00    +0.019 A 
ATOM     15  C   UNL     1      -4.577  -4.771   1.630  0.00  0.00    +0.023 A 
ATOM     16  C   UNL     1      -4.384  -3.634   2.349  0.00  0.00    +0.056 A 
ATOM     17  S   UNL     1      -2.639  -3.336   2.117  0.00  0.00    -0.080 S 
ATOM     18 BR   UNL     1      -5.639  -2.629   3.345  0.00  0.00    -0.043 Br
ENDBRANCH   2  13
BRANCH   5  19
ATOM     19  N   UNL     1       2.255  -4.632  -1.060  0.00  0.00    -0.327 N 
ATOM     20  H   UNL     1       2.435  -3.683  -1.145  0.00  0.00    +0.145 HD
ATOM     21  H   UNL     1       2.909  -5.279  -1.368  0.00  0.00    +0.145 HD
ENDBRANCH   5  19
TORSDOF 3
