REMARK  Name = ZINC13284626
REMARK  6 active torsions:
REMARK  status: ('A' for Active; 'I' for Inactive)
REMARK    1  A    between atoms: C_1  and  C_2
REMARK    2  A    between atoms: C_2  and  C_3
REMARK    3  A    between atoms: C_3  and  S_4
REMARK    4  A    between atoms: S_4  and  C_5
REMARK    5  A    between atoms: N_11  and  C_18
REMARK    6  A    between atoms: N_14  and  C_17
REMARK                            x       y       z     vdW  Elec       q    Type
REMARK                         _______ _______ _______ _____ _____    ______ ____
ROOT
ATOM      1  C   UNL     1      -2.916   1.488   5.142  0.00  0.00    +0.169 A 
ATOM      2  N   UNL     1      -2.450   0.497   4.334  0.00  0.00    -0.327 N 
ATOM      3  H   UNL     1      -2.528  -0.487   4.491  0.00  0.00    +0.168 HD
ATOM      4  C   UNL     1      -1.844   1.119   3.250  0.00  0.00    +0.150 A 
ATOM      5  C   UNL     1      -1.976   2.488   3.459  0.00  0.00    +0.169 A 
ATOM      6  N   UNL     1      -2.628   2.659   4.610  0.00  0.00    -0.204 NA
ATOM      7  N   UNL     1      -1.454   3.360   2.517  0.00  0.00    -0.280 N 
ATOM      8  C   UNL     1      -0.827   2.879   1.427  0.00  0.00    +0.333 A 
ATOM      9  O   UNL     1      -0.369   3.659   0.614  0.00  0.00    -0.246 OA
ATOM     10  N   UNL     1      -0.698   1.558   1.213  0.00  0.00    -0.262 N 
ATOM     11  C   UNL     1      -1.187   0.661   2.095  0.00  0.00    +0.282 A 
ATOM     12  O   UNL     1      -1.059  -0.534   1.891  0.00  0.00    -0.265 OA
ATOM     13  C   UNL     1      -0.013   1.086   0.008  0.00  0.00    +0.157 C 
ATOM     14  C   UNL     1      -1.578   4.807   2.711  0.00  0.00    +0.155 C 
ENDROOT
BRANCH   1  15
ATOM     15  S   UNL     1      -3.771   1.243   6.663  0.00  0.00    -0.088 S 
BRANCH  15  16
ATOM     16  C   UNL     1      -4.058   2.964   7.143  0.00  0.00    +0.077 C 
BRANCH  16  18
ATOM     17  C   UNL     1      -5.053   4.460   8.880  0.00  0.00    +0.004 C 
ATOM     18  C   UNL     1      -4.810   3.004   8.475  0.00  0.00    +0.008 C 
ENDBRANCH  16  18
ENDBRANCH  15  16
ENDBRANCH   1  15
TORSDOF 3
