REMARK  Name = ZINC54477007
REMARK  3 active torsions:
REMARK  status: ('A' for Active; 'I' for Inactive)
REMARK    1  A    between atoms: C_5  and  S_8
REMARK    2  A    between atoms: S_8  and  C_9
REMARK    3  A    between atoms: C_9  and  C_10
REMARK                            x       y       z     vdW  Elec       q    Type
REMARK                         _______ _______ _______ _____ _____    ______ ____
ROOT
ATOM      1  C   UNL     1       1.293  -4.393   1.869  0.00  0.00    +0.146 A 
ATOM      2  N   UNL     1       0.159  -5.068   1.933  0.00  0.00    -0.199 NA
ATOM      3  C   UNL     1       0.177  -6.393   2.052  0.00  0.00    +0.217 A 
ATOM      4  N   UNL     1       1.338  -7.038   2.106  0.00  0.00    -0.181 NA
ATOM      5  C   UNL     1       2.476  -6.356   2.040  0.00  0.00    +0.217 A 
ATOM      6  N   UNL     1       2.450  -5.031   1.917  0.00  0.00    -0.199 NA
ATOM      7  N   UNL     1       3.684  -7.021   2.095  0.00  0.00    -0.327 N 
ATOM      8  N   UNL     1      -1.008  -7.097   2.120  0.00  0.00    -0.327 N 
ATOM      9  H   UNL     1       3.702  -7.987   2.182  0.00  0.00    +0.145 HD
ATOM     10  H   UNL     1       4.515  -6.522   2.048  0.00  0.00    +0.145 HD
ATOM     11  H   UNL     1      -1.855  -6.626   2.081  0.00  0.00    +0.145 HD
ATOM     12  H   UNL     1      -0.994  -8.063   2.206  0.00  0.00    +0.145 HD
ENDROOT
BRANCH   1  13
ATOM     13  C   UNL     1       1.268  -2.892   1.734  0.00  0.00    +0.150 C 
BRANCH  13  14
ATOM     14  S   UNL     1       1.244  -2.443  -0.024  0.00  0.00    -0.112 S 
BRANCH  14  19
ATOM     15  C   UNL     1      -0.017   1.379   0.010  0.00  0.00    +0.078 A 
ATOM     16  C   UNL     1       1.172   2.089   0.002  0.00  0.00    +0.129 A 
ATOM     17  C   UNL     1       2.383   1.417  -0.013  0.00  0.00    +0.078 A 
ATOM     18  C   UNL     1       2.408   0.034  -0.021  0.00  0.00    +0.142 A 
ATOM     19  C   UNL     1       1.216  -0.681  -0.013  0.00  0.00    +0.079 A 
ATOM     20  C   UNL     1       0.002  -0.004   0.002  0.00  0.00    +0.142 A 
ATOM     21  F   UNL     1      -1.158  -0.696   0.010  0.00  0.00    -0.204 F 
ATOM     22  F   UNL     1       3.590  -0.621  -0.036  0.00  0.00    -0.204 F 
ATOM     23  F   UNL     1       1.151   3.440   0.009  0.00  0.00    -0.205 F 
ENDBRANCH  14  19
ENDBRANCH  13  14
ENDBRANCH   1  13
TORSDOF 3
