REMARK  Name = ZINC33602097
REMARK  11 active torsions:
REMARK  status: ('A' for Active; 'I' for Inactive)
REMARK    1  A    between atoms: C_1  and  C_2
REMARK    2  A    between atoms: C_2  and  C_3
REMARK    3  A    between atoms: C_2  and  C_4
REMARK    4  A    between atoms: C_2  and  N_5
REMARK    5  A    between atoms: C_10  and  C_29
REMARK    6  A    between atoms: C_13  and  C_18
REMARK    7  A    between atoms: C_13  and  C_26
REMARK    8  A    between atoms: C_18  and  C_19
REMARK    9  A    between atoms: C_22  and  O_25
REMARK   10  A    between atoms: C_32  and  C_35
REMARK   11  A    between atoms: C_36  and  C_37
REMARK                            x       y       z     vdW  Elec       q    Type
REMARK                         _______ _______ _______ _____ _____    ______ ____
ROOT
ATOM      1  N   UNL     1      -1.395  -5.243  -3.618  0.00  0.00    -0.236 N 
ATOM      2  C   UNL     1      -0.336  -4.569  -3.063  0.00  0.00    +0.225 C 
ATOM      3  O   UNL     1       0.505  -3.910  -3.635  0.00  0.00    -0.275 OA
ATOM      4  C   UNL     1      -0.449  -4.819  -1.643  0.00  0.00    +0.077 C 
ATOM      5  C   UNL     1       0.026  -4.255  -0.369  0.00  0.00    -0.027 C 
ATOM      6  N   UNL     1      -0.937  -4.781   0.654  0.00  0.00    +0.396 N 
ATOM      7  C   UNL     1      -2.016  -5.521  -0.085  0.00  0.00    +0.052 C 
ATOM      8  C   UNL     1      -2.020  -4.830  -1.454  0.00  0.00    +0.086 C 
ATOM      9  C   UNL     1      -2.314  -5.640  -2.688  0.00  0.00    +0.225 C 
ATOM     10  O   UNL     1      -3.185  -6.471  -2.827  0.00  0.00    -0.275 OA
ATOM     11  H   UNL     1      -0.408  -5.456   1.343  0.00  0.00    -0.083 HD
ATOM     12  H   UNL     1      -1.365  -3.940   1.221  0.00  0.00    -0.083 HD
ENDROOT
BRANCH   5  13
ATOM     13  C   UNL     1      -0.018  -2.749  -0.410  0.00  0.00    -0.061 A 
ATOM     14  C   UNL     1       1.147  -2.032  -0.619  0.00  0.00    +0.002 A 
ATOM     15  C   UNL     1       1.114  -0.654  -0.657  0.00  0.00    +0.008 A 
ATOM     16  C   UNL     1      -0.099   0.018  -0.486  0.00  0.00    -0.025 A 
ATOM     17  C   UNL     1      -1.270  -0.713  -0.271  0.00  0.00    +0.008 A 
ATOM     18  C   UNL     1      -1.223  -2.091  -0.240  0.00  0.00    +0.002 A 
BRANCH  16  19
ATOM     19  C   UNL     1      -0.142   1.491  -0.525  0.00  0.00    +0.008 C 
ATOM     20  C   UNL     1      -1.310   2.133  -0.365  0.00  0.00    +0.008 C 
BRANCH  20  21
ATOM     21  C   UNL     1      -1.353   3.606  -0.405  0.00  0.00    -0.025 A 
ATOM     22  C   UNL     1      -0.179   4.337  -0.602  0.00  0.00    +0.008 A 
ATOM     23  C   UNL     1      -0.228   5.715  -0.644  0.00  0.00    +0.001 A 
ATOM     24  C   UNL     1      -1.434   6.373  -0.479  0.00  0.00    +0.000 A 
ATOM     25  C   UNL     1      -2.600   5.655  -0.277  0.00  0.00    +0.001 A 
ATOM     26  C   UNL     1      -2.567   4.277  -0.239  0.00  0.00    +0.008 A 
ENDBRANCH  20  21
ENDBRANCH  16  19
ENDBRANCH   5  13
BRANCH   1  28
ATOM     27  C   UNL     1      -2.809  -4.861  -5.577  0.00  0.00    +0.031 C 
ATOM     28  C   UNL     1      -1.526  -5.509  -5.052  0.00  0.00    +0.036 C 
ATOM     29  C   UNL     1      -0.320  -4.925  -5.791  0.00  0.00    +0.031 C 
ATOM     30  C   UNL     1      -1.585  -7.020  -5.288  0.00  0.00    +0.031 C 
ENDBRANCH   1  28
BRANCH   7  31
ATOM     31  C   UNL     1      -3.346  -5.354   0.602  0.00  0.00    +0.347 C 
ATOM     32  O   UNL     1      -4.344  -5.164  -0.052  0.00  0.00    -0.248 OA
ATOM     33  O   UNL     1      -3.423  -5.416   1.941  0.00  0.00    -0.248 OA
ENDBRANCH   7  31
BRANCH   7  34
ATOM     34  C   UNL     1      -1.662  -7.003  -0.226  0.00  0.00    +0.035 C 
BRANCH  34  35
ATOM     35  C   UNL     1      -1.756  -7.672   1.121  0.00  0.00    -0.048 A 
ATOM     36  C   UNL     1      -0.646  -7.728   1.943  0.00  0.00    +0.007 A 
ATOM     37  C   UNL     1      -0.731  -8.336   3.181  0.00  0.00    +0.045 A 
ATOM     38  C   UNL     1      -1.930  -8.899   3.594  0.00  0.00    +0.117 A 
ATOM     39  C   UNL     1      -3.041  -8.847   2.765  0.00  0.00    +0.045 A 
ATOM     40  C   UNL     1      -2.952  -8.233   1.531  0.00  0.00    +0.007 A 
BRANCH  38  41
ATOM     41  O   UNL     1      -2.015  -9.503   4.809  0.00  0.00    -0.507 OA
ATOM     42  H   UNL     1      -2.965  -9.950   5.136  0.00  0.00    +0.292 HD
ENDBRANCH  38  41
ENDBRANCH  34  35
ENDBRANCH   7  34
TORSDOF 8
