REMARK  Name = ZINC52814945
REMARK  6 active torsions:
REMARK  status: ('A' for Active; 'I' for Inactive)
REMARK    1  A    between atoms: C_1  and  C_2
REMARK    2  A    between atoms: C_4  and  N_9
REMARK    3  A    between atoms: N_9  and  C_10
REMARK    4  A    between atoms: C_10  and  C_11
REMARK    5  A    between atoms: C_10  and  C_12
REMARK    6  A    between atoms: C_10  and  C_13
REMARK                            x       y       z     vdW  Elec       q    Type
REMARK                         _______ _______ _______ _____ _____    ______ ____
ROOT
ATOM      1  N   UNL     1       0.034  -2.843  -2.330  0.00  0.00    -0.316 N 
ATOM      2  H   UNL     1       0.109  -3.809  -2.303  0.00  0.00    +0.148 HD
ENDROOT
BRANCH   1   6
ATOM      3  C   UNL     1       0.077  -2.644   2.588  0.00  0.00    +0.066 C 
ATOM      4  C   UNL     1       0.072  -1.991   1.230  0.00  0.00    +0.045 A 
ATOM      5  C   UNL     1       0.055  -2.762   0.084  0.00  0.00    +0.066 A 
ATOM      6  C   UNL     1       0.051  -2.113  -1.152  0.00  0.00    +0.124 A 
ATOM      7  N   UNL     1       0.064  -0.783  -1.182  0.00  0.00    -0.203 NA
ATOM      8  C   UNL     1       0.080  -0.086  -0.062  0.00  0.00    +0.225 A 
ATOM      9  N   UNL     1       0.079  -0.670   1.121  0.00  0.00    -0.223 NA
ATOM     10 CL   UNL     1       0.097   1.648  -0.148  0.00  0.00    -0.041 Cl
ENDBRANCH   1   6
BRANCH   1  11
ATOM     11  C   UNL     1      -0.097  -2.154  -3.616  0.00  0.00    +0.104 C 
ATOM     12  C   UNL     1      -1.368  -1.302  -3.611  0.00  0.00    +0.041 C 
ATOM     13  C   UNL     1       1.120  -1.254  -3.840  0.00  0.00    +0.041 C 
BRANCH  11  14
ATOM     14  C   UNL     1      -0.179  -3.172  -4.725  0.00  0.00    +0.233 C 
ATOM     15  O   UNL     1      -0.877  -2.958  -5.693  0.00  0.00    -0.274 OA
ATOM     16  N   UNL     1       0.523  -4.319  -4.640  0.00  0.00    -0.328 N 
ATOM     17  H   UNL     1       1.081  -4.490  -3.865  0.00  0.00    +0.145 HD
ATOM     18  H   UNL     1       0.470  -4.974  -5.353  0.00  0.00    +0.145 HD
ENDBRANCH  11  14
ENDBRANCH   1  11
TORSDOF 3
