REMARK  Name = ZINC13320721
REMARK  5 active torsions:
REMARK  status: ('A' for Active; 'I' for Inactive)
REMARK    1  A    between atoms: C_1  and  C_2
REMARK    2  A    between atoms: C_2  and  C_4
REMARK    3  A    between atoms: C_2  and  O_12
REMARK    4  A    between atoms: N_10  and  C_11
REMARK    5  A    between atoms: O_12  and  C_13
REMARK                            x       y       z     vdW  Elec       q    Type
REMARK                         _______ _______ _______ _____ _____    ______ ____
ROOT
ATOM      1  C   UNL     1       0.005   1.494   0.268  0.00  0.00    +0.060 C 
ATOM      2  C   UNL     1       0.005  -0.013   0.001  0.00  0.00    +0.238 C 
ENDROOT
BRANCH   2   3
ATOM      3  C   UNL     1       0.626  -0.284  -1.345  0.00  0.00    +0.172 A 
ATOM      4  N   UNL     1       0.845   0.599  -2.265  0.00  0.00    -0.155 NA
ATOM      5  N   UNL     1       1.434  -0.048  -3.360  0.00  0.00    -0.254 N 
ATOM      6  H   UNL     1       1.707   0.365  -4.194  0.00  0.00    +0.191 HD
ATOM      7  C   UNL     1       1.551  -1.354  -3.039  0.00  0.00    +0.175 A 
ATOM      8  S   UNL     1       2.209  -2.586  -4.029  0.00  0.00    -0.011 S 
ATOM      9  N   UNL     1       1.059  -1.508  -1.793  0.00  0.00    -0.307 N 
ATOM     10  C   UNL     1       0.994  -2.766  -1.046  0.00  0.00    +0.153 C 
ENDBRANCH   2   3
BRANCH   2  11
ATOM     11  O   UNL     1      -1.339  -0.499   0.012  0.00  0.00    -0.480 OA
BRANCH  11  12
ATOM     12  C   UNL     1      -1.869  -0.818   1.222  0.00  0.00    +0.141 A 
ATOM     13  C   UNL     1      -1.155  -0.562   2.383  0.00  0.00    +0.067 A 
ATOM     14  C   UNL     1      -1.698  -0.887   3.613  0.00  0.00    +0.045 A 
ATOM     15  C   UNL     1      -2.952  -1.467   3.685  0.00  0.00    +0.021 A 
ATOM     16  C   UNL     1      -3.665  -1.724   2.529  0.00  0.00    +0.025 A 
ATOM     17  C   UNL     1      -3.130  -1.395   1.298  0.00  0.00    +0.083 A 
ATOM     18 CL   UNL     1      -4.029  -1.712  -0.153  0.00  0.00    -0.080 Cl
ATOM     19 CL   UNL     1      -0.805  -0.567   5.067  0.00  0.00    -0.083 Cl
ENDBRANCH  11  12
ENDBRANCH   2  11
TORSDOF 3
