REMARK  Name = ZINC15503824
REMARK  7 active torsions:
REMARK  status: ('A' for Active; 'I' for Inactive)
REMARK    1  A    between atoms: C_1  and  O_2
REMARK    2  A    between atoms: O_2  and  C_3
REMARK    3  A    between atoms: C_5  and  C_13
REMARK    4  A    between atoms: C_7  and  N_10
REMARK    5  A    between atoms: C_8  and  O_9
REMARK    6  A    between atoms: N_24  and  C_25
REMARK    7  A    between atoms: C_25  and  C_26
REMARK                            x       y       z     vdW  Elec       q    Type
REMARK                         _______ _______ _______ _____ _____    ______ ____
ROOT
ATOM      1  C   UNL     1       2.741   1.619  -0.042  0.00  0.00    +0.193 C 
ATOM      2  N   UNL     1       2.792   0.334  -0.749  0.00  0.00    -0.321 N 
ATOM      3  C   UNL     1       1.829  -0.625  -0.455  0.00  0.00    +0.041 A 
ATOM      4  C   UNL     1       2.090  -1.980  -0.554  0.00  0.00    +0.024 A 
ATOM      5  C   UNL     1       1.098  -2.892  -0.244  0.00  0.00    +0.002 A 
ATOM      6  C   UNL     1      -0.154  -2.459   0.163  0.00  0.00    +0.001 A 
ATOM      7  C   UNL     1      -0.431  -1.111   0.266  0.00  0.00    +0.015 A 
ATOM      8  C   UNL     1       0.559  -0.182  -0.044  0.00  0.00    +0.058 A 
ATOM      9  C   UNL     1       0.317   1.269   0.046  0.00  0.00    +0.250 C 
ATOM     10  O   UNL     1      -0.816   1.698   0.149  0.00  0.00    -0.270 OA
ATOM     11  N   UNL     1       1.366   2.116   0.007  0.00  0.00    -0.272 N 
ATOM     12  H   UNL     1       3.581   0.146  -1.493  0.00  0.00    +0.148 HD
ENDROOT
BRANCH   1  15
ATOM     13  C   UNL     1       4.899   1.882   3.048  0.00  0.00    +0.164 A 
ATOM     14  C   UNL     1       4.430   2.045   1.754  0.00  0.00    +0.056 A 
ATOM     15  C   UNL     1       3.252   1.436   1.364  0.00  0.00    -0.003 A 
ATOM     16  C   UNL     1       2.544   0.655   2.259  0.00  0.00    +0.043 A 
ATOM     17  C   UNL     1       3.009   0.483   3.549  0.00  0.00    +0.171 A 
ATOM     18  C   UNL     1       4.187   1.095   3.949  0.00  0.00    +0.189 A 
BRANCH  17  19
ATOM     19  N   UNL     1       2.249  -0.353   4.505  0.00  0.00    +0.060 N 
ATOM     20  O   UNL     1       1.214  -0.891   4.154  0.00  0.00    -0.126 OA
ATOM     21  O   UNL     1       2.659  -0.504   5.642  0.00  0.00    -0.126 OA
ENDBRANCH  17  19
BRANCH  13  23
ATOM     22  C   UNL     1       6.732   3.276   2.458  0.00  0.00    +0.277 C 
ATOM     23  O   UNL     1       6.055   2.484   3.435  0.00  0.00    -0.491 OA
ENDBRANCH  13  23
BRANCH  18  24
ATOM     24  O   UNL     1       4.646   0.927   5.218  0.00  0.00    -0.502 OA
ATOM     25  H   UNL     1       4.082   0.305   5.928  0.00  0.00    +0.292 HD
ENDBRANCH  18  24
ENDBRANCH   1  15
BRANCH  11  26
ATOM     26  C   UNL     1       1.124   3.561   0.013  0.00  0.00    +0.141 C 
BRANCH  26  27
ATOM     27  C   UNL     1       1.216   4.087   1.447  0.00  0.00    +0.136 C 
ATOM     28  C   UNL     1       0.989   5.620   1.474  0.00  0.00    +0.035 C 
ATOM     29  C   UNL     1       0.486   5.818   2.929  0.00  0.00    +0.031 C 
ATOM     30  C   UNL     1      -0.310   4.519   3.181  0.00  0.00    +0.160 C 
ATOM     31  O   UNL     1       0.159   3.537   2.249  0.00  0.00    -0.375 OA
ENDBRANCH  26  27
ENDBRANCH  11  26
TORSDOF 6
