REMARK  Name = ZINC35518997
REMARK  6 active torsions:
REMARK  status: ('A' for Active; 'I' for Inactive)
REMARK    1  A    between atoms: C_1  and  C_2
REMARK    2  A    between atoms: C_5  and  C_11
REMARK    3  A    between atoms: C_6  and  N_8
REMARK    4  A    between atoms: C_14  and  C_16
REMARK    5  A    between atoms: C_17  and  C_18
REMARK    6  A    between atoms: C_17  and  C_20
REMARK                            x       y       z     vdW  Elec       q    Type
REMARK                         _______ _______ _______ _____ _____    ______ ____
ROOT
ATOM      1  C   UNL     1       1.309  -7.400   0.948  0.00  0.00    +0.068 C 
ATOM      2  C   UNL     1       2.373  -7.205   1.844  0.00  0.00    +0.099 C 
ENDROOT
BRANCH   2   3
ATOM      3  C   UNL     1       3.079  -8.365   2.412  0.00  0.00    +0.175 A 
ATOM      4  N   UNL     1       4.072  -8.134   3.257  0.00  0.00    -0.226 NA
ATOM      5  C   UNL     1       4.747  -9.142   3.804  0.00  0.00    +0.079 A 
ATOM      6  C   UNL     1       5.810  -8.950   4.706  0.00  0.00    +0.029 A 
ATOM      7  C   UNL     1       6.452 -10.035   5.223  0.00  0.00    +0.017 A 
ATOM      8  C   UNL     1       6.085 -11.334   4.883  0.00  0.00    +0.019 A 
ATOM      9  C   UNL     1       5.052 -11.584   4.003  0.00  0.00    +0.030 A 
ATOM     10  C   UNL     1       4.361 -10.511   3.445  0.00  0.00    +0.068 A 
ATOM     11  C   UNL     1       3.254 -10.678   2.506  0.00  0.00    +0.281 A 
ATOM     12  O   UNL     1       2.836 -11.907   2.124  0.00  0.00    -0.265 OA
ATOM     13  N   UNL     1       2.674  -9.582   2.048  0.00  0.00    -0.188 NA
ATOM     14 BR   UNL     1       7.025 -12.789   5.643  0.00  0.00    -0.050 Br
ENDBRANCH   2   3
BRANCH   1  18
ATOM     15  C   UNL     1       0.059  -4.234  -0.034  0.00  0.00    +0.138 A 
ATOM     16  C   UNL     1      -0.814  -5.053  -0.783  0.00  0.00    +0.050 A 
ATOM     17  C   UNL     1      -0.479  -6.347  -0.530  0.00  0.00    +0.050 A 
ATOM     18  C   UNL     1       0.644  -6.306   0.413  0.00  0.00    +0.130 A 
ATOM     19  O   UNL     1       0.914  -5.005   0.659  0.00  0.00    -0.455 OA
BRANCH  15  24
ATOM     20  C   UNL     1      -0.018   1.503   0.010  0.00  0.00    +0.044 C 
ATOM     21  C   UNL     1       0.002  -0.004   0.002  0.00  0.00    -0.048 A 
ATOM     22  C   UNL     1       0.006  -0.686  -1.206  0.00  0.00    +0.004 A 
ATOM     23  C   UNL     1       0.024  -2.051  -1.228  0.00  0.00    +0.014 A 
ATOM     24  C   UNL     1       0.040  -2.772  -0.019  0.00  0.00    +0.047 A 
ATOM     25  C   UNL     1       0.037  -2.075   1.203  0.00  0.00    +0.137 A 
ATOM     26  C   UNL     1       0.023  -0.699   1.202  0.00  0.00    +0.036 A 
BRANCH  25  27
ATOM     27  N   UNL     1       0.053  -2.819   2.483  0.00  0.00    +0.057 N 
ATOM     28  O   UNL     1       0.050  -2.163   3.626  0.00  0.00    -0.126 OA
ATOM     29  O   UNL     1       0.071  -4.136   2.480  0.00  0.00    -0.126 OA
ENDBRANCH  25  27
ENDBRANCH  15  24
ENDBRANCH   1  18
BRANCH   2  30
ATOM     30  C   UNL     1       2.772  -5.878   2.205  0.00  0.00    +0.103 C 
ATOM     31  N   UNL     1       3.088  -4.825   2.491  0.00  0.00    -0.191 NA
ENDBRANCH   2  30
TORSDOF 5
