REMARK  Name = ZINC17142919
REMARK  4 active torsions:
REMARK  status: ('A' for Active; 'I' for Inactive)
REMARK    1  A    between atoms: N_7  and  C_8
REMARK    2  A    between atoms: C_12  and  O_19
REMARK    3  A    between atoms: C_14  and  C_17
REMARK    4  A    between atoms: C_17  and  O_18
REMARK                            x       y       z     vdW  Elec       q    Type
REMARK                         _______ _______ _______ _____ _____    ______ ____
ROOT
ATOM      1  C   UNL     1       1.131   2.794   0.006  0.00  0.00    +0.111 A 
ATOM      2  C   UNL     1      -0.026   2.091   0.013  0.00  0.00    +0.069 A 
ATOM      3  C   UNL     1      -1.251   2.790   0.023  0.00  0.00    +0.136 A 
ATOM      4  N   UNL     1      -1.248   4.117   0.036  0.00  0.00    -0.177 NA
ATOM      5  C   UNL     1      -0.102   4.795   0.028  0.00  0.00    +0.352 A 
ATOM      6  O   UNL     1      -0.126   6.014   0.035  0.00  0.00    -0.244 OA
ATOM      7  N   UNL     1       1.083   4.156   0.014  0.00  0.00    -0.269 N 
ATOM      8  N   UNL     1      -2.442   2.101   0.025  0.00  0.00    -0.342 N 
ATOM      9  I   UNL     1       0.002  -0.004   0.002  0.00  0.00    -0.039 I 
ATOM     10  H   UNL     1      -3.395   2.650   0.032  0.00  0.00    +0.144 HD
ATOM     11  H   UNL     1      -2.440   1.001   0.019  0.00  0.00    +0.144 HD
ENDROOT
BRANCH   7  12
ATOM     12  C   UNL     1       2.327   4.930   0.006  0.00  0.00    +0.260 C 
ATOM     13  C   UNL     1       2.430   5.770  -1.286  0.00  0.00    +0.246 C 
ATOM     14  C   UNL     1       3.083   7.093  -0.820  0.00  0.00    +0.184 C 
ATOM     15  C   UNL     1       3.299   6.892   0.697  0.00  0.00    +0.178 C 
ATOM     16  O   UNL     1       2.325   5.896   1.079  0.00  0.00    -0.345 OA
ATOM     17  F   UNL     1       1.158   6.012  -1.816  0.00  0.00    -0.238 F 
BRANCH  14  18
ATOM     18  O   UNL     1       4.333   7.296  -1.482  0.00  0.00    -0.386 OA
ATOM     19  H   UNL     1       4.931   8.193  -1.265  0.00  0.00    +0.210 HD
ENDBRANCH  14  18
BRANCH  15  20
ATOM     20  C   UNL     1       3.049   8.199   1.451  0.00  0.00    +0.190 C 
BRANCH  20  21
ATOM     21  O   UNL     1       3.297   8.001   2.844  0.00  0.00    -0.392 OA
ATOM     22  H   UNL     1       3.169   8.834   3.550  0.00  0.00    +0.210 HD
ENDBRANCH  20  21
ENDBRANCH  15  20
ENDBRANCH   7  12
TORSDOF 4
