REMARK  Name = ZINC40681492
REMARK  9 active torsions:
REMARK  status: ('A' for Active; 'I' for Inactive)
REMARK    1  A    between atoms: C_1  and  C_2
REMARK    2  A    between atoms: C_4  and  C_30
REMARK    3  A    between atoms: C_6  and  O_8
REMARK    4  A    between atoms: O_8  and  C_9
REMARK    5  A    between atoms: C_10  and  N_29
REMARK    6  A    between atoms: C_11  and  N_15
REMARK    7  A    between atoms: N_15  and  C_16
REMARK    8  A    between atoms: C_16  and  C_17
REMARK    9  A    between atoms: C_16  and  C_23
REMARK                            x       y       z     vdW  Elec       q    Type
REMARK                         _______ _______ _______ _____ _____    ______ ____
ROOT
ATOM      1  C   UNL     1       0.150  -2.067   3.511  0.00  0.00    +0.246 A 
ATOM      2  C   UNL     1       0.280  -2.722   4.735  0.00  0.00    +0.128 A 
ATOM      3  C   UNL     1       0.380  -1.945   5.892  0.00  0.00    +0.147 A 
ATOM      4  N   UNL     1       0.348  -0.620   5.782  0.00  0.00    -0.219 NA
ATOM      5  C   UNL     1       0.224  -0.041   4.605  0.00  0.00    +0.227 A 
ATOM      6  N   UNL     1       0.132  -0.738   3.490  0.00  0.00    -0.199 NA
ENDROOT
BRANCH   2   7
ATOM      7  N   UNL     1       0.309  -4.124   4.803  0.00  0.00    -0.351 N 
ATOM      8  H   UNL     1       0.238  -4.650   3.992  0.00  0.00    +0.143 HD
ATOM      9  H   UNL     1       0.400  -4.566   5.662  0.00  0.00    +0.143 HD
ENDBRANCH   2   7
BRANCH   3  10
ATOM     10  N   UNL     1       0.511  -2.547   7.137  0.00  0.00    -0.317 N 
ATOM     11  H   UNL     1       0.533  -3.514   7.208  0.00  0.00    +0.148 HD
BRANCH  10  12
ATOM     12  C   UNL     1       0.615  -1.722   8.343  0.00  0.00    +0.132 C 
BRANCH  12  13
ATOM     13  C   UNL     1      -0.767  -1.359   8.824  0.00  0.00    -0.023 A 
ATOM     14  C   UNL     1      -1.780  -2.298   8.788  0.00  0.00    +0.006 A 
ATOM     15  C   UNL     1      -3.047  -1.965   9.229  0.00  0.00    +0.000 A 
ATOM     16  C   UNL     1      -3.301  -0.693   9.707  0.00  0.00    +0.000 A 
ATOM     17  C   UNL     1      -2.287   0.246   9.743  0.00  0.00    +0.000 A 
ATOM     18  C   UNL     1      -1.019  -0.088   9.306  0.00  0.00    +0.006 A 
ENDBRANCH  12  13
BRANCH  12  19
ATOM     19  C   UNL     1       1.335  -2.492   9.419  0.00  0.00    -0.023 A 
ATOM     20  C   UNL     1       1.083  -3.841   9.590  0.00  0.00    +0.006 A 
ATOM     21  C   UNL     1       1.744  -4.548  10.577  0.00  0.00    +0.000 A 
ATOM     22  C   UNL     1       2.657  -3.906  11.393  0.00  0.00    +0.000 A 
ATOM     23  C   UNL     1       2.909  -2.558  11.222  0.00  0.00    +0.000 A 
ATOM     24  C   UNL     1       2.251  -1.852  10.232  0.00  0.00    +0.006 A 
ENDBRANCH  12  19
ENDBRANCH  10  12
ENDBRANCH   3  10
BRANCH   1  25
ATOM     25  O   UNL     1       0.050  -2.776   2.358  0.00  0.00    -0.436 OA
BRANCH  25  31
ATOM     26  C   UNL     1       2.470  -0.303  -1.085  0.00  0.00    +0.044 C 
ATOM     27  C   UNL     1       1.191  -0.869  -0.522  0.00  0.00    -0.047 A 
ATOM     28  C   UNL     1      -0.001  -0.688  -1.199  0.00  0.00    +0.007 A 
ATOM     29  C   UNL     1      -1.176  -1.205  -0.686  0.00  0.00    -0.047 A 
ATOM     30  C   UNL     1      -1.161  -1.905   0.505  0.00  0.00    +0.049 A 
ATOM     31  C   UNL     1       0.033  -2.088   1.187  0.00  0.00    +0.131 A 
ATOM     32  C   UNL     1       1.212  -1.573   0.666  0.00  0.00    +0.049 A 
ATOM     33  C   UNL     1      -2.473  -1.006  -1.426  0.00  0.00    +0.044 C 
ENDBRANCH  25  31
ENDBRANCH   1  25
TORSDOF 7
