REMARK  Name = ZINC37693170
REMARK  7 active torsions:
REMARK  status: ('A' for Active; 'I' for Inactive)
REMARK    1  A    between atoms: C_1  and  C_2
REMARK    2  A    between atoms: C_5  and  O_12
REMARK    3  A    between atoms: C_6  and  C_8
REMARK    4  A    between atoms: C_8  and  C_11
REMARK    5  A    between atoms: N_9  and  O_10
REMARK    6  A    between atoms: O_12  and  C_13
REMARK    7  A    between atoms: C_20  and  O_22
REMARK                            x       y       z     vdW  Elec       q    Type
REMARK                         _______ _______ _______ _____ _____    ______ ____
ROOT
ATOM      1  C   UNL     1      -0.161   1.499   0.025  0.00  0.00    +0.044 C 
ATOM      2  C   UNL     1      -0.101  -0.007   0.013  0.00  0.00    -0.050 A 
ATOM      3  C   UNL     1      -0.308  -0.695  -1.171  0.00  0.00    +0.007 A 
ATOM      4  C   UNL     1      -0.256  -2.076  -1.194  0.00  0.00    +0.046 A 
ATOM      5  C   UNL     1       0.005  -2.781  -0.030  0.00  0.00    +0.130 A 
ATOM      6  C   UNL     1       0.216  -2.088   1.169  0.00  0.00    +0.041 A 
ATOM      7  C   UNL     1       0.166  -0.693   1.178  0.00  0.00    +0.016 A 
ENDROOT
BRANCH   6   8
ATOM      8  C   UNL     1       0.495  -2.829   2.414  0.00  0.00    +0.087 C 
ATOM      9  N   UNL     1       0.546  -4.122   2.400  0.00  0.00    -0.092 NA
ATOM     10  C   UNL     1       0.721  -2.079   3.701  0.00  0.00    +0.070 C 
BRANCH   9  11
ATOM     11  O   UNL     1       0.814  -4.832   3.595  0.00  0.00    -0.409 OA
ATOM     12  H   UNL     1       0.832  -5.793   3.486  0.00  0.00    +0.328 HD
ENDBRANCH   9  11
ENDBRANCH   6   8
BRANCH   5  13
ATOM     13  O   UNL     1       0.057  -4.138  -0.052  0.00  0.00    -0.484 OA
BRANCH  13  14
ATOM     14  C   UNL     1      -0.053  -4.770  -1.329  0.00  0.00    +0.224 C 
ATOM     15  C   UNL     1      -1.548  -4.863  -1.707  0.00  0.00    +0.213 C 
ATOM     16  S   UNL     1      -1.602  -6.498  -2.563  0.00  0.00    -0.025 S 
ATOM     17  O   UNL     1      -1.175  -6.339  -3.909  0.00  0.00    -0.174 OA
ATOM     18  O   UNL     1      -2.844  -7.132  -2.287  0.00  0.00    -0.174 OA
ATOM     19  C   UNL     1      -0.265  -7.318  -1.590  0.00  0.00    +0.201 C 
ATOM     20  C   UNL     1       0.647  -6.119  -1.264  0.00  0.00    +0.177 C 
BRANCH  20  21
ATOM     21  O   UNL     1       1.736  -6.114  -2.190  0.00  0.00    -0.386 OA
ATOM     22  H   UNL     1       2.238  -6.940  -2.212  0.00  0.00    +0.210 HD
ENDBRANCH  20  21
ENDBRANCH  13  14
ENDBRANCH   5  13
TORSDOF 5
