REMARK  Name = ZINC21009297
REMARK  4 active torsions:
REMARK  status: ('A' for Active; 'I' for Inactive)
REMARK    1  A    between atoms: C_3  and  S_9
REMARK    2  A    between atoms: C_4  and  N_8
REMARK    3  A    between atoms: S_9  and  N_12
REMARK    4  A    between atoms: N_12  and  C_13
REMARK                            x       y       z     vdW  Elec       q    Type
REMARK                         _______ _______ _______ _____ _____    ______ ____
ROOT
ATOM      1  S   UNL     1       2.747   0.836   0.106  0.00  0.00    +0.074 S 
ATOM      2  O   UNL     1       3.675   1.381   1.033  0.00  0.00    -0.150 OA
ATOM      3  O   UNL     1       2.369  -0.534   0.123  0.00  0.00    -0.150 OA
ENDROOT
BRANCH   1   6
ATOM      4  C   UNL     1      -1.113   1.853   0.565  0.00  0.00    +0.040 A 
ATOM      5  C   UNL     1       0.054   1.122   0.439  0.00  0.00    +0.033 A 
ATOM      6  C   UNL     1       1.262   1.770   0.272  0.00  0.00    +0.129 A 
ATOM      7  C   UNL     1       1.306   3.158   0.234  0.00  0.00    +0.054 A 
ATOM      8  C   UNL     1       0.135   3.891   0.365  0.00  0.00    +0.063 A 
ATOM      9  C   UNL     1      -1.073   3.237   0.533  0.00  0.00    +0.125 A 
ATOM     10  F   UNL     1      -2.214   3.949   0.660  0.00  0.00    -0.205 F 
BRANCH   7  11
ATOM     11  N   UNL     1       2.528   3.815   0.065  0.00  0.00    -0.356 N 
ATOM     12  H   UNL     1       2.562   4.914   0.035  0.00  0.00    +0.142 HD
ATOM     13  H   UNL     1       3.455   3.233  -0.038  0.00  0.00    +0.142 HD
ENDBRANCH   7  11
ENDBRANCH   1   6
BRANCH   1  14
ATOM     14  N   UNL     1       3.352   1.141  -1.405  0.00  0.00    -0.215 N 
ATOM     15  H   UNL     1       4.293   1.700  -1.518  0.00  0.00    +0.174 HD
BRANCH  14  16
ATOM     16  C   UNL     1       2.667   0.689  -2.537  0.00  0.00    +0.068 A 
ATOM     17  C   UNL     1       1.279   0.669  -2.548  0.00  0.00    +0.047 A 
ATOM     18  C   UNL     1       0.604   0.222  -3.668  0.00  0.00    +0.061 A 
ATOM     19  C   UNL     1       1.312  -0.207  -4.779  0.00  0.00    +0.061 A 
ATOM     20  C   UNL     1       2.695  -0.189  -4.770  0.00  0.00    +0.043 A 
ATOM     21  C   UNL     1       3.374   0.263  -3.655  0.00  0.00    +0.065 A 
ATOM     22 CL   UNL     1       5.110   0.293  -3.647  0.00  0.00    -0.082 Cl
ATOM     23 CL   UNL     1       0.462  -0.768  -6.184  0.00  0.00    -0.082 Cl
ATOM     24 CL   UNL     1      -1.132   0.197  -3.683  0.00  0.00    -0.082 Cl
ENDBRANCH  14  16
ENDBRANCH   1  14
TORSDOF 4
