REMARK  Name = ZINC61673047
REMARK  6 active torsions:
REMARK  status: ('A' for Active; 'I' for Inactive)
REMARK    1  A    between atoms: C_1  and  C_2
REMARK    2  A    between atoms: C_2  and  C_3
REMARK    3  A    between atoms: C_2  and  C_4
REMARK    4  A    between atoms: C_7  and  C_10
REMARK    5  A    between atoms: C_11  and  C_16
REMARK    6  A    between atoms: C_14  and  N_15
REMARK                            x       y       z     vdW  Elec       q    Type
REMARK                         _______ _______ _______ _____ _____    ______ ____
ROOT
ATOM      1  C   UNL     1       2.696  -1.862  -4.736  0.00  0.00    +0.066 A 
ATOM      2  C   UNL     1       2.820  -3.205  -5.153  0.00  0.00    +0.096 A 
ATOM      3  N   UNL     1       3.494  -3.224  -6.268  0.00  0.00    -0.080 NA
ATOM      4  O   UNL     1       3.833  -1.895  -6.615  0.00  0.00    -0.339 OA
ATOM      5  C   UNL     1       3.335  -1.075  -5.675  0.00  0.00    +0.223 A 
ENDROOT
BRANCH   1   9
ATOM      6  C   UNL     1       0.707  -0.490  -1.238  0.00  0.00    -0.045 A 
ATOM      7  C   UNL     1       0.219  -0.149  -2.487  0.00  0.00    +0.004 A 
ATOM      8  C   UNL     1       0.861  -0.592  -3.626  0.00  0.00    +0.009 A 
ATOM      9  C   UNL     1       2.003  -1.383  -3.516  0.00  0.00    -0.011 A 
ATOM     10  C   UNL     1       2.491  -1.723  -2.255  0.00  0.00    +0.009 A 
ATOM     11  C   UNL     1       1.844  -1.270  -1.123  0.00  0.00    +0.004 A 
BRANCH   6  13
ATOM     12  C   UNL     1      -0.019   1.526   0.010  0.00  0.00    +0.012 C 
ATOM     13  C   UNL     1       0.002  -0.004   0.002  0.00  0.00    +0.013 C 
ATOM     14  C   UNL     1      -1.433  -0.534   0.013  0.00  0.00    +0.012 C 
ENDBRANCH   6  13
ENDBRANCH   1   9
BRANCH   2  15
ATOM     15  C   UNL     1       2.267  -4.409  -4.434  0.00  0.00    +0.046 C 
ATOM     16  C   UNL     1       3.413  -5.356  -4.066  0.00  0.00    +0.038 C 
ATOM     17  C   UNL     1       2.835  -6.611  -3.406  0.00  0.00    +0.160 C 
ATOM     18  O   UNL     1       1.905  -7.231  -4.297  0.00  0.00    -0.380 OA
ATOM     19  C   UNL     1       0.788  -6.408  -4.639  0.00  0.00    +0.160 C 
ATOM     20  C   UNL     1       1.284  -5.145  -5.348  0.00  0.00    +0.038 C 
ENDBRANCH   2  15
BRANCH   5  21
ATOM     21  N   UNL     1       3.444   0.299  -5.650  0.00  0.00    -0.327 N 
ATOM     22  H   UNL     1       3.049   0.803  -4.922  0.00  0.00    +0.145 HD
ATOM     23  H   UNL     1       3.915   0.761  -6.361  0.00  0.00    +0.145 HD
ENDBRANCH   5  21
TORSDOF 4
