REMARK  Name = ZINC51093957
REMARK  6 active torsions:
REMARK  status: ('A' for Active; 'I' for Inactive)
REMARK    1  A    between atoms: C_1  and  O_2
REMARK    2  A    between atoms: O_2  and  C_3
REMARK    3  A    between atoms: C_8  and  N_10
REMARK    4  A    between atoms: C_11  and  C_13
REMARK    5  A    between atoms: C_15  and  N_20
REMARK    6  A    between atoms: N_20  and  N_21
REMARK                            x       y       z     vdW  Elec       q    Type
REMARK                         _______ _______ _______ _____ _____    ______ ____
ROOT
ATOM      1  C   UNL     1      -3.094  -3.424  -0.079  0.00  0.00    +0.043 A 
ATOM      2  C   UNL     1      -4.122  -4.299   0.275  0.00  0.00    +0.057 A 
ATOM      3  C   UNL     1      -5.131  -4.560  -0.645  0.00  0.00    +0.134 A 
ATOM      4  N   UNL     1      -5.122  -3.989  -1.839  0.00  0.00    -0.220 NA
ATOM      5  C   UNL     1      -4.166  -3.156  -2.207  0.00  0.00    +0.132 A 
ATOM      6  C   UNL     1      -3.130  -2.840  -1.350  0.00  0.00    +0.053 A 
ATOM      7 CL   UNL     1      -4.216  -2.443  -3.789  0.00  0.00    -0.062 Cl
ENDROOT
BRANCH   1   9
ATOM      8  N   UNL     1      -1.017  -2.263   0.511  0.00  0.00    -0.306 N 
ATOM      9  C   UNL     1      -1.998  -3.116   0.869  0.00  0.00    +0.245 C 
ATOM     10  O   UNL     1      -1.983  -3.631   1.969  0.00  0.00    -0.270 OA
ATOM     11  H   UNL     1      -1.029  -1.852  -0.367  0.00  0.00    +0.149 HD
BRANCH   8  16
ATOM     12  C   UNL     1       0.673  -0.582   1.123  0.00  0.00    +0.138 C 
ATOM     13  C   UNL     1       2.159  -0.824   0.783  0.00  0.00    +0.033 C 
ATOM     14  C   UNL     1       2.498  -2.159   1.491  0.00  0.00    +0.004 C 
ATOM     15  C   UNL     1       1.206  -2.989   1.293  0.00  0.00    +0.025 C 
ATOM     16  C   UNL     1       0.067  -1.959   1.448  0.00  0.00    +0.102 C 
BRANCH  12  18
ATOM     17  C   UNL     1      -0.017   1.425   0.010  0.00  0.00    +0.194 C 
ATOM     18  O   UNL     1       0.002  -0.004   0.002  0.00  0.00    -0.378 OA
ENDBRANCH  12  18
ENDBRANCH   8  16
ENDBRANCH   1   9
BRANCH   3  19
ATOM     19  N   UNL     1      -6.162  -5.430  -0.307  0.00  0.00    -0.267 N 
ATOM     20  H   UNL     1      -6.174  -5.851   0.566  0.00  0.00    +0.167 HD
BRANCH  19  21
ATOM     21  N   UNL     1      -7.157  -5.691  -1.206  0.00  0.00    -0.255 NA
ATOM     22  H   UNL     1      -7.830  -6.337  -0.822  0.00  0.00    +0.140 HD
ATOM     23  H   UNL     1      -7.605  -4.839  -1.507  0.00  0.00    +0.140 HD
ENDBRANCH  19  21
ENDBRANCH   3  19
TORSDOF 5
