REMARK  Name = ZINC39664243
REMARK  9 active torsions:
REMARK  status: ('A' for Active; 'I' for Inactive)
REMARK    1  A    between atoms: C_1  and  C_2
REMARK    2  A    between atoms: C_2  and  C_3
REMARK    3  A    between atoms: C_3  and  C_4
REMARK    4  A    between atoms: C_4  and  C_5
REMARK    5  A    between atoms: C_9  and  C_18
REMARK    6  A    between atoms: N_20  and  C_21
REMARK    7  A    between atoms: C_21  and  C_22
REMARK    8  A    between atoms: C_22  and  C_24
REMARK    9  A    between atoms: C_22  and  N_30
REMARK                            x       y       z     vdW  Elec       q    Type
REMARK                         _______ _______ _______ _____ _____    ______ ____
ROOT
ATOM      1  C   UNL     1       2.239  -2.996  -4.485  0.00  0.00    +0.216 C 
ATOM      2  O   UNL     1       2.530  -2.409  -5.506  0.00  0.00    -0.276 OA
ATOM      3  N   UNL     1       2.163  -4.342  -4.479  0.00  0.00    -0.300 N 
ATOM      4  C   UNL     1       1.819  -5.228  -3.342  0.00  0.00    +0.121 C 
ATOM      5  C   UNL     1       0.939  -6.336  -3.962  0.00  0.00    +0.100 C 
ATOM      6  C   UNL     1       1.330  -6.360  -5.450  0.00  0.00    -0.004 C 
ATOM      7  C   UNL     1       2.399  -5.270  -5.611  0.00  0.00    +0.115 C 
ATOM      8  C   UNL     1       1.903  -7.724  -5.823  0.00  0.00    -0.010 C 
ATOM      9  C   UNL     1       2.230  -7.743  -7.319  0.00  0.00    -0.082 C 
ATOM     10  N   UNL     1       1.011  -7.474  -8.092  0.00  0.00    +0.379 N 
ATOM     11  C   UNL     1       0.518  -6.124  -7.795  0.00  0.00    -0.082 C 
ATOM     12  C   UNL     1       0.119  -6.036  -6.319  0.00  0.00    -0.010 C 
ATOM     13  H   UNL     1       1.216  -7.547  -9.077  0.00  0.00    -0.086 HD
ATOM     14  H   UNL     1       0.303  -8.150  -7.847  0.00  0.00    -0.086 HD
ENDROOT
BRANCH   5  15
ATOM     15  C   UNL     1       1.237  -7.665  -3.317  0.00  0.00    +0.218 C 
ATOM     16  O   UNL     1       2.355  -7.907  -2.915  0.00  0.00    -0.275 OA
ATOM     17  N   UNL     1       0.260  -8.585  -3.188  0.00  0.00    -0.313 N 
ATOM     18  H   UNL     1      -0.634  -8.391  -3.510  0.00  0.00    +0.149 HD
BRANCH  17  19
ATOM     19  C   UNL     1       0.550  -9.877  -2.561  0.00  0.00    +0.127 C 
BRANCH  19  20
ATOM     20  C   UNL     1      -0.721 -10.729  -2.538  0.00  0.00    +0.104 C 
BRANCH  20  21
ATOM     21  C   UNL     1      -0.456 -12.007  -1.785  0.00  0.00    -0.029 A 
ATOM     22  C   UNL     1      -0.817 -13.222  -2.337  0.00  0.00    +0.005 A 
ATOM     23  C   UNL     1      -0.574 -14.394  -1.646  0.00  0.00    +0.000 A 
ATOM     24  C   UNL     1       0.032 -14.351  -0.404  0.00  0.00    +0.000 A 
ATOM     25  C   UNL     1       0.394 -13.136   0.147  0.00  0.00    +0.000 A 
ATOM     26  C   UNL     1       0.154 -11.964  -0.545  0.00  0.00    +0.005 A 
ENDBRANCH  20  21
BRANCH  20  27
ATOM     27  N   UNL     1      -1.799  -9.983  -1.874  0.00  0.00    -0.290 NA
ATOM     28  C   UNL     1      -1.458  -9.703  -0.472  0.00  0.00    +0.113 C 
ATOM     29  C   UNL     1      -2.579  -8.876   0.164  0.00  0.00    +0.175 C 
ATOM     30  O   UNL     1      -3.816  -9.582   0.038  0.00  0.00    -0.377 OA
ATOM     31  C   UNL     1      -4.179  -9.871  -1.315  0.00  0.00    +0.175 C 
ATOM     32  C   UNL     1      -3.074 -10.708  -1.966  0.00  0.00    +0.113 C 
ENDBRANCH  20  27
ENDBRANCH  19  20
ENDBRANCH  17  19
ENDBRANCH   5  15
BRANCH   1  33
ATOM     33  C   UNL     1       1.961  -2.221  -3.223  0.00  0.00    +0.096 C 
BRANCH  33  34
ATOM     34  C   UNL     1       2.114  -0.724  -3.500  0.00  0.00    +0.009 C 
BRANCH  34  36
ATOM     35  C   UNL     1       1.985   1.560  -2.496  0.00  0.00    +0.004 C 
ATOM     36  C   UNL     1       1.832   0.064  -2.219  0.00  0.00    -0.003 C 
ENDBRANCH  34  36
ENDBRANCH  33  34
ENDBRANCH   1  33
TORSDOF 8
