REMARK  Name = ZINC48255929
REMARK  9 active torsions:
REMARK  status: ('A' for Active; 'I' for Inactive)
REMARK    1  A    between atoms: C_1  and  C_2
REMARK    2  A    between atoms: C_5  and  N_21
REMARK    3  A    between atoms: C_7  and  N_8
REMARK    4  A    between atoms: N_11  and  C_12
REMARK    5  A    between atoms: C_12  and  C_14
REMARK    6  A    between atoms: C_12  and  C_15
REMARK    7  A    between atoms: C_22  and  C_24
REMARK    8  A    between atoms: C_24  and  C_25
REMARK    9  A    between atoms: C_24  and  C_26
REMARK                            x       y       z     vdW  Elec       q    Type
REMARK                         _______ _______ _______ _____ _____    ______ ____
ROOT
ATOM      1  C   UNL     1      -0.386   1.312   0.275  0.00  0.00    +0.045 C 
ATOM      2  C   UNL     1      -0.182  -0.169   0.088  0.00  0.00    -0.029 A 
ATOM      3  C   UNL     1      -0.322  -0.733  -1.165  0.00  0.00    +0.007 A 
ATOM      4  C   UNL     1      -0.136  -2.091  -1.340  0.00  0.00    +0.024 A 
ATOM      5  C   UNL     1       0.191  -2.894  -0.255  0.00  0.00    +0.035 A 
ATOM      6  C   UNL     1       0.332  -2.331   1.005  0.00  0.00    +0.047 A 
ATOM      7  C   UNL     1       0.151  -0.966   1.176  0.00  0.00    +0.039 A 
ENDROOT
BRANCH   7   8
ATOM      8  N   UNL     1       0.299  -0.393   2.445  0.00  0.00    -0.269 N 
ATOM      9  C   UNL     1       0.056  -1.128   3.548  0.00  0.00    +0.304 C 
ATOM     10  O   UNL     1      -0.215  -2.308   3.445  0.00  0.00    -0.252 OA
ATOM     11  N   UNL     1       0.113  -0.553   4.766  0.00  0.00    -0.294 N 
ATOM     12  H   UNL     1       0.575   0.533   2.530  0.00  0.00    +0.156 HD
ATOM     13  H   UNL     1       0.329   0.389   4.849  0.00  0.00    +0.151 HD
BRANCH  11  14
ATOM     14  C   UNL     1      -0.150  -1.352   5.966  0.00  0.00    +0.100 C 
ATOM     15  C   UNL     1       1.135  -2.059   6.400  0.00  0.00    +0.030 C 
BRANCH  14  16
ATOM     16  C   UNL     1      -0.635  -0.436   7.092  0.00  0.00    +0.138 C 
ATOM     17  C   UNL     1      -1.006  -1.272   8.343  0.00  0.00    +0.035 C 
ATOM     18  C   UNL     1      -0.825  -0.216   9.467  0.00  0.00    +0.031 C 
ATOM     19  C   UNL     1       0.356   0.626   8.939  0.00  0.00    +0.160 C 
ATOM     20  O   UNL     1       0.427   0.432   7.520  0.00  0.00    -0.375 OA
ENDBRANCH  14  16
ENDBRANCH  11  14
ENDBRANCH   7   8
BRANCH   5  21
ATOM     21  N   UNL     1       0.378  -4.269  -0.432  0.00  0.00    -0.285 N 
ATOM     22  C   UNL     1       0.949  -4.731  -1.562  0.00  0.00    +0.220 C 
ATOM     23  O   UNL     1       1.225  -3.963  -2.460  0.00  0.00    -0.275 OA
ATOM     24  H   UNL     1       0.098  -4.890   0.258  0.00  0.00    +0.155 HD
BRANCH  22  25
ATOM     25  C   UNL     1       1.243  -6.202  -1.711  0.00  0.00    +0.069 C 
ATOM     26  C   UNL     1       1.885  -6.458  -3.076  0.00  0.00    +0.017 C 
ATOM     27  C   UNL     1       2.204  -6.643  -0.605  0.00  0.00    +0.017 C 
ENDBRANCH  22  25
ENDBRANCH   5  21
TORSDOF 5
