REMARK  Name = ZINC16698051
REMARK  2 active torsions:
REMARK  status: ('A' for Active; 'I' for Inactive)
REMARK    1  A    between atoms: C_3  and  C_11
REMARK    2  A    between atoms: C_4  and  N_8
REMARK                            x       y       z     vdW  Elec       q    Type
REMARK                         _______ _______ _______ _____ _____    ______ ____
ROOT
ATOM      1  C   UNL     1      -1.236   1.822   0.233  0.00  0.00    +0.015 A 
ATOM      2  C   UNL     1      -0.100   1.077  -0.007  0.00  0.00    +0.018 A 
ATOM      3  C   UNL     1       1.118   1.721  -0.233  0.00  0.00    +0.093 A 
ATOM      4  C   UNL     1       1.178   3.117  -0.209  0.00  0.00    +0.141 A 
ATOM      5  C   UNL     1       0.036   3.849   0.037  0.00  0.00    +0.048 A 
ATOM      6  C   UNL     1      -1.169   3.204   0.260  0.00  0.00    +0.016 A 
ATOM      7  I   UNL     1      -2.898   4.326   0.633  0.00  0.00    -0.044 I 
ENDROOT
BRANCH   4   8
ATOM      8  N   UNL     1       2.466   3.807  -0.447  0.00  0.00    +0.057 N 
ATOM      9  O   UNL     1       2.496   5.021  -0.547  0.00  0.00    -0.126 OA
ATOM     10  O   UNL     1       3.494   3.162  -0.544  0.00  0.00    -0.126 OA
ENDBRANCH   4   8
BRANCH   3  11
ATOM     11  C   UNL     1       2.337   0.931  -0.496  0.00  0.00    +0.389 C 
ATOM     12  O   UNL     1       2.990   1.137  -1.500  0.00  0.00    -0.241 OA
ATOM     13  O   UNL     1       2.725  -0.020   0.376  0.00  0.00    -0.241 OA
ENDBRANCH   3  11
TORSDOF 2
