REMARK  Name = ZINC14953356
REMARK  9 active torsions:
REMARK  status: ('A' for Active; 'I' for Inactive)
REMARK    1  A    between atoms: C_1  and  C_2
REMARK    2  A    between atoms: C_2  and  O_3
REMARK    3  A    between atoms: O_3  and  C_4
REMARK    4  A    between atoms: C_6  and  C_23
REMARK    5  A    between atoms: C_8  and  CA_10
REMARK    6  A    between atoms: CA_10  and  C_12
REMARK    7  A    between atoms: CA_10  and  N_14
REMARK    8  A    between atoms: N_14  and  C_15
REMARK    9  A    between atoms: C_18  and  C_21
REMARK                            x       y       z     vdW  Elec       q    Type
REMARK                         _______ _______ _______ _____ _____    ______ ____
ROOT
ATOM      1  CA  UNL     1      -1.482   3.150   4.412  0.00  0.00    +0.215 C 
ENDROOT
BRANCH   1   6
ATOM      2  C   UNL     1      -1.110   3.740   0.696  0.00  0.00    +0.121 A 
ATOM      3  C   UNL     1      -0.006   2.959   0.396  0.00  0.00    +0.054 A 
ATOM      4  C   UNL     1       0.630   2.242   1.406  0.00  0.00    -0.013 A 
ATOM      5  C   UNL     1       0.145   2.305   2.712  0.00  0.00    +0.014 A 
ATOM      6  C   UNL     1      -0.959   3.082   3.001  0.00  0.00    -0.012 A 
ATOM      7  C   UNL     1      -1.587   3.798   1.998  0.00  0.00    +0.051 A 
BRANCH   4   8
ATOM      8  C   UNL     1       1.817   1.408   1.093  0.00  0.00    +0.000 A 
ATOM      9  C   UNL     1       2.311   1.337  -0.212  0.00  0.00    +0.011 A 
ATOM     10  C   UNL     1       3.420   0.545  -0.453  0.00  0.00    +0.020 A 
ATOM     11  C   UNL     1       3.999  -0.145   0.597  0.00  0.00    +0.111 A 
ATOM     12  N   UNL     1       3.510  -0.059   1.819  0.00  0.00    -0.263 NA
ATOM     13  C   UNL     1       2.460   0.687   2.097  0.00  0.00    +0.119 A 
ENDBRANCH   4   8
BRANCH   2  14
ATOM     14  O   UNL     1      -1.730   4.445  -0.287  0.00  0.00    -0.492 OA
BRANCH  14  16
ATOM     15  C   UNL     1      -2.011   5.196  -2.567  0.00  0.00    +0.048 C 
ATOM     16  C   UNL     1      -1.186   4.339  -1.604  0.00  0.00    +0.225 C 
ENDBRANCH  14  16
ENDBRANCH   2  14
ENDBRANCH   1   6
BRANCH   1  17
ATOM     17  C   UNL     1      -2.670   2.233   4.552  0.00  0.00    +0.380 C 
ATOM     18  O   UNL     1      -3.744   2.682   4.875  0.00  0.00    -0.244 OA
ATOM     19  OXT UNL     1      -2.534   0.918   4.319  0.00  0.00    -0.244 OA
ENDBRANCH   1  17
BRANCH   1  20
ATOM     20  N   UNL     1      -1.886   4.524   4.718  0.00  0.00    -0.328 N 
ATOM     21  H   UNL     1      -2.142   5.125   4.001  0.00  0.00    +0.147 HD
BRANCH  20  22
ATOM     22  C   UNL     1      -1.904   4.967   6.038  0.00  0.00    +0.028 A 
ATOM     23  C   UNL     1      -1.542   4.102   7.066  0.00  0.00    +0.023 A 
ATOM     24  C   UNL     1      -1.553   4.540   8.372  0.00  0.00    +0.013 A 
ATOM     25  C   UNL     1      -1.939   5.849   8.665  0.00  0.00    +0.012 A 
ATOM     26  C   UNL     1      -2.307   6.714   7.631  0.00  0.00    +0.013 A 
ATOM     27  C   UNL     1      -2.288   6.273   6.327  0.00  0.00    +0.023 A 
BRANCH  25  28
ATOM     28  C   UNL     1      -1.957   6.320  10.066  0.00  0.00    +0.094 C 
ATOM     29  N   UNL     1      -1.594   5.466  11.085  0.00  0.00    -0.345 N 
ATOM     30  H   UNL     1      -2.361   7.945  11.226  0.00  0.00    +0.157 HD
ATOM     31  H   UNL     1      -1.326   4.556  10.882  0.00  0.00    +0.144 HD
ATOM     32  H   UNL     1      -1.606   5.775  12.004  0.00  0.00    +0.144 HD
ATOM     33  N   UNL     1      -2.332   7.574  10.276  0.00  0.00    -0.387 N 
ATOM     34  H   UNL     1      -2.594   8.171   9.483  0.00  0.00    +0.157 HD
ENDBRANCH  25  28
ENDBRANCH  20  22
ENDBRANCH   1  20
TORSDOF 8
