REMARK  Name = ZINC40017026
REMARK  8 active torsions:
REMARK  status: ('A' for Active; 'I' for Inactive)
REMARK    1  A    between atoms: C_1  and  C_2
REMARK    2  A    between atoms: C_4  and  C_12
REMARK    3  A    between atoms: C_12  and  C_14
REMARK    4  A    between atoms: C_14  and  C_16
REMARK    5  A    between atoms: C_14  and  O_17
REMARK    6  A    between atoms: O_17  and  C_18
REMARK    7  A    between atoms: C_18  and  C_20
REMARK    8  A    between atoms: C_23  and  N_26
REMARK                            x       y       z     vdW  Elec       q    Type
REMARK                         _______ _______ _______ _____ _____    ______ ____
ROOT
ATOM      1  O   UNL     1      -4.693  -0.150  -1.513  0.00  0.00    -0.450 OA
ENDROOT
BRANCH   1   2
ATOM      2  C   UNL     1      -3.751  -0.775  -0.640  0.00  0.00    +0.244 C 
ATOM      3  C   UNL     1      -3.518  -2.219  -1.090  0.00  0.00    +0.061 C 
BRANCH   2   4
ATOM      4  C   UNL     1      -2.448  -0.020  -0.682  0.00  0.00    +0.202 C 
ATOM      5  O   UNL     1      -2.237   0.778  -1.572  0.00  0.00    -0.288 OA
BRANCH   4   8
ATOM      6  C   UNL     1      -0.283   1.936   0.589  0.00  0.00    +0.035 C 
ATOM      7  C   UNL     1      -0.117   0.423   0.430  0.00  0.00    +0.111 C 
ATOM      8  C   UNL     1      -1.472  -0.240   0.314  0.00  0.00    +0.030 C 
ATOM      9  C   UNL     1      -1.554  -1.108   1.388  0.00  0.00    +0.007 A 
ATOM     10  C   UNL     1      -2.558  -2.002   1.828  0.00  0.00    +0.010 A 
ATOM     11  C   UNL     1      -2.367  -2.747   2.940  0.00  0.00    +0.001 A 
ATOM     12  C   UNL     1      -1.190  -2.676   3.702  0.00  0.00    +0.002 A 
ATOM     13  C   UNL     1      -0.171  -1.855   3.368  0.00  0.00    +0.026 A 
ATOM     14  C   UNL     1      -0.297  -1.009   2.169  0.00  0.00    +0.043 A 
ATOM     15  N   UNL     1       0.513  -0.144   1.626  0.00  0.00    -0.377 N 
ATOM     16  H   UNL     1       1.394   0.088   1.960  0.00  0.00    +0.160 HD
ENDBRANCH   4   8
ENDBRANCH   2   4
ENDBRANCH   1   2
BRANCH   1  17
ATOM     17  C   UNL     1      -5.995  -0.247  -1.180  0.00  0.00    +0.340 C 
ATOM     18  O   UNL     1      -6.322  -0.847  -0.176  0.00  0.00    -0.245 OA
BRANCH  17  19
ATOM     19  C   UNL     1      -7.023   0.374  -2.035  0.00  0.00    +0.059 A 
ATOM     20  C   UNL     1      -6.649   1.060  -3.195  0.00  0.00    +0.017 A 
ATOM     21  C   UNL     1      -7.612   1.639  -3.991  0.00  0.00    +0.024 A 
ATOM     22  C   UNL     1      -8.955   1.541  -3.642  0.00  0.00    +0.035 A 
ATOM     23  C   UNL     1      -9.331   0.860  -2.489  0.00  0.00    +0.024 A 
ATOM     24  C   UNL     1      -8.374   0.274  -1.691  0.00  0.00    +0.017 A 
BRANCH  22  25
ATOM     25  N   UNL     1      -9.928   2.128  -4.451  0.00  0.00    -0.270 N 
ATOM     26  C   UNL     1      -9.752   2.180  -5.786  0.00  0.00    +0.301 C 
ATOM     27  O   UNL     1      -8.795   1.630  -6.295  0.00  0.00    -0.253 OA
ATOM     28  N   UNL     1     -10.638   2.841  -6.557  0.00  0.00    -0.313 N 
ATOM     29  H   UNL     1     -10.730   2.500  -4.052  0.00  0.00    +0.156 HD
ATOM     30  H   UNL     1     -11.402   3.280  -6.151  0.00  0.00    +0.146 HD
ATOM     31  H   UNL     1     -10.512   2.878  -7.518  0.00  0.00    +0.146 HD
ENDBRANCH  22  25
ENDBRANCH  17  19
ENDBRANCH   1  17
TORSDOF 6
