REMARK  Name = ZINC37928792
REMARK  10 active torsions:
REMARK  status: ('A' for Active; 'I' for Inactive)
REMARK    1  A    between atoms: C_1  and  C_2
REMARK    2  A    between atoms: C_2  and  N_3
REMARK    3  A    between atoms: N_3  and  C_4
REMARK    4  A    between atoms: N_3  and  C_6
REMARK    5  A    between atoms: C_4  and  C_5
REMARK    6  A    between atoms: C_6  and  C_7
REMARK    7  A    between atoms: C_7  and  N_8
REMARK    8  A    between atoms: N_8  and  S_9
REMARK    9  A    between atoms: S_9  and  C_12
REMARK   10  A    between atoms: C_17  and  N_18
REMARK                            x       y       z     vdW  Elec       q    Type
REMARK                         _______ _______ _______ _____ _____    ______ ____
ROOT
ATOM      1  S   UNL     1       3.543  -4.655   3.888  0.00  0.00    +0.060 S 
ATOM      2  O   UNL     1       3.846  -6.041   3.810  0.00  0.00    -0.153 OA
ATOM      3  O   UNL     1       4.551  -3.653   3.876  0.00  0.00    -0.153 OA
ENDROOT
BRANCH   1   4
ATOM      4  C   UNL     1       2.619  -4.423   5.370  0.00  0.00    +0.127 A 
ATOM      5  C   UNL     1       2.988  -3.440   6.268  0.00  0.00    +0.045 A 
ATOM      6  C   UNL     1       2.264  -3.258   7.432  0.00  0.00    +0.020 A 
ATOM      7  C   UNL     1       1.168  -4.059   7.701  0.00  0.00    +0.017 A 
ATOM      8  C   UNL     1       0.795  -5.043   6.807  0.00  0.00    +0.026 A 
ATOM      9  C   UNL     1       1.517  -5.224   5.634  0.00  0.00    +0.051 A 
ATOM     10 BR   UNL     1       2.773  -1.912   8.660  0.00  0.00    -0.050 Br
BRANCH   9  11
ATOM     11  N   UNL     1       1.137  -6.215   4.725  0.00  0.00    -0.356 N 
ATOM     12  H   UNL     1       1.680  -6.386   3.940  0.00  0.00    +0.142 HD
ATOM     13  H   UNL     1       0.331  -6.732   4.879  0.00  0.00    +0.142 HD
ENDBRANCH   9  11
ENDBRANCH   1   4
BRANCH   1  14
ATOM     14  N   UNL     1       2.529  -4.321   2.622  0.00  0.00    -0.192 NA
ATOM     15  H   UNL     1       2.288  -5.021   1.995  0.00  0.00    +0.148 HD
BRANCH  14  16
ATOM     16  C   UNL     1       1.996  -2.967   2.448  0.00  0.00    +0.087 C 
BRANCH  16  17
ATOM     17  C   UNL     1       1.454  -2.811   1.026  0.00  0.00    -0.062 C 
BRANCH  17  18
ATOM     18  N   UNL     1       0.825  -1.492   0.883  0.00  0.00    +0.380 N 
ATOM     19  H   UNL     1       0.128  -1.371   1.603  0.00  0.00    -0.082 HD
BRANCH  18  21
ATOM     20  C   UNL     1       1.177   0.930   0.988  0.00  0.00    -0.017 C 
ATOM     21  C   UNL     1       1.847  -0.445   1.012  0.00  0.00    -0.082 C 
ENDBRANCH  18  21
BRANCH  18  22
ATOM     22  C   UNL     1       0.186  -1.393  -0.436  0.00  0.00    -0.082 C 
ATOM     23  C   UNL     1      -0.980  -2.380  -0.513  0.00  0.00    -0.017 C 
ENDBRANCH  18  22
ENDBRANCH  17  18
ENDBRANCH  16  17
ENDBRANCH  14  16
ENDBRANCH   1  14
TORSDOF 8
