REMARK  Name = ZINC39529966
REMARK  8 active torsions:
REMARK  status: ('A' for Active; 'I' for Inactive)
REMARK    1  A    between atoms: C_1  and  S_2
REMARK    2  A    between atoms: S_2  and  C_3
REMARK    3  A    between atoms: C_6  and  N_16
REMARK    4  A    between atoms: C_7  and  C_9
REMARK    5  A    between atoms: C_14  and  O_15
REMARK    6  A    between atoms: C_20  and  S_23
REMARK    7  A    between atoms: S_23  and  O_26
REMARK    8  A    between atoms: O_26  and  C_27
REMARK                            x       y       z     vdW  Elec       q    Type
REMARK                         _______ _______ _______ _____ _____    ______ ____
ROOT
ATOM      1  N   UNL     1      -5.239  -1.511  -0.002  0.00  0.00    -0.331 N 
ATOM      2  C   UNL     1      -5.861  -1.556   1.330  0.00  0.00    +0.086 C 
ATOM      3  C   UNL     1      -6.845  -2.731   1.366  0.00  0.00    -0.061 C 
ATOM      4  N   UNL     1      -7.797  -2.605   0.256  0.00  0.00    +0.398 N 
ATOM      5  C   UNL     1      -7.090  -2.722  -1.026  0.00  0.00    +0.133 C 
ATOM      6  C   UNL     1      -6.119  -1.541  -1.180  0.00  0.00    +0.115 C 
ATOM      7  H   UNL     1      -8.490  -3.336   0.324  0.00  0.00    -0.083 HD
ATOM      8  H   UNL     1      -8.254  -1.707   0.306  0.00  0.00    -0.083 HD
ENDROOT
BRANCH   1  12
ATOM      9  C   UNL     1      -1.090  -1.286  -0.427  0.00  0.00    +0.008 A 
ATOM     10  C   UNL     1      -1.709  -2.515  -0.225  0.00  0.00    +0.016 A 
ATOM     11  C   UNL     1      -3.081  -2.588  -0.085  0.00  0.00    +0.025 A 
ATOM     12  C   UNL     1      -3.849  -1.435  -0.144  0.00  0.00    +0.038 A 
ATOM     13  C   UNL     1      -3.232  -0.195  -0.347  0.00  0.00    +0.008 A 
ATOM     14  C   UNL     1      -1.848  -0.126  -0.483  0.00  0.00    +0.025 A 
BRANCH  13  15
ATOM     15  C   UNL     1      -4.049   1.041  -0.411  0.00  0.00    +0.025 A 
ATOM     16  C   UNL     1      -4.164   1.742  -1.610  0.00  0.00    +0.012 A 
ATOM     17  C   UNL     1      -4.925   2.891  -1.665  0.00  0.00    +0.001 A 
ATOM     18  C   UNL     1      -5.576   3.351  -0.534  0.00  0.00    +0.004 A 
ATOM     19  C   UNL     1      -5.468   2.664   0.660  0.00  0.00    +0.046 A 
ATOM     20  C   UNL     1      -4.712   1.505   0.729  0.00  0.00    +0.125 A 
BRANCH  20  21
ATOM     21  O   UNL     1      -4.611   0.825   1.901  0.00  0.00    -0.506 OA
ATOM     22  H   UNL     1      -3.872   1.108   2.457  0.00  0.00    +0.292 HD
ENDBRANCH  20  21
ENDBRANCH  13  15
BRANCH   9  24
ATOM     23  C   UNL     1       1.200  -2.928  -0.465  0.00  0.00    +0.090 C 
ATOM     24  S   UNL     1       0.661  -1.202  -0.605  0.00  0.00    -0.129 S 
ENDBRANCH   9  24
ENDBRANCH   1  12
BRANCH   5  25
ATOM     25  S   UNL     1      -8.291  -2.696  -2.384  0.00  0.00    +0.109 S 
ATOM     26  O   UNL     1      -9.129  -1.553  -2.276  0.00  0.00    -0.138 OA
ATOM     27  O   UNL     1      -7.648  -3.010  -3.612  0.00  0.00    -0.138 OA
BRANCH  25  28
ATOM     28  O   UNL     1      -9.211  -3.879  -2.115  0.00  0.00    -0.347 OA
BRANCH  28  29
ATOM     29  C   UNL     1      -8.654  -5.087  -2.393  0.00  0.00    +0.156 A 
ATOM     30  C   UNL     1      -8.705  -5.595  -3.683  0.00  0.00    +0.048 A 
ATOM     31  C   UNL     1      -8.138  -6.823  -3.963  0.00  0.00    +0.004 A 
ATOM     32  C   UNL     1      -7.520  -7.546  -2.959  0.00  0.00    +0.000 A 
ATOM     33  C   UNL     1      -7.469  -7.042  -1.673  0.00  0.00    +0.004 A 
ATOM     34  C   UNL     1      -8.029  -5.811  -1.389  0.00  0.00    +0.048 A 
ENDBRANCH  28  29
ENDBRANCH  25  28
ENDBRANCH   5  25
TORSDOF 7
