REMARK  Name = ZINC48843977
REMARK  6 active torsions:
REMARK  status: ('A' for Active; 'I' for Inactive)
REMARK    1  A    between atoms: C_4  and  N_10
REMARK    2  A    between atoms: C_6  and  N_9
REMARK    3  A    between atoms: N_13  and  C_14
REMARK    4  A    between atoms: N_13  and  C_18
REMARK    5  A    between atoms: C_14  and  C_15
REMARK    6  A    between atoms: C_18  and  C_19
REMARK                            x       y       z     vdW  Elec       q    Type
REMARK                         _______ _______ _______ _____ _____    ______ ____
ROOT
ATOM      1  N   UNL     1       2.863  -0.454   0.025  0.00  0.00    -0.298 N 
ATOM      2  C   UNL     1       4.206  -0.564   0.014  0.00  0.00    +0.303 C 
ATOM      3  O   UNL     1       4.849  -0.272   1.004  0.00  0.00    -0.253 OA
ATOM      4  N   UNL     1       4.837  -0.999  -1.095  0.00  0.00    -0.275 N 
ATOM      5  H   UNL     1       2.350  -0.687  -0.764  0.00  0.00    +0.150 HD
ENDROOT
BRANCH   1   9
ATOM      6  C   UNL     1      -0.019   1.526   0.010  0.00  0.00    -0.001 C 
ATOM      7  C   UNL     1       1.417   2.055  -0.000  0.00  0.00    +0.002 C 
ATOM      8  C   UNL     1       2.157   1.548   1.239  0.00  0.00    +0.021 C 
ATOM      9  C   UNL     1       2.178   0.019   1.231  0.00  0.00    +0.060 C 
ATOM     10  C   UNL     1       0.742  -0.511   1.242  0.00  0.00    -0.054 C 
ATOM     11  C   UNL     1       0.002  -0.004   0.002  0.00  0.00    -0.014 C 
BRANCH  10  12
ATOM     12  N   UNL     1       0.762  -1.980   1.234  0.00  0.00    +0.381 N 
ATOM     13  H   UNL     1       1.250  -2.314   2.051  0.00  0.00    -0.090 HD
ATOM     14  H   UNL     1      -0.185  -2.329   1.241  0.00  0.00    -0.090 HD
ATOM     15  H   UNL     1       1.234  -2.305   0.403  0.00  0.00    -0.090 HD
ENDBRANCH  10  12
ENDBRANCH   1   9
BRANCH   4  16
ATOM     16  C   UNL     1       6.297  -1.119  -1.108  0.00  0.00    +0.113 C 
BRANCH  16  17
ATOM     17  C   UNL     1       6.698  -2.520  -0.641  0.00  0.00    +0.006 C 
ATOM     18  C   UNL     1       7.507  -2.628   0.653  0.00  0.00    +0.005 C 
ATOM     19  C   UNL     1       8.183  -2.885  -0.695  0.00  0.00    +0.005 C 
ENDBRANCH  16  17
ENDBRANCH   4  16
BRANCH   4  20
ATOM     20  C   UNL     1       4.063  -1.351  -2.288  0.00  0.00    +0.234 C 
BRANCH  20  21
ATOM     21  C   UNL     1       3.903  -0.134  -3.161  0.00  0.00    +0.373 C 
ATOM     22  O   UNL     1       4.391   0.930  -2.819  0.00  0.00    -0.245 OA
ATOM     23  O   UNL     1       3.287  -0.212  -4.210  0.00  0.00    -0.245 OA
ENDBRANCH  20  21
ENDBRANCH   4  20
TORSDOF 6
