REMARK  Name = ZINC05069838
REMARK  5 active torsions:
REMARK  status: ('A' for Active; 'I' for Inactive)
REMARK    1  A    between atoms: C_1  and  C_2
REMARK    2  A    between atoms: C_11  and  C_14
REMARK    3  A    between atoms: C_14  and  C_15
REMARK    4  A    between atoms: N_17  and  C_18
REMARK    5  A    between atoms: C_24  and  C_26
REMARK                            x       y       z     vdW  Elec       q    Type
REMARK                         _______ _______ _______ _____ _____    ______ ____
ROOT
ATOM      1  C   UNL     1      -0.018   1.503   0.010  0.00  0.00    +0.044 C 
ATOM      2  C   UNL     1       0.002  -0.004   0.002  0.00  0.00    -0.048 A 
ATOM      3  C   UNL     1       0.006  -0.687  -1.200  0.00  0.00    +0.007 A 
ATOM      4  C   UNL     1       0.019  -2.070  -1.216  0.00  0.00    +0.048 A 
ATOM      5  C   UNL     1       0.031  -2.773  -0.024  0.00  0.00    +0.143 A 
ATOM      6  C   UNL     1       0.038  -2.085   1.188  0.00  0.00    +0.076 A 
ATOM      7  C   UNL     1       0.023  -0.700   1.197  0.00  0.00    +0.030 A 
ATOM      8  N   UNL     1       0.086  -2.805   2.389  0.00  0.00    -0.280 N 
ATOM      9  C   UNL     1       0.342  -4.129   2.355  0.00  0.00    +0.259 C 
ATOM     10  O   UNL     1       0.279  -4.788   3.371  0.00  0.00    -0.271 OA
ATOM     11  C   UNL     1       0.706  -4.787   1.048  0.00  0.00    +0.268 C 
ATOM     12  O   UNL     1       0.025  -4.133  -0.026  0.00  0.00    -0.477 OA
ATOM     13  H   UNL     1      -0.063  -2.356   3.236  0.00  0.00    +0.155 HD
ENDROOT
BRANCH  11  14
ATOM     14  C   UNL     1       2.217  -4.683   0.829  0.00  0.00    +0.150 C 
BRANCH  14  15
ATOM     15  C   UNL     1       2.598  -5.445  -0.414  0.00  0.00    +0.217 C 
ATOM     16  O   UNL     1       1.746  -6.015  -1.061  0.00  0.00    -0.276 OA
ATOM     17  N   UNL     1       3.887  -5.493  -0.806  0.00  0.00    -0.312 N 
ATOM     18  H   UNL     1       4.569  -5.037  -0.288  0.00  0.00    +0.149 HD
BRANCH  17  19
ATOM     19  C   UNL     1       4.258  -6.234  -2.014  0.00  0.00    +0.076 C 
ATOM     20  C   UNL     1       4.071  -5.337  -3.240  0.00  0.00    +0.022 C 
ATOM     21  C   UNL     1       4.458  -6.111  -4.502  0.00  0.00    +0.002 C 
ATOM     22  C   UNL     1       5.923  -6.544  -4.405  0.00  0.00    +0.000 C 
ATOM     23  C   UNL     1       6.109  -7.441  -3.179  0.00  0.00    +0.005 C 
ATOM     24  C   UNL     1       5.722  -6.667  -1.917  0.00  0.00    +0.006 C 
ATOM     25  C   UNL     1       5.909  -7.564  -0.692  0.00  0.00    +0.009 C 
ENDBRANCH  17  19
ENDBRANCH  14  15
ENDBRANCH  11  14
TORSDOF 3
