REMARK  Name = ZINC63948113
REMARK  7 active torsions:
REMARK  status: ('A' for Active; 'I' for Inactive)
REMARK    1  A    between atoms: C_1  and  C_2
REMARK    2  A    between atoms: C_8  and  C_11
REMARK    3  A    between atoms: C_11  and  C_12
REMARK    4  A    between atoms: C_12  and  N_13
REMARK    5  A    between atoms: C_15  and  C_20
REMARK    6  A    between atoms: N_22  and  C_23
REMARK    7  A    between atoms: C_27  and  C_30
REMARK                            x       y       z     vdW  Elec       q    Type
REMARK                         _______ _______ _______ _____ _____    ______ ____
ROOT
ATOM      1  N   UNL     1      -1.377  -2.600   5.613  0.00  0.00    -0.300 N 
ATOM      2  C   UNL     1      -1.248  -3.644   6.637  0.00  0.00    +0.121 C 
ATOM      3  C   UNL     1      -0.861  -2.901   7.936  0.00  0.00    +0.101 C 
ATOM      4  C   UNL     1      -1.441  -1.492   7.677  0.00  0.00    +0.110 C 
ATOM      5  C   UNL     1      -1.487  -1.381   6.169  0.00  0.00    +0.216 C 
ATOM      6  O   UNL     1      -1.608  -0.345   5.552  0.00  0.00    -0.276 OA
ENDROOT
BRANCH   3   7
ATOM      7  C   UNL     1      -1.510  -3.541   9.136  0.00  0.00    +0.220 C 
ATOM      8  O   UNL     1      -2.226  -4.509   8.994  0.00  0.00    -0.275 OA
ATOM      9  N   UNL     1      -1.294  -3.036  10.367  0.00  0.00    -0.290 N 
ATOM     10  H   UNL     1      -0.722  -2.262  10.480  0.00  0.00    +0.151 HD
BRANCH   9  11
ATOM     11  C   UNL     1      -1.925  -3.658  11.534  0.00  0.00    +0.216 C 
ATOM     12  N   UNL     1      -1.767  -2.815  12.759  0.00  0.00    -0.227 NA
ATOM     13  N   UNL     1      -1.876  -3.590  13.977  0.00  0.00    -0.242 NA
ATOM     14  C   UNL     1      -1.378  -4.984  13.896  0.00  0.00    +0.126 C 
ATOM     15  S   UNL     1      -0.989  -5.149  12.100  0.00  0.00    -0.102 S 
ATOM     16  C   UNL     1      -0.120  -5.165  14.748  0.00  0.00    +0.037 C 
ATOM     17  H   UNL     1      -0.899  -2.300  12.734  0.00  0.00    +0.143 HD
ATOM     18  H   UNL     1      -1.459  -3.102  14.755  0.00  0.00    +0.142 HD
ENDBRANCH   9  11
ENDBRANCH   3   7
BRANCH   1  19
ATOM     19  C   UNL     1      -1.379  -2.854   4.170  0.00  0.00    +0.112 C 
BRANCH  19  20
ATOM     20  C   UNL     1       0.055  -2.799   3.641  0.00  0.00    +0.052 C 
BRANCH  20  28
ATOM     21  C   UNL     1      -0.018   1.503   0.010  0.00  0.00    +0.044 C 
ATOM     22  C   UNL     1       0.002  -0.004   0.002  0.00  0.00    -0.050 A 
ATOM     23  C   UNL     1       0.005  -0.680  -1.226  0.00  0.00    +0.005 A 
ATOM     24  C   UNL     1       0.023  -2.026  -1.317  0.00  0.00    +0.026 A 
ATOM     25  C   UNL     1       0.039  -2.826  -0.141  0.00  0.00    +0.043 A 
ATOM     26  N   UNL     1       0.057  -4.126   0.030  0.00  0.00    -0.380 N 
ATOM     27  C   UNL     1       0.067  -4.408   1.470  0.00  0.00    +0.144 C 
ATOM     28  C   UNL     1       0.052  -3.060   2.156  0.00  0.00    -0.040 C 
ATOM     29  C   UNL     1       0.036  -2.137   1.168  0.00  0.00    -0.001 A 
ATOM     30  C   UNL     1       0.022  -0.669   1.180  0.00  0.00    +0.013 A 
ATOM     31  H   UNL     1       0.062  -4.790  -0.677  0.00  0.00    +0.160 HD
ENDBRANCH  20  28
ENDBRANCH  19  20
ENDBRANCH   1  19
TORSDOF 5
