REMARK  Name = ZINC01107231
REMARK  6 active torsions:
REMARK  status: ('A' for Active; 'I' for Inactive)
REMARK    1  A    between atoms: C_4  and  C_7
REMARK    2  A    between atoms: C_8  and  C_24
REMARK    3  A    between atoms: C_10  and  S_13
REMARK    4  A    between atoms: S_13  and  C_14
REMARK    5  A    between atoms: C_14  and  C_15
REMARK    6  A    between atoms: C_18  and  N_21
REMARK                            x       y       z     vdW  Elec       q    Type
REMARK                         _______ _______ _______ _____ _____    ______ ____
ROOT
ATOM      1  C   UNL     1      -3.667  -1.393   0.029  0.00  0.00    +0.075 A 
ATOM      2  C   UNL     1      -3.880  -0.028   0.038  0.00  0.00    +0.098 A 
ATOM      3  N   UNL     1      -2.675   0.575   0.030  0.00  0.00    -0.221 NA
ATOM      4  C   UNL     1      -1.729  -0.334   0.017  0.00  0.00    +0.168 A 
ATOM      5  N   UNL     1      -2.296  -1.572   0.010  0.00  0.00    -0.332 N 
ATOM      6  H   UNL     1      -1.812  -2.447  -0.006  0.00  0.00    +0.168 HD
ENDROOT
BRANCH   1  10
ATOM      7  C   UNL     1      -6.631  -4.432   0.039  0.00  0.00    +0.000 A 
ATOM      8  C   UNL     1      -5.550  -4.527  -0.820  0.00  0.00    +0.001 A 
ATOM      9  C   UNL     1      -4.583  -3.543  -0.829  0.00  0.00    +0.010 A 
ATOM     10  C   UNL     1      -4.697  -2.449   0.032  0.00  0.00    +0.000 A 
ATOM     11  C   UNL     1      -5.788  -2.362   0.901  0.00  0.00    +0.010 A 
ATOM     12  C   UNL     1      -6.750  -3.351   0.894  0.00  0.00    +0.001 A 
ENDBRANCH   1  10
BRANCH   2  13
ATOM     13  C   UNL     1      -5.197   0.650   0.054  0.00  0.00    +0.002 A 
ATOM     14  C   UNL     1      -6.277   0.099  -0.635  0.00  0.00    +0.010 A 
ATOM     15  C   UNL     1      -7.502   0.734  -0.614  0.00  0.00    +0.001 A 
ATOM     16  C   UNL     1      -7.657   1.920   0.082  0.00  0.00    +0.000 A 
ATOM     17  C   UNL     1      -6.589   2.474   0.764  0.00  0.00    +0.001 A 
ATOM     18  C   UNL     1      -5.360   1.846   0.753  0.00  0.00    +0.010 A 
ENDBRANCH   2  13
BRANCH   4  19
ATOM     19  S   UNL     1       0.002  -0.004   0.002  0.00  0.00    -0.083 S 
BRANCH  19  20
ATOM     20  C   UNL     1      -0.022   1.806   0.012  0.00  0.00    +0.112 C 
BRANCH  20  21
ATOM     21  C   UNL     1       1.391   2.327   0.001  0.00  0.00    -0.037 A 
ATOM     22  C   UNL     1       2.049   2.566   1.194  0.00  0.00    +0.007 A 
ATOM     23  C   UNL     1       3.348   3.040   1.184  0.00  0.00    +0.033 A 
ATOM     24  C   UNL     1       3.985   3.285  -0.018  0.00  0.00    +0.126 A 
ATOM     25  C   UNL     1       3.325   3.051  -1.210  0.00  0.00    +0.033 A 
ATOM     26  C   UNL     1       2.028   2.573  -1.201  0.00  0.00    +0.007 A 
BRANCH  24  27
ATOM     27  N   UNL     1       5.373   3.797  -0.029  0.00  0.00    +0.056 N 
ATOM     28  O   UNL     1       5.935   4.013  -1.088  0.00  0.00    -0.126 OA
ATOM     29  O   UNL     1       5.955   4.003   1.022  0.00  0.00    -0.126 OA
ENDBRANCH  24  27
ENDBRANCH  20  21
ENDBRANCH  19  20
ENDBRANCH   4  19
TORSDOF 6
