REMARK  Name = ZINC03280425
REMARK  5 active torsions:
REMARK  status: ('A' for Active; 'I' for Inactive)
REMARK    1  A    between atoms: C_3  and  C_21
REMARK    2  A    between atoms: C_5  and  C_11
REMARK    3  A    between atoms: C_16  and  O_17
REMARK    4  A    between atoms: O_17  and  C_18
REMARK    5  A    between atoms: N_23  and  C_24
REMARK                            x       y       z     vdW  Elec       q    Type
REMARK                         _______ _______ _______ _____ _____    ______ ____
ROOT
ATOM      1  C   UNL     1       0.570   8.594   1.010  0.00  0.00    +0.029 C 
ATOM      2  C   UNL     1      -0.612   8.011   1.069  0.00  0.00    +0.019 C 
ATOM      3  C   UNL     1      -1.256   7.403  -0.161  0.00  0.00    +0.144 C 
ATOM      4  C   UNL     1      -2.703   7.907  -0.225  0.00  0.00    +0.126 C 
ATOM      5  N   UNL     1      -3.343   7.713   1.077  0.00  0.00    -0.291 N 
ATOM      6  C   UNL     1      -2.661   7.766   2.229  0.00  0.00    +0.304 C 
ATOM      7  O   UNL     1      -3.271   7.665   3.276  0.00  0.00    -0.253 OA
ATOM      8  N   UNL     1      -1.325   7.926   2.270  0.00  0.00    -0.273 N 
ATOM      9  H   UNL     1      -4.297   7.539   1.107  0.00  0.00    +0.151 HD
ATOM     10  H   UNL     1      -0.863   7.981   3.121  0.00  0.00    +0.156 HD
ENDROOT
BRANCH   4  11
ATOM     11  C   UNL     1      -2.710   9.373  -0.574  0.00  0.00    +0.016 A 
ATOM     12  C   UNL     1      -2.772  10.322   0.428  0.00  0.00    +0.009 A 
ATOM     13  C   UNL     1      -2.777  11.668   0.109  0.00  0.00    +0.001 A 
ATOM     14  C   UNL     1      -2.720  12.067  -1.214  0.00  0.00    +0.004 A 
ATOM     15  C   UNL     1      -2.659  11.122  -2.220  0.00  0.00    +0.046 A 
ATOM     16  C   UNL     1      -2.648   9.771  -1.901  0.00  0.00    +0.132 A 
BRANCH  16  17
ATOM     17  O   UNL     1      -2.581   8.840  -2.889  0.00  0.00    -0.434 OA
BRANCH  17  18
ATOM     18  C   UNL     1      -2.520   9.322  -4.232  0.00  0.00    +0.541 C 
ATOM     19  F   UNL     1      -3.662  10.081  -4.508  0.00  0.00    -0.166 F 
ATOM     20  F   UNL     1      -1.381  10.119  -4.390  0.00  0.00    -0.166 F 
ENDBRANCH  17  18
ENDBRANCH  16  17
ENDBRANCH   4  11
BRANCH   3  21
ATOM     21  C   UNL     1      -1.242   5.900  -0.057  0.00  0.00    +0.228 C 
ATOM     22  O   UNL     1      -2.286   5.283  -0.051  0.00  0.00    -0.275 OA
ATOM     23  N   UNL     1      -0.069   5.242   0.031  0.00  0.00    -0.285 N 
ATOM     24  H   UNL     1       0.761   5.737   0.103  0.00  0.00    +0.155 HD
BRANCH  23  25
ATOM     25  C   UNL     1      -0.050   3.842   0.017  0.00  0.00    +0.033 A 
ATOM     26  C   UNL     1      -0.988   3.141  -0.728  0.00  0.00    +0.023 A 
ATOM     27  C   UNL     1      -0.966   1.760  -0.740  0.00  0.00    +0.002 A 
ATOM     28  C   UNL     1      -0.010   1.076  -0.011  0.00  0.00    +0.000 A 
ATOM     29  C   UNL     1       0.922   1.772   0.736  0.00  0.00    +0.002 A 
ATOM     30  C   UNL     1       0.908   3.153   0.748  0.00  0.00    +0.023 A 
ENDBRANCH  23  25
ENDBRANCH   3  21
TORSDOF 5
