REMARK  Name = ZINC16429802
REMARK  6 active torsions:
REMARK  status: ('A' for Active; 'I' for Inactive)
REMARK    1  A    between atoms: C_6  and  N_7
REMARK    2  A    between atoms: C_8  and  C_12
REMARK    3  A    between atoms: C_12  and  C_13
REMARK    4  A    between atoms: N_14  and  N_15
REMARK    5  A    between atoms: N_15  and  C_16
REMARK    6  A    between atoms: C_16  and  N_18
REMARK                            x       y       z     vdW  Elec       q    Type
REMARK                         _______ _______ _______ _____ _____    ______ ____
ROOT
ATOM      1  N   UNL     1      -1.984  -0.897   1.331  0.00  0.00    -0.197 N 
ATOM      2  C   UNL     1      -0.684  -0.544   1.231  0.00  0.00    +0.162 A 
ATOM      3  N   UNL     1      -0.144  -0.712   2.409  0.00  0.00    -0.113 NA
ATOM      4  N   UNL     1      -1.016  -1.138   3.251  0.00  0.00    -0.023 NA
ATOM      5  N   UNL     1      -2.160  -1.280   2.673  0.00  0.00    -0.039 NA
ENDROOT
BRANCH   1  11
ATOM      6  C   UNL     1      -4.223  -0.392   0.573  0.00  0.00    +0.029 A 
ATOM      7  C   UNL     1      -5.172  -0.377  -0.431  0.00  0.00    +0.017 A 
ATOM      8  C   UNL     1      -4.859  -0.861  -1.688  0.00  0.00    +0.018 A 
ATOM      9  C   UNL     1      -3.593  -1.357  -1.946  0.00  0.00    +0.017 A 
ATOM     10  C   UNL     1      -2.639  -1.370  -0.947  0.00  0.00    +0.029 A 
ATOM     11  C   UNL     1      -2.951  -0.885   0.315  0.00  0.00    +0.069 A 
ATOM     12 BR   UNL     1      -6.163  -0.846  -3.058  0.00  0.00    -0.050 Br
ENDBRANCH   1  11
BRANCH   2  13
ATOM     13  C   UNL     1       0.015  -0.055  -0.011  0.00  0.00    +0.127 C 
BRANCH  13  14
ATOM     14  C   UNL     1       0.027   1.452  -0.020  0.00  0.00    +0.111 C 
ATOM     15  N   UNL     1       1.139   2.083  -0.087  0.00  0.00    -0.193 NA
BRANCH  15  16
ATOM     16  N   UNL     1       1.150   3.484  -0.096  0.00  0.00    -0.219 N 
ATOM     17  H   UNL     1       0.315   3.976  -0.051  0.00  0.00    +0.176 HD
BRANCH  16  18
ATOM     18  C   UNL     1       2.321   4.148  -0.166  0.00  0.00    +0.147 C 
ATOM     19  S   UNL     1       2.334   5.860  -0.177  0.00  0.00    -0.017 S 
BRANCH  18  20
ATOM     20  N   UNL     1       3.481   3.465  -0.229  0.00  0.00    -0.339 N 
ATOM     21  H   UNL     1       3.473   2.495  -0.223  0.00  0.00    +0.144 HD
ATOM     22  H   UNL     1       4.323   3.943  -0.280  0.00  0.00    +0.144 HD
ENDBRANCH  18  20
ENDBRANCH  16  18
ENDBRANCH  15  16
ENDBRANCH  13  14
ENDBRANCH   2  13
TORSDOF 6
