REMARK  Name = ZINC63934201
REMARK  11 active torsions:
REMARK  status: ('A' for Active; 'I' for Inactive)
REMARK    1  A    between atoms: CE_1  and  SD_2
REMARK    2  A    between atoms: SD_2  and  CG_3
REMARK    3  A    between atoms: CG_3  and  CB_4
REMARK    4  A    between atoms: CB_4  and  CA_5
REMARK    5  A    between atoms: CA_5  and  C_7
REMARK    6  A    between atoms: CA_5  and  N_10
REMARK    7  A    between atoms: C_11  and  C_13
REMARK    8  A    between atoms: C_19  and  C_21
REMARK    9  A    between atoms: C_21  and  C_23
REMARK   10  A    between atoms: C_21  and  N_33
REMARK   11  A    between atoms: C_23  and  C_24
REMARK                            x       y       z     vdW  Elec       q    Type
REMARK                         _______ _______ _______ _____ _____    ______ ____
ROOT
ATOM      1  C   UNK A   0       0.696  -1.128  -6.467  0.00  0.00    +0.078 C 
ATOM      2  C   UNK A   0      -0.026   0.175  -6.115  0.00  0.00    +0.032 C 
ATOM      3  C   UNK A   0      -0.882   0.617  -7.306  0.00  0.00    +0.108 C 
ATOM      4  N   UNK A   0      -0.026   0.705  -8.497  0.00  0.00    -0.303 N 
ATOM      5  C   UNK A   0       0.782  -0.463  -8.873  0.00  0.00    +0.108 C 
ATOM      6  C   UNK A   0       1.619  -0.893  -7.665  0.00  0.00    +0.032 C 
ATOM      7  C   UNK A   0       0.017   1.835  -9.230  0.00  0.00    +0.201 C 
ATOM      8  O   UNK A   0      -0.655   2.792  -8.909  0.00  0.00    -0.277 OA
ENDROOT
BRANCH   1  10
ATOM      9  N   MET A   1       0.907  -1.853  -4.112  0.00  0.00    -0.302 N 
ATOM     10  C   UNK A   0       1.512  -1.584  -5.285  0.00  0.00    +0.217 C 
ATOM     11  O   UNK A   0       2.714  -1.710  -5.391  0.00  0.00    -0.275 OA
ATOM     12  H   MET A   1      -0.054  -1.753  -4.027  0.00  0.00    +0.150 HD
BRANCH   9  13
ATOM     13  CA  MET A   1       1.701  -2.297  -2.963  0.00  0.00    +0.187 C 
BRANCH  13  14
ATOM     14  C   MET A   1       1.900  -3.789  -3.037  0.00  0.00    +0.376 C 
ATOM     15  O   MET A   1       1.055  -4.492  -3.565  0.00  0.00    -0.244 OA
ATOM     16  OXT MET A   1       2.906  -4.293  -2.568  0.00  0.00    -0.244 OA
ENDBRANCH  13  14
BRANCH  13  17
ATOM     17  CB  MET A   1       0.966  -1.944  -1.668  0.00  0.00    +0.044 C 
BRANCH  17  18
ATOM     18  CG  MET A   1       0.873  -0.423  -1.533  0.00  0.00    +0.071 C 
BRANCH  18  20
ATOM     19  CE  MET A   1      -0.022   1.810   0.012  0.00  0.00    +0.084 C 
ATOM     20  SD  MET A   1       0.002  -0.004   0.002  0.00  0.00    -0.164 S 
ENDBRANCH  18  20
ENDBRANCH  17  18
ENDBRANCH  13  17
ENDBRANCH   9  13
ENDBRANCH   1  10
BRANCH   7  21
ATOM     21  C   UNK A   0       0.900   1.909 -10.449  0.00  0.00    +0.017 C 
BRANCH  21  22
ATOM     22  N   UNK A   0       0.438   2.996 -11.323  0.00  0.00    +0.386 N 
ATOM     23  H   UNK A   0       0.481   3.871 -10.823  0.00  0.00    -0.089 HD
ATOM     24  H   UNK A   0       1.029   3.045 -12.139  0.00  0.00    -0.089 HD
ATOM     25  H   UNK A   0      -0.513   2.817 -11.607  0.00  0.00    -0.089 HD
ENDBRANCH  21  22
BRANCH  21  26
ATOM     26  C   UNK A   0       2.343   2.180 -10.018  0.00  0.00    +0.026 C 
BRANCH  26  27
ATOM     27  C   UNK A   0       3.245   2.132 -11.224  0.00  0.00    -0.043 C 
ATOM     28  C   UNK A   0       3.659   3.181 -11.972  0.00  0.00    -0.001 A 
ATOM     29  C   UNK A   0       3.402   4.623 -11.890  0.00  0.00    +0.010 A 
ATOM     30  C   UNK A   0       3.969   5.444 -12.803  0.00  0.00    +0.001 A 
ATOM     31  C   UNK A   0       4.794   4.951 -13.824  0.00  0.00    +0.002 A 
ATOM     32  C   UNK A   0       5.076   3.639 -13.965  0.00  0.00    +0.026 A 
ATOM     33  C   UNK A   0       4.534   2.686 -13.059  0.00  0.00    +0.043 A 
ATOM     34  N   UNK A   0       4.656   1.383 -12.986  0.00  0.00    -0.380 N 
ATOM     35  C   UNK A   0       3.876   0.903 -11.839  0.00  0.00    +0.144 C 
ATOM     36  H   UNK A   0       5.178   0.829 -13.587  0.00  0.00    +0.160 HD
ENDBRANCH  26  27
ENDBRANCH  21  26
ENDBRANCH   7  21
TORSDOF 10
