REMARK  Name = ZINC40779839
REMARK  6 active torsions:
REMARK  status: ('A' for Active; 'I' for Inactive)
REMARK    1  A    between atoms: C_1  and  C_2
REMARK    2  A    between atoms: N_8  and  C_25
REMARK    3  A    between atoms: C_11  and  C_13
REMARK    4  A    between atoms: C_11  and  C_14
REMARK    5  A    between atoms: N_16  and  C_17
REMARK    6  A    between atoms: C_17  and  C_18
REMARK                            x       y       z     vdW  Elec       q    Type
REMARK                         _______ _______ _______ _____ _____    ______ ____
ROOT
ATOM      1  C   UNL     1      -0.018   1.503   0.010  0.00  0.00    +0.044 C 
ATOM      2  C   UNL     1       0.002  -0.004   0.002  0.00  0.00    -0.048 A 
ATOM      3  C   UNL     1       0.006  -0.687  -1.200  0.00  0.00    +0.007 A 
ATOM      4  C   UNL     1       0.019  -2.070  -1.216  0.00  0.00    +0.048 A 
ATOM      5  C   UNL     1       0.031  -2.773  -0.024  0.00  0.00    +0.144 A 
ATOM      6  C   UNL     1       0.038  -2.085   1.188  0.00  0.00    +0.078 A 
ATOM      7  C   UNL     1       0.023  -0.700   1.197  0.00  0.00    +0.030 A 
ATOM      8  N   UNL     1       0.086  -2.805   2.389  0.00  0.00    -0.268 N 
ATOM      9  C   UNL     1       0.342  -4.129   2.355  0.00  0.00    +0.273 C 
ATOM     10  O   UNL     1       0.279  -4.788   3.371  0.00  0.00    -0.270 OA
ATOM     11  C   UNL     1       0.706  -4.787   1.048  0.00  0.00    +0.258 C 
ATOM     12  O   UNL     1       0.025  -4.133  -0.026  0.00  0.00    -0.465 OA
ATOM     13  C   UNL     1       2.217  -4.684   0.830  0.00  0.00    +0.076 C 
ATOM     14  C   UNL     1      -0.140  -2.127   3.668  0.00  0.00    +0.138 C 
ENDROOT
BRANCH  11  15
ATOM     15  C   UNL     1       0.304  -6.238   1.087  0.00  0.00    +0.266 C 
ATOM     16  O   UNL     1       0.207  -6.812   2.151  0.00  0.00    -0.271 OA
ATOM     17  N   UNL     1       0.052  -6.899  -0.060  0.00  0.00    -0.307 N 
ATOM     18  H   UNL     1       0.129  -6.440  -0.911  0.00  0.00    +0.149 HD
BRANCH  17  19
ATOM     19  C   UNL     1      -0.339  -8.310  -0.022  0.00  0.00    +0.139 C 
BRANCH  19  20
ATOM     20  C   UNL     1      -0.561  -8.809  -1.427  0.00  0.00    -0.030 A 
ATOM     21  C   UNL     1      -1.813  -8.711  -2.005  0.00  0.00    +0.008 A 
ATOM     22  C   UNL     1      -2.018  -9.167  -3.293  0.00  0.00    +0.038 A 
ATOM     23  C   UNL     1      -0.968  -9.722  -4.005  0.00  0.00    +0.123 A 
ATOM     24  C   UNL     1       0.285  -9.819  -3.425  0.00  0.00    +0.038 A 
ATOM     25  C   UNL     1       0.489  -9.358  -2.139  0.00  0.00    +0.008 A 
ATOM     26  F   UNL     1      -1.167 -10.168  -5.265  0.00  0.00    -0.205 F 
ENDBRANCH  19  20
ENDBRANCH  17  19
ENDBRANCH  11  15
TORSDOF 3
