REMARK  Name = ZINC02774690
REMARK  3 active torsions:
REMARK  status: ('A' for Active; 'I' for Inactive)
REMARK    1  A    between atoms: C_2  and  C_15
REMARK    2  A    between atoms: C_3  and  C_12
REMARK    3  A    between atoms: C_4  and  N_9
REMARK                            x       y       z     vdW  Elec       q    Type
REMARK                         _______ _______ _______ _____ _____    ______ ____
ROOT
ATOM      1  C   UNL     1       1.167   2.097   0.002  0.00  0.00    +0.035 A 
ATOM      2  C   UNL     1       2.386   1.425  -0.013  0.00  0.00    +0.052 A 
ATOM      3  C   UNL     1       2.405   0.018  -0.021  0.00  0.00    +0.080 A 
ATOM      4  C   UNL     1       1.205  -0.687  -0.014  0.00  0.00    +0.159 A 
ATOM      5  C   UNL     1       0.002  -0.004   0.002  0.00  0.00    +0.090 A 
ATOM      6  C   UNL     1      -0.017   1.382   0.010  0.00  0.00    +0.062 A 
ATOM      7 CL   UNL     1      -1.534   2.225   0.021  0.00  0.00    -0.082 Cl
ATOM      8 CL   UNL     1      -1.492  -0.888   0.012  0.00  0.00    -0.080 Cl
ENDROOT
BRANCH   3   9
ATOM      9  C   UNL     1       3.693  -0.708  -0.038  0.00  0.00    +0.245 C 
ATOM     10  O   UNL     1       4.213  -1.000  -1.097  0.00  0.00    -0.270 OA
ATOM     11  N   UNL     1       4.292  -1.045   1.122  0.00  0.00    -0.325 N 
ATOM     12  H   UNL     1       3.877  -0.811   1.967  0.00  0.00    +0.145 HD
ATOM     13  H   UNL     1       5.137  -1.521   1.111  0.00  0.00    +0.145 HD
ENDBRANCH   3   9
BRANCH   2  14
ATOM     14  C   UNL     1       3.654   2.186  -0.021  0.00  0.00    +0.242 C 
ATOM     15  O   UNL     1       4.717   1.596  -0.034  0.00  0.00    -0.270 OA
ATOM     16  N   UNL     1       3.632   3.534  -0.013  0.00  0.00    -0.325 N 
ATOM     17  H   UNL     1       2.784   4.005  -0.002  0.00  0.00    +0.145 HD
ATOM     18  H   UNL     1       4.464   4.033  -0.018  0.00  0.00    +0.145 HD
ENDBRANCH   2  14
BRANCH   4  19
ATOM     19  N   UNL     1       1.216  -2.167  -0.022  0.00  0.00    +0.059 N 
ATOM     20  O   UNL     1       1.210  -2.770  -1.080  0.00  0.00    -0.126 OA
ATOM     21  O   UNL     1       1.231  -2.781   1.030  0.00  0.00    -0.126 OA
ENDBRANCH   4  19
TORSDOF 3
