REMARK  Name = ZINC12310005
REMARK  11 active torsions:
REMARK  status: ('A' for Active; 'I' for Inactive)
REMARK    1  A    between atoms: C_1  and  C_2
REMARK    2  A    between atoms: C_2  and  C_3
REMARK    3  A    between atoms: C_2  and  C_4
REMARK    4  A    between atoms: C_10  and  N_11
REMARK    5  A    between atoms: N_11  and  O_12
REMARK    6  A    between atoms: O_12  and  C_13
REMARK    7  A    between atoms: C_13  and  C_14
REMARK    8  A    between atoms: N_16  and  C_17
REMARK    9  A    between atoms: C_17  and  C_18
REMARK   10  A    between atoms: N_27  and  C_32
REMARK   11  A    between atoms: N_30  and  C_31
REMARK                            x       y       z     vdW  Elec       q    Type
REMARK                         _______ _______ _______ _____ _____    ______ ____
ROOT
ATOM      1  C   UNL     1       1.020   5.963  -0.733  0.00  0.00    -0.003 A 
ATOM      2  C   UNL     1       2.087   5.152  -0.653  0.00  0.00    +0.090 A 
ATOM      3  N   UNL     1       1.965   3.825  -0.341  0.00  0.00    -0.347 N 
ATOM      4  H   UNL     1       2.853   3.243  -0.056  0.00  0.00    +0.167 HD
ATOM      5  C   UNL     1       0.766   3.183  -0.371  0.00  0.00    +0.129 A 
ATOM      6  C   UNL     1      -0.413   3.921  -0.437  0.00  0.00    +0.106 A 
ATOM      7  C   UNL     1      -0.319   5.392  -0.482  0.00  0.00    +0.082 A 
ATOM      8  C   UNL     1      -1.655   3.246  -0.458  0.00  0.00    +0.268 A 
ATOM      9  O   UNL     1      -2.699   3.871  -0.511  0.00  0.00    -0.267 OA
ATOM     10  N   UNL     1      -1.662   1.896  -0.423  0.00  0.00    -0.263 N 
ATOM     11  C   UNL     1      -0.512   1.204  -0.359  0.00  0.00    +0.333 A 
ATOM     12  O   UNL     1      -0.555  -0.011  -0.326  0.00  0.00    -0.246 OA
ATOM     13  N   UNL     1       0.687   1.815  -0.335  0.00  0.00    -0.282 N 
ATOM     14  C   UNL     1       1.912   1.015  -0.269  0.00  0.00    +0.155 C 
ATOM     15  C   UNL     1      -2.939   1.177  -0.451  0.00  0.00    +0.157 C 
ENDROOT
BRANCH   1  17
ATOM     16  C   UNL     1       1.514   8.206   0.200  0.00  0.00    +0.012 C 
ATOM     17  C   UNL     1       1.184   7.422  -1.072  0.00  0.00    +0.016 C 
ATOM     18  C   UNL     1       2.321   7.586  -2.082  0.00  0.00    +0.012 C 
ENDBRANCH   1  17
BRANCH   7  19
ATOM     19  N   UNL     1      -1.374   6.157  -0.309  0.00  0.00    -0.264 N 
ATOM     20  H   UNL     1      -1.381   7.182  -0.707  0.00  0.00    +0.194 HD
BRANCH  19  21
ATOM     21  O   UNL     1      -2.501   5.660   0.390  0.00  0.00    -0.265 OA
BRANCH  21  22
ATOM     22  C   UNL     1      -3.573   6.598   0.503  0.00  0.00    +0.288 C 
BRANCH  22  23
ATOM     23  C   UNL     1      -4.713   5.967   1.260  0.00  0.00    +0.242 C 
ATOM     24  O   UNL     1      -4.617   4.827   1.663  0.00  0.00    -0.273 OA
ATOM     25  N   UNL     1      -5.840   6.670   1.490  0.00  0.00    -0.309 N 
ATOM     26  H   UNL     1      -5.928   7.704   1.125  0.00  0.00    +0.149 HD
BRANCH  25  27
ATOM     27  C   UNL     1      -6.949   6.057   2.226  0.00  0.00    +0.141 C 
BRANCH  27  28
ATOM     28  C   UNL     1      -8.080   7.046   2.346  0.00  0.00    -0.012 A 
ATOM     29  C   UNL     1      -8.260   7.751   3.521  0.00  0.00    +0.006 A 
ATOM     30  C   UNL     1      -9.294   8.662   3.629  0.00  0.00    +0.000 A 
ATOM     31  C   UNL     1     -10.156   8.859   2.566  0.00  0.00    +0.001 A 
ATOM     32  C   UNL     1      -9.980   8.151   1.392  0.00  0.00    +0.020 A 
ATOM     33  C   UNL     1      -8.941   7.243   1.282  0.00  0.00    +0.046 A 
ATOM     34 CL   UNL     1      -8.720   6.353  -0.192  0.00  0.00    -0.083 Cl
ENDBRANCH  27  28
ENDBRANCH  25  27
ENDBRANCH  22  23
ENDBRANCH  21  22
ENDBRANCH  19  21
ENDBRANCH   7  19
TORSDOF 7
