REMARK  Name = ZINC53114576
REMARK  6 active torsions:
REMARK  status: ('A' for Active; 'I' for Inactive)
REMARK    1  A    between atoms: C_1  and  C_2
REMARK    2  A    between atoms: C_7  and  C_9
REMARK    3  A    between atoms: C_7  and  N_11
REMARK    4  A    between atoms: C_9  and  O_10
REMARK    5  A    between atoms: C_13  and  C_19
REMARK    6  A    between atoms: C_15  and  N_18
REMARK                            x       y       z     vdW  Elec       q    Type
REMARK                         _______ _______ _______ _____ _____    ______ ____
ROOT
ATOM      1  N   UNL     1      -0.605  -2.553   1.229  0.00  0.00    -0.320 N 
ATOM      2  C   UNL     1      -1.489  -2.166   2.225  0.00  0.00    +0.137 A 
ATOM      3  C   UNL     1      -2.768  -2.743   2.284  0.00  0.00    +0.093 A 
ATOM      4  C   UNL     1      -3.645  -2.339   3.297  0.00  0.00    +0.046 A 
ATOM      5  C   UNL     1      -3.208  -1.380   4.203  0.00  0.00    +0.044 A 
ATOM      6  C   UNL     1      -1.928  -0.857   4.076  0.00  0.00    +0.135 A 
ATOM      7  N   UNL     1      -1.119  -1.260   3.115  0.00  0.00    -0.237 NA
ATOM      8  H   UNL     1      -0.882  -3.194   0.556  0.00  0.00    +0.148 HD
ENDROOT
BRANCH   1  14
ATOM      9  C   UNL     1      -0.131   1.360  -0.485  0.00  0.00    +0.007 C 
ATOM     10  C   UNL     1      -0.051  -0.157  -0.302  0.00  0.00    -0.012 C 
ATOM     11  C   UNL     1       0.724  -0.771  -1.470  0.00  0.00    +0.003 C 
ATOM     12  C   UNL     1       0.805  -2.288  -1.288  0.00  0.00    +0.002 C 
ATOM     13  C   UNL     1       1.524  -2.607   0.025  0.00  0.00    +0.028 C 
ATOM     14  C   UNL     1       0.749  -1.993   1.193  0.00  0.00    +0.057 C 
ATOM     15  C   UNL     1       0.668  -0.476   1.010  0.00  0.00    +0.031 C 
BRANCH  14  16
ATOM     16  C   UNL     1       1.468  -2.311   2.505  0.00  0.00    +0.181 C 
BRANCH  16  17
ATOM     17  O   UNL     1       1.432  -3.721   2.738  0.00  0.00    -0.393 OA
ATOM     18  H   UNL     1       1.870  -3.995   3.555  0.00  0.00    +0.209 HD
ENDBRANCH  16  17
ENDBRANCH  14  16
ENDBRANCH   1  14
BRANCH   5  19
ATOM     19  N   UNL     1      -4.051  -0.944   5.233  0.00  0.00    -0.357 N 
ATOM     20  H   UNL     1      -4.945  -1.312   5.317  0.00  0.00    +0.142 HD
ATOM     21  H   UNL     1      -3.741  -0.274   5.862  0.00  0.00    +0.142 HD
ENDBRANCH   5  19
BRANCH   3  22
ATOM     22  C   UNL     1      -3.168  -3.728   1.325  0.00  0.00    +0.103 C 
ATOM     23  N   UNL     1      -3.486  -4.509   0.563  0.00  0.00    -0.191 NA
ENDBRANCH   3  22
TORSDOF 5
