REMARK  Name = ZINC08663651
REMARK  6 active torsions:
REMARK  status: ('A' for Active; 'I' for Inactive)
REMARK    1  A    between atoms: C_1  and  C_2
REMARK    2  A    between atoms: C_14  and  C_24
REMARK    3  A    between atoms: C_15  and  N_16
REMARK    4  A    between atoms: N_17  and  C_18
REMARK    5  A    between atoms: N_26  and  C_27
REMARK    6  A    between atoms: C_27  and  C_28
REMARK                            x       y       z     vdW  Elec       q    Type
REMARK                         _______ _______ _______ _____ _____    ______ ____
ROOT
ATOM      1  C   UNL     1      -0.997   0.717  -0.261  0.00  0.00    +0.047 C 
ATOM      2  C   UNL     1      -0.853  -0.769  -0.054  0.00  0.00    -0.007 A 
ATOM      3  C   UNL     1      -0.980  -1.622  -1.107  0.00  0.00    +0.008 A 
ATOM      4  C   UNL     1      -0.844  -3.003  -0.902  0.00  0.00    +0.019 A 
ATOM      5  C   UNL     1      -0.589  -3.482   0.335  0.00  0.00    +0.096 A 
ATOM      6  N   UNL     1      -0.460  -2.637   1.399  0.00  0.00    -0.267 N 
ATOM      7  C   UNL     1      -0.580  -1.283   1.232  0.00  0.00    +0.145 A 
ATOM      8  N   UNL     1      -0.456  -0.430   2.242  0.00  0.00    -0.211 NA
ATOM      9  C   UNL     1      -0.198  -0.835   3.489  0.00  0.00    +0.150 A 
ATOM     10  C   UNL     1      -0.053  -2.226   3.743  0.00  0.00    +0.083 A 
ATOM     11  C   UNL     1      -0.204  -3.156   2.623  0.00  0.00    +0.268 A 
ATOM     12  O   UNL     1      -0.089  -4.357   2.784  0.00  0.00    -0.267 OA
ATOM     13  C   UNL     1       0.215  -2.670   5.035  0.00  0.00    +0.033 A 
ATOM     14  C   UNL     1       0.332  -1.713   6.046  0.00  0.00    +0.075 A 
ATOM     15  C   UNL     1       0.176  -0.346   5.723  0.00  0.00    +0.110 A 
ATOM     16  N   UNL     1      -0.078   0.042   4.488  0.00  0.00    -0.310 N 
ENDROOT
BRANCH  16  17
ATOM     17  C   UNL     1      -0.231   1.472   4.205  0.00  0.00    +0.090 C 
ATOM     18  C   UNL     1      -1.623   1.731   3.627  0.00  0.00    +0.025 C 
ATOM     19  C   UNL     1      -1.783   3.224   3.332  0.00  0.00    +0.002 C 
ATOM     20  C   UNL     1      -0.721   3.660   2.321  0.00  0.00    +0.000 C 
ATOM     21  C   UNL     1       0.671   3.401   2.900  0.00  0.00    +0.002 C 
ATOM     22  C   UNL     1       0.831   1.909   3.195  0.00  0.00    +0.025 C 
ENDBRANCH  16  17
BRANCH  14  23
ATOM     23  C   UNL     1       0.615  -2.123   7.431  0.00  0.00    +0.248 C 
ATOM     24  O   UNL     1       0.817  -1.282   8.285  0.00  0.00    -0.270 OA
ATOM     25  N   UNL     1       0.648  -3.432   7.752  0.00  0.00    -0.304 N 
ATOM     26  H   UNL     1       0.486  -4.103   7.071  0.00  0.00    +0.149 HD
BRANCH  25  27
ATOM     27  C   UNL     1       0.929  -3.840   9.131  0.00  0.00    +0.179 C 
BRANCH  27  28
ATOM     28  C   UNL     1       0.909  -5.344   9.223  0.00  0.00    +0.122 A 
ATOM     29  C   UNL     1       1.966  -6.157   9.051  0.00  0.00    +0.046 A 
ATOM     30  C   UNL     1       1.499  -7.480   9.225  0.00  0.00    +0.041 A 
ATOM     31  C   UNL     1       0.184  -7.396   9.494  0.00  0.00    +0.195 A 
ATOM     32  O   UNL     1      -0.167  -6.100   9.497  0.00  0.00    -0.466 OA
ENDBRANCH  27  28
ENDBRANCH  25  27
ENDBRANCH  14  23
BRANCH  15  33
ATOM     33  N   UNL     1       0.292   0.601   6.719  0.00  0.00    -0.344 N 
ATOM     34  H   UNL     1       0.630   1.485   6.510  0.00  0.00    +0.144 HD
ATOM     35  H   UNL     1       0.034   0.382   7.628  0.00  0.00    +0.144 HD
ENDBRANCH  15  33
TORSDOF 5
