REMARK  Name = ZINC26599801
REMARK  8 active torsions:
REMARK  status: ('A' for Active; 'I' for Inactive)
REMARK    1  A    between atoms: C_1  and  O_2
REMARK    2  A    between atoms: O_2  and  C_3
REMARK    3  A    between atoms: C_5  and  C_13
REMARK    4  A    between atoms: C_7  and  O_11
REMARK    5  A    between atoms: C_8  and  O_9
REMARK    6  A    between atoms: O_9  and  C_10
REMARK    7  A    between atoms: O_11  and  C_12
REMARK    8  A    between atoms: N_23  and  C_26
REMARK                            x       y       z     vdW  Elec       q    Type
REMARK                         _______ _______ _______ _____ _____    ______ ____
ROOT
ATOM      1  C   UNL     1       3.569   4.644   1.768  0.00  0.00    +0.108 C 
ATOM      2  C   UNL     1       3.944   6.069   1.295  0.00  0.00    +0.077 C 
ATOM      3  C   UNL     1       5.183   6.367   2.120  0.00  0.00    +0.038 C 
ATOM      4  C   UNL     1       6.087   7.387   1.891  0.00  0.00    +0.119 C 
ATOM      5  C   UNL     1       5.918   8.326   0.767  0.00  0.00    +0.278 C 
ATOM      6  O   UNL     1       4.974   8.227   0.006  0.00  0.00    -0.268 OA
ATOM      7  N   UNL     1       6.840   9.298   0.605  0.00  0.00    -0.123 NA
ATOM      8  C   UNL     1       7.885   9.418   1.435  0.00  0.00    +0.340 C 
ATOM      9  O   UNL     1       8.680  10.316   1.234  0.00  0.00    -0.250 OA
ATOM     10  N   UNL     1       8.100   8.601   2.476  0.00  0.00    -0.188 N 
ATOM     11  C   UNL     1       7.257   7.588   2.763  0.00  0.00    +0.265 C 
ATOM     12  O   UNL     1       7.460   6.857   3.714  0.00  0.00    -0.269 OA
ATOM     13  N   UNL     1       5.246   5.461   3.114  0.00  0.00    -0.283 N 
ATOM     14  N   UNL     1       4.194   4.594   3.111  0.00  0.00    -0.235 NA
ATOM     15  H   UNL     1       6.029   5.372   3.881  0.00  0.00    +0.166 HD
ATOM     16  H   UNL     1       3.527   4.831   3.829  0.00  0.00    +0.145 HD
ENDROOT
BRANCH  10  17
ATOM     17  C   UNL     1       9.224   8.808   3.288  0.00  0.00    +0.047 A 
ATOM     18  C   UNL     1      10.424   8.177   2.988  0.00  0.00    +0.024 A 
ATOM     19  C   UNL     1      11.531   8.386   3.787  0.00  0.00    +0.003 A 
ATOM     20  C   UNL     1      11.443   9.215   4.890  0.00  0.00    +0.020 A 
ATOM     21  C   UNL     1      10.248   9.841   5.195  0.00  0.00    +0.043 A 
ATOM     22  C   UNL     1       9.137   9.639   4.396  0.00  0.00    +0.044 A 
ATOM     23 CL   UNL     1      10.141  10.880   6.581  0.00  0.00    -0.083 Cl
ENDBRANCH  10  17
BRANCH   1  26
ATOM     24  C   UNL     1       0.021   4.830   3.055  0.00  0.00    +0.165 A 
ATOM     25  C   UNL     1       1.397   4.970   2.966  0.00  0.00    +0.055 A 
ATOM     26  C   UNL     1       2.074   4.483   1.864  0.00  0.00    -0.021 A 
ATOM     27  C   UNL     1       1.382   3.849   0.849  0.00  0.00    +0.055 A 
ATOM     28  C   UNL     1       0.006   3.700   0.932  0.00  0.00    +0.165 A 
ATOM     29  C   UNL     1      -0.678   4.188   2.039  0.00  0.00    +0.204 A 
BRANCH  24  31
ATOM     30  C   UNL     1       0.137   5.962   5.144  0.00  0.00    +0.277 C 
ATOM     31  O   UNL     1      -0.645   5.314   4.138  0.00  0.00    -0.491 OA
ENDBRANCH  24  31
BRANCH  29  32
ATOM     32  O   UNL     1      -2.028   4.044   2.125  0.00  0.00    -0.488 OA
ATOM     33  C   UNL     1      -2.515   2.858   2.756  0.00  0.00    +0.277 C 
ENDBRANCH  29  32
BRANCH  28  34
ATOM     34  O   UNL     1      -0.673   3.076  -0.067  0.00  0.00    -0.491 OA
ATOM     35  C   UNL     1       0.095   2.599  -1.174  0.00  0.00    +0.277 C 
ENDBRANCH  28  34
ENDBRANCH   1  26
TORSDOF 5
