REMARK  Name = ZINC44415364
REMARK  8 active torsions:
REMARK  status: ('A' for Active; 'I' for Inactive)
REMARK    1  A    between atoms: C_1  and  C_2
REMARK    2  A    between atoms: C_8  and  N_10
REMARK    3  A    between atoms: N_10  and  C_11
REMARK    4  A    between atoms: N_10  and  C_12
REMARK    5  A    between atoms: C_15  and  N_22
REMARK    6  A    between atoms: C_16  and  C_18
REMARK    7  A    between atoms: C_18  and  O_20
REMARK    8  A    between atoms: O_20  and  C_21
REMARK                            x       y       z     vdW  Elec       q    Type
REMARK                         _______ _______ _______ _____ _____    ______ ____
ROOT
ATOM      1  C   UNL     1       2.429   0.904   2.179  0.00  0.00    +0.031 A 
ATOM      2  C   UNL     1       1.420   1.186   3.095  0.00  0.00    +0.025 A 
ATOM      3  C   UNL     1       1.661   2.026   4.162  0.00  0.00    +0.025 A 
ATOM      4  C   UNL     1       2.916   2.598   4.329  0.00  0.00    +0.039 A 
ATOM      5  C   UNL     1       3.938   2.318   3.409  0.00  0.00    +0.081 A 
ATOM      6  C   UNL     1       3.686   1.460   2.334  0.00  0.00    +0.040 A 
ENDROOT
BRANCH   4   7
ATOM      7  N   UNL     1       3.159   3.446   5.405  0.00  0.00    -0.357 N 
ATOM      8  H   UNL     1       2.509   3.517   6.122  0.00  0.00    +0.142 HD
ATOM      9  H   UNL     1       3.977   3.965   5.439  0.00  0.00    +0.142 HD
ENDBRANCH   4   7
BRANCH   1  10
ATOM     10  N   UNL     1       2.172   0.050   1.099  0.00  0.00    -0.330 N 
ATOM     11  C   UNL     1       3.285  -0.571   0.376  0.00  0.00    +0.129 C 
BRANCH  10  18
ATOM     12  C   UNL     1       0.152   2.116   1.295  0.00  0.00    +0.009 C 
ATOM     13  C   UNL     1       0.146   1.067   0.181  0.00  0.00    +0.006 C 
ATOM     14  C   UNL     1       0.937   1.592  -1.019  0.00  0.00    +0.005 C 
ATOM     15  C   UNL     1       0.931   0.542  -2.132  0.00  0.00    +0.000 C 
ATOM     16  C   UNL     1       1.576  -0.747  -1.621  0.00  0.00    +0.002 C 
ATOM     17  C   UNL     1       0.786  -1.272  -0.421  0.00  0.00    +0.022 C 
ATOM     18  C   UNL     1       0.792  -0.223   0.693  0.00  0.00    +0.076 C 
ENDBRANCH  10  18
ENDBRANCH   1  10
BRANCH   5  19
ATOM     19  C   UNL     1       5.272   2.920   3.578  0.00  0.00    +0.341 C 
ATOM     20  O   UNL     1       5.530   3.552   4.584  0.00  0.00    -0.245 OA
BRANCH  19  21
ATOM     21  O   UNL     1       6.206   2.771   2.618  0.00  0.00    -0.464 OA
ATOM     22  C   UNL     1       7.477   3.381   2.848  0.00  0.00    +0.280 C 
ENDBRANCH  19  21
ENDBRANCH   5  19
TORSDOF 5
