REMARK  Name = ZINC42418351
REMARK  3 active torsions:
REMARK  status: ('A' for Active; 'I' for Inactive)
REMARK    1  A    between atoms: C_5  and  O_7
REMARK    2  A    between atoms: O_7  and  C_8
REMARK    3  A    between atoms: C_8  and  C_9
REMARK                            x       y       z     vdW  Elec       q    Type
REMARK                         _______ _______ _______ _____ _____    ______ ____
ROOT
ATOM      1  O   UNL     1       1.234  -2.039  -0.021  0.00  0.00    -0.487 OA
ENDROOT
BRANCH   1   6
ATOM      2  C   UNL     1      -0.017   1.377   0.010  0.00  0.00    +0.004 A 
ATOM      3  C   UNL     1       1.171   2.086   0.002  0.00  0.00    +0.001 A 
ATOM      4  C   UNL     1       2.379   1.415  -0.013  0.00  0.00    +0.018 A 
ATOM      5  C   UNL     1       2.404   0.033  -0.021  0.00  0.00    +0.055 A 
ATOM      6  C   UNL     1       1.213  -0.680  -0.013  0.00  0.00    +0.134 A 
ATOM      7  C   UNL     1       0.002  -0.004   0.002  0.00  0.00    +0.047 A 
ATOM      8  I   UNL     1       4.235  -0.983  -0.044  0.00  0.00    -0.040 I 
ENDBRANCH   1   6
BRANCH   1   9
ATOM      9  C   UNL     1      -0.029  -2.708  -0.013  0.00  0.00    +0.275 C 
BRANCH   9  10
ATOM     10  C   UNL     1       0.195  -4.221  -0.024  0.00  0.00    +0.232 C 
ATOM     11  C   UNL     1      -1.153  -4.979  -0.066  0.00  0.00    +0.155 C 
ATOM     12  N   UNL     1      -0.888  -6.137   0.810  0.00  0.00    -0.277 N 
ATOM     13  C   UNL     1       0.236  -5.878   1.503  0.00  0.00    +0.401 C 
ATOM     14  O   UNL     1       0.734  -6.657   2.293  0.00  0.00    -0.226 OA
ATOM     15  O   UNL     1       0.752  -4.668   1.228  0.00  0.00    -0.442 OA
ATOM     16  H   UNL     1      -1.427  -6.941   0.874  0.00  0.00    +0.152 HD
ENDBRANCH   9  10
ENDBRANCH   1   9
TORSDOF 3
