REMARK  Name = ZINC64414794
REMARK  7 active torsions:
REMARK  status: ('A' for Active; 'I' for Inactive)
REMARK    1  A    between atoms: C_1  and  C_2
REMARK    2  A    between atoms: C_2  and  O_3
REMARK    3  A    between atoms: O_3  and  C_4
REMARK    4  A    between atoms: C_11  and  N_14
REMARK    5  A    between atoms: C_15  and  C_17
REMARK    6  A    between atoms: N_20  and  C_23
REMARK    7  A    between atoms: C_23  and  C_24
REMARK                            x       y       z     vdW  Elec       q    Type
REMARK                         _______ _______ _______ _____ _____    ______ ____
ROOT
ATOM      1  C   UNL     1       5.158  -8.473   4.247  0.00  0.00    +0.077 C 
ATOM      2  C   UNL     1       5.990  -7.586   3.317  0.00  0.00    +0.028 C 
ATOM      3  C   UNL     1       7.187  -8.385   2.794  0.00  0.00    +0.085 C 
ATOM      4  N   UNL     1       8.004  -8.841   3.925  0.00  0.00    -0.299 NA
ATOM      5  C   UNL     1       7.240  -9.733   4.807  0.00  0.00    +0.085 C 
ATOM      6  C   UNL     1       6.045  -8.975   5.390  0.00  0.00    +0.028 C 
ENDROOT
BRANCH   1   8
ATOM      7  N   UNL     1       3.097  -7.131   3.986  0.00  0.00    -0.288 N 
ATOM      8  C   UNL     1       4.012  -7.675   4.813  0.00  0.00    +0.218 C 
ATOM      9  O   UNL     1       3.913  -7.521   6.011  0.00  0.00    -0.275 OA
ATOM     10  H   UNL     1       3.176  -7.254   3.027  0.00  0.00    +0.151 HD
BRANCH   7  18
ATOM     11  C   UNL     1       0.495  -1.896   2.795  0.00  0.00    +0.122 A 
ATOM     12  C   UNL     1      -0.242  -2.809   2.054  0.00  0.00    +0.047 A 
ATOM     13  C   UNL     1      -0.102  -4.162   2.255  0.00  0.00    +0.027 A 
ATOM     14  C   UNL     1       0.791  -4.669   3.215  0.00  0.00    +0.043 A 
ATOM     15  C   UNL     1       1.520  -3.727   3.946  0.00  0.00    +0.035 A 
ATOM     16  C   UNL     1       1.389  -2.371   3.746  0.00  0.00    +0.062 A 
ATOM     17  S   UNL     1       2.535  -4.680   5.052  0.00  0.00    -0.082 S 
ATOM     18  C   UNL     1       1.983  -6.355   4.535  0.00  0.00    +0.224 C 
ATOM     19  N   UNL     1       1.004  -6.022   3.491  0.00  0.00    -0.316 N 
ATOM     20  H   UNL     1       0.524  -6.715   3.012  0.00  0.00    +0.149 HD
BRANCH  11  21
ATOM     21  O   UNL     1       0.349  -0.560   2.590  0.00  0.00    -0.492 OA
BRANCH  21  23
ATOM     22  C   UNL     1      -0.618   1.371   1.505  0.00  0.00    +0.048 C 
ATOM     23  C   UNL     1      -0.592  -0.156   1.593  0.00  0.00    +0.225 C 
ENDBRANCH  21  23
ENDBRANCH  11  21
ENDBRANCH   7  18
ENDBRANCH   1   8
BRANCH   4  24
ATOM     24  C   UNL     1       9.235  -9.493   3.457  0.00  0.00    +0.131 C 
BRANCH  24  25
ATOM     25  C   UNL     1      10.243  -8.426   3.024  0.00  0.00    +0.188 C 
ATOM     26  N   UNL     1       9.711  -7.662   1.889  0.00  0.00    -0.362 N 
ATOM     27  C   UNL     1       9.624  -6.418   2.263  0.00  0.00    +0.060 A 
ATOM     28  C   UNL     1       9.171  -5.199   1.579  0.00  0.00    +0.027 A 
ATOM     29  C   UNL     1       9.194  -4.021   2.234  0.00  0.00    +0.002 A 
ATOM     30  C   UNL     1       9.639  -3.901   3.563  0.00  0.00    +0.002 A 
ATOM     31  C   UNL     1      10.075  -4.956   4.281  0.00  0.00    +0.027 A 
ATOM     32  C   UNL     1      10.094  -6.291   3.669  0.00  0.00    +0.060 A 
ATOM     33  N   UNL     1      10.454  -7.462   4.111  0.00  0.00    -0.362 N 
ATOM     34  H   UNL     1       9.470  -8.018   1.019  0.00  0.00    +0.162 HD
ATOM     35  H   UNL     1      10.798  -7.661   4.995  0.00  0.00    +0.162 HD
ENDBRANCH  24  25
ENDBRANCH   4  24
TORSDOF 6
