REMARK  Name = ZINC44925830
REMARK  7 active torsions:
REMARK  status: ('A' for Active; 'I' for Inactive)
REMARK    1  A    between atoms: C_1  and  C_2
REMARK    2  A    between atoms: C_10  and  C_11
REMARK    3  A    between atoms: C_11  and  C_13
REMARK    4  A    between atoms: C_11  and  N_14
REMARK    5  A    between atoms: N_14  and  C_15
REMARK    6  A    between atoms: C_15  and  C_17
REMARK    7  A    between atoms: C_15  and  C_18
REMARK                            x       y       z     vdW  Elec       q    Type
REMARK                         _______ _______ _______ _____ _____    ______ ____
ROOT
ATOM      1  C   UNL     1       0.030  -0.352   2.503  0.00  0.00    +0.118 C 
ATOM      2  C   UNL     1      -1.354  -0.570   3.116  0.00  0.00    +0.032 C 
ENDROOT
BRANCH   1  12
ATOM      3  C   UNL     1      -0.018   1.503   0.010  0.00  0.00    +0.048 C 
ATOM      4  C   UNL     1       0.002  -0.004   0.002  0.00  0.00    -0.000 A 
ATOM      5  C   UNL     1       0.009  -0.879  -1.177  0.00  0.00    +0.023 A 
ATOM      6  C   UNL     1       0.000  -0.660  -2.553  0.00  0.00    +0.012 A 
ATOM      7  C   UNL     1       0.011  -1.726  -3.409  0.00  0.00    +0.001 A 
ATOM      8  C   UNL     1       0.031  -3.023  -2.916  0.00  0.00    +0.004 A 
ATOM      9  C   UNL     1       0.040  -3.259  -1.558  0.00  0.00    +0.047 A 
ATOM     10  C   UNL     1       0.029  -2.190  -0.671  0.00  0.00    +0.136 A 
ATOM     11  O   UNL     1       0.033  -2.100   0.674  0.00  0.00    -0.458 OA
ATOM     12  C   UNL     1       0.023  -0.814   1.069  0.00  0.00    +0.126 A 
ENDBRANCH   1  12
BRANCH   1  13
ATOM     13  N   UNL     1       1.028  -1.121   3.260  0.00  0.00    -0.298 NA
ATOM     14  H   UNL     1       0.660  -2.020   3.533  0.00  0.00    +0.123 HD
BRANCH  13  15
ATOM     15  C   UNL     1       1.496  -0.366   4.431  0.00  0.00    +0.123 C 
ATOM     16  C   UNL     1       2.632   0.570   4.012  0.00  0.00    +0.032 C 
BRANCH  15  17
ATOM     17  C   UNL     1       1.997  -1.326   5.479  0.00  0.00    +0.193 A 
ATOM     18  N   UNL     1       1.736  -1.284   6.778  0.00  0.00    -0.110 NA
ATOM     19  N   UNL     1       2.347  -2.275   7.330  0.00  0.00    -0.021 NA
ATOM     20  N   UNL     1       2.980  -2.935   6.424  0.00  0.00    -0.021 NA
ATOM     21  N   UNL     1       2.778  -2.377   5.280  0.00  0.00    -0.110 NA
ENDBRANCH  15  17
ENDBRANCH  13  15
ENDBRANCH   1  13
TORSDOF 4
