REMARK  Name = ZINC50417245
REMARK  6 active torsions:
REMARK  status: ('A' for Active; 'I' for Inactive)
REMARK    1  A    between atoms: C_1  and  C_2
REMARK    2  A    between atoms: C_2  and  C_4
REMARK    3  A    between atoms: C_2  and  N_10
REMARK    4  A    between atoms: N_8  and  C_9
REMARK    5  A    between atoms: N_10  and  C_11
REMARK    6  A    between atoms: C_16  and  N_17
REMARK                            x       y       z     vdW  Elec       q    Type
REMARK                         _______ _______ _______ _____ _____    ______ ____
ROOT
ATOM      1  C   UNL     1       0.026  -0.639   2.401  0.00  0.00    +0.050 A 
ATOM      2  C   UNL     1      -1.323  -0.333   2.474  0.00  0.00    +0.048 A 
ATOM      3  C   UNL     1      -2.009  -0.480   3.677  0.00  0.00    +0.039 A 
ATOM      4  C   UNL     1      -1.323  -0.936   4.796  0.00  0.00    -0.016 A 
ATOM      5  C   UNL     1       0.018  -1.242   4.729  0.00  0.00    +0.030 A 
ATOM      6  C   UNL     1       0.702  -1.101   3.530  0.00  0.00    +0.046 A 
ATOM      7  C   UNL     1      -2.331  -0.985   5.922  0.00  0.00    +0.133 C 
ATOM      8  C   UNL     1      -3.619  -0.509   5.286  0.00  0.00    +0.222 C 
ATOM      9  O   UNL     1      -4.694  -0.392   5.836  0.00  0.00    -0.275 OA
ATOM     10  N   UNL     1      -3.349  -0.240   3.997  0.00  0.00    -0.285 N 
ATOM     11  H   UNL     1      -4.007   0.083   3.362  0.00  0.00    +0.155 HD
ENDROOT
BRANCH   6  12
ATOM     12  N   UNL     1       2.066  -1.417   3.454  0.00  0.00    -0.357 N 
ATOM     13  H   UNL     1       2.542  -1.314   2.615  0.00  0.00    +0.142 HD
ATOM     14  H   UNL     1       2.534  -1.738   4.241  0.00  0.00    +0.142 HD
ENDBRANCH   6  12
BRANCH   1  15
ATOM     15  N   UNL     1       0.711  -0.489   1.189  0.00  0.00    -0.333 N 
ATOM     16  H   UNL     1       1.654  -0.707   1.135  0.00  0.00    +0.147 HD
BRANCH  15  18
ATOM     17  C   UNL     1      -0.019   1.526   0.010  0.00  0.00    +0.036 C 
ATOM     18  C   UNL     1       0.002  -0.004   0.002  0.00  0.00    +0.135 C 
BRANCH  18  19
ATOM     19  C   UNL     1       0.707  -0.490  -1.238  0.00  0.00    +0.153 A 
ATOM     20  N   UNL     1       1.995  -0.478  -1.450  0.00  0.00    -0.133 NA
ATOM     21  N   UNL     1       2.247  -0.968  -2.612  0.00  0.00    -0.138 NA
ATOM     22  C   UNL     1       1.131  -1.315  -3.194  0.00  0.00    +0.224 A 
ATOM     23  N   UNL     1       0.123  -1.026  -2.336  0.00  0.00    -0.319 N 
ATOM     24  C   UNL     1      -1.309  -1.246  -2.554  0.00  0.00    +0.151 C 
ENDBRANCH  18  19
ENDBRANCH  15  18
ENDBRANCH   1  15
TORSDOF 4
