REMARK  Name = ZINC06651696
REMARK  2 active torsions:
REMARK  status: ('A' for Active; 'I' for Inactive)
REMARK    1  A    between atoms: C_4  and  C_8
REMARK    2  A    between atoms: N_9  and  N_10
REMARK                            x       y       z     vdW  Elec       q    Type
REMARK                         _______ _______ _______ _____ _____    ______ ____
ROOT
ATOM      1  C   UNL     1      -0.070   5.322   0.030  0.00  0.00    +0.144 C 
ATOM      2  N   UNL     1      -1.203   5.956   0.044  0.00  0.00    -0.188 NA
ENDROOT
BRANCH   2   3
ATOM      3  N   UNL     1      -1.222   7.357   0.052  0.00  0.00    -0.220 N 
ATOM      4  C   UNL     1      -2.436   8.036   0.067  0.00  0.00    +0.157 A 
ATOM      5  C   UNL     1      -2.447   9.428   0.080  0.00  0.00    +0.084 A 
ATOM      6  C   UNL     1      -3.662  10.091   0.090  0.00  0.00    +0.045 A 
ATOM      7  C   UNL     1      -4.829   9.336   0.097  0.00  0.00    +0.061 A 
ATOM      8  C   UNL     1      -4.742   7.957   0.088  0.00  0.00    +0.133 A 
ATOM      9  N   UNL     1      -3.570   7.352   0.073  0.00  0.00    -0.236 NA
ATOM     10 CL   UNL     1      -6.379  10.117   0.116  0.00  0.00    -0.082 Cl
ATOM     11 CL   UNL     1      -0.958  10.321   0.078  0.00  0.00    -0.080 Cl
ATOM     12  H   UNL     1      -0.389   7.853   0.047  0.00  0.00    +0.176 HD
ENDBRANCH   2   3
BRANCH   1  16
ATOM     13  C   UNL     1      -0.013   1.076   0.008  0.00  0.00    +0.006 A 
ATOM     14  C   UNL     1      -1.222   1.747   0.017  0.00  0.00    +0.039 A 
ATOM     15  C   UNL     1      -1.250   3.129   0.030  0.00  0.00    +0.135 A 
ATOM     16  C   UNL     1      -0.050   3.848   0.022  0.00  0.00    +0.065 A 
ATOM     17  C   UNL     1       1.168   3.162   0.007  0.00  0.00    +0.135 A 
ATOM     18  C   UNL     1       1.178   1.780   0.000  0.00  0.00    +0.039 A 
ATOM     19  F   UNL     1       2.332   3.847   0.000  0.00  0.00    -0.205 F 
ATOM     20  F   UNL     1      -2.432   3.783   0.044  0.00  0.00    -0.205 F 
ENDBRANCH   1  16
TORSDOF 2
