REMARK  Name = ZINC41919142
REMARK  5 active torsions:
REMARK  status: ('A' for Active; 'I' for Inactive)
REMARK    1  A    between atoms: C_1  and  C_2
REMARK    2  A    between atoms: C_2  and  C_4
REMARK    3  A    between atoms: C_2  and  N_10
REMARK    4  A    between atoms: C_11  and  C_13
REMARK    5  A    between atoms: N_15  and  C_16
REMARK                            x       y       z     vdW  Elec       q    Type
REMARK                         _______ _______ _______ _____ _____    ______ ____
ROOT
ATOM      1  C   UNL     1       2.776  -1.093   2.384  0.00  0.00    +0.303 C 
ATOM      2  O   UNL     1       2.154  -1.387   3.384  0.00  0.00    -0.265 OA
ATOM      3  N   UNL     1       4.119  -1.205   2.368  0.00  0.00    -0.278 N 
ATOM      4  H   UNL     1       4.611  -1.034   1.550  0.00  0.00    +0.155 HD
ENDROOT
BRANCH   3   5
ATOM      5  C   UNL     1       4.804  -1.568   3.532  0.00  0.00    +0.038 A 
ATOM      6  C   UNL     1       4.235  -2.472   4.420  0.00  0.00    +0.027 A 
ATOM      7  C   UNL     1       4.910  -2.832   5.571  0.00  0.00    +0.051 A 
ATOM      8  C   UNL     1       6.155  -2.292   5.842  0.00  0.00    +0.167 A 
ATOM      9  C   UNL     1       6.730  -1.383   4.952  0.00  0.00    +0.169 A 
ATOM     10  C   UNL     1       6.057  -1.028   3.798  0.00  0.00    +0.073 A 
ATOM     11  O   UNL     1       7.950  -1.006   5.451  0.00  0.00    -0.447 OA
ATOM     12  C   UNL     1       7.856  -1.307   6.850  0.00  0.00    +0.254 C 
ATOM     13  O   UNL     1       7.021  -2.474   6.889  0.00  0.00    -0.448 OA
ATOM     14  C   UNL     1       9.236  -1.592   7.452  0.00  0.00    +0.093 C 
ATOM     15  C   UNL     1       9.623  -0.260   8.147  0.00  0.00    +0.008 C 
ATOM     16  C   UNL     1       8.271   0.240   8.715  0.00  0.00    +0.008 C 
ATOM     17  C   UNL     1       7.238  -0.149   7.633  0.00  0.00    +0.093 C 
ENDBRANCH   3   5
BRANCH   1  19
ATOM     18  N   UNL     1       0.710  -0.494   1.187  0.00  0.00    -0.303 N 
ATOM     19  C   UNL     1       2.053  -0.606   1.171  0.00  0.00    +0.300 C 
ATOM     20  O   UNL     1       2.675  -0.311   0.172  0.00  0.00    -0.265 OA
ATOM     21  H   UNL     1       0.213  -0.729   1.986  0.00  0.00    +0.150 HD
BRANCH  18  23
ATOM     22  C   UNL     1      -0.018   1.514  -0.005  0.00  0.00    +0.030 C 
ATOM     23  C   UNL     1       0.001  -0.016  -0.003  0.00  0.00    +0.099 C 
BRANCH  23  24
ATOM     24  C   UNL     1      -1.435  -0.544   0.013  0.00  0.00    +0.138 C 
ATOM     25  C   UNL     1      -2.153  -0.147  -1.294  0.00  0.00    +0.035 C 
ATOM     26  C   UNL     1      -3.578   0.211  -0.792  0.00  0.00    +0.031 C 
ATOM     27  C   UNL     1      -3.256   0.821   0.596  0.00  0.00    +0.160 C 
ATOM     28  O   UNL     1      -2.156   0.044   1.102  0.00  0.00    -0.375 OA
ENDBRANCH  23  24
ENDBRANCH  18  23
ENDBRANCH   1  19
TORSDOF 4
