REMARK  Name = ZINC39861943
REMARK  8 active torsions:
REMARK  status: ('A' for Active; 'I' for Inactive)
REMARK    1  A    between atoms: C_5  and  C_7
REMARK    2  A    between atoms: C_7  and  O_8
REMARK    3  A    between atoms: O_8  and  C_9
REMARK    4  A    between atoms: C_12  and  C_15
REMARK    5  A    between atoms: N_19  and  C_23
REMARK    6  A    between atoms: C_23  and  C_25
REMARK    7  A    between atoms: C_23  and  C_29
REMARK    8  A    between atoms: C_25  and  C_26
REMARK                            x       y       z     vdW  Elec       q    Type
REMARK                         _______ _______ _______ _____ _____    ______ ____
ROOT
ATOM      1  C   UNL     1      -0.771  -8.239  -0.036  0.00  0.00    +0.028 C 
ATOM      2  C   UNL     1       0.210  -9.042   0.451  0.00  0.00    +0.077 C 
ATOM      3  C   UNL     1       0.307 -10.515   0.452  0.00  0.00    +0.259 C 
ATOM      4  O   UNL     1      -0.566 -11.214  -0.029  0.00  0.00    -0.269 OA
ATOM      5  N   UNL     1       1.391 -11.037   1.001  0.00  0.00    -0.241 N 
ATOM      6  C   UNL     1       2.356 -10.259   1.533  0.00  0.00    +0.121 C 
ATOM      7  S   UNL     1       3.819 -10.741   2.281  0.00  0.00    -0.027 S 
ATOM      8  S   UNL     1       1.743  -8.604   1.260  0.00  0.00    -0.061 S 
ENDROOT
BRANCH   1  12
ATOM      9  C   UNL     1      -0.201  -4.040  -0.178  0.00  0.00    +0.121 A 
ATOM     10  C   UNL     1       0.862  -4.872   0.154  0.00  0.00    +0.046 A 
ATOM     11  C   UNL     1       0.683  -6.236   0.201  0.00  0.00    +0.011 A 
ATOM     12  C   UNL     1      -0.574  -6.785  -0.085  0.00  0.00    -0.024 A 
ATOM     13  C   UNL     1      -1.641  -5.942  -0.417  0.00  0.00    +0.011 A 
ATOM     14  C   UNL     1      -1.452  -4.579  -0.457  0.00  0.00    +0.046 A 
BRANCH   9  15
ATOM     15  O   UNL     1      -0.019  -2.695  -0.223  0.00  0.00    -0.487 OA
BRANCH  15  16
ATOM     16  C   UNL     1       1.291  -2.208   0.075  0.00  0.00    +0.266 C 
BRANCH  16  21
ATOM     17  C   UNL     1       0.157   1.354  -0.455  0.00  0.00    +0.000 A 
ATOM     18  C   UNL     1       1.323   2.055  -0.208  0.00  0.00    +0.001 A 
ATOM     19  C   UNL     1       2.479   1.377   0.131  0.00  0.00    +0.020 A 
ATOM     20  C   UNL     1       2.469  -0.003   0.223  0.00  0.00    +0.047 A 
ATOM     21  C   UNL     1       1.302  -0.704  -0.025  0.00  0.00    +0.008 A 
ATOM     22  C   UNL     1       0.147  -0.025  -0.364  0.00  0.00    +0.008 A 
ATOM     23 CL   UNL     1       3.921  -0.855   0.647  0.00  0.00    -0.083 Cl
ENDBRANCH  16  21
ENDBRANCH  15  16
ENDBRANCH   9  15
ENDBRANCH   1  12
BRANCH   5  24
ATOM     24  C   UNL     1       1.547 -12.493   1.034  0.00  0.00    +0.204 C 
BRANCH  24  25
ATOM     25  C   UNL     1       1.655 -12.955   2.465  0.00  0.00    +0.377 C 
ATOM     26  O   UNL     1       1.254 -14.062   2.780  0.00  0.00    -0.244 OA
ATOM     27  O   UNL     1       2.144 -12.221   3.307  0.00  0.00    -0.244 OA
ENDBRANCH  24  25
BRANCH  24  28
ATOM     28  C   UNL     1       2.814 -12.888   0.274  0.00  0.00    +0.130 C 
BRANCH  28  29
ATOM     29  C   UNL     1       2.656 -12.537  -1.183  0.00  0.00    +0.213 C 
ATOM     30  O   UNL     1       1.630 -12.021  -1.575  0.00  0.00    -0.276 OA
ATOM     31  N   UNL     1       3.654 -12.795  -2.051  0.00  0.00    -0.329 N 
ATOM     32  H   UNL     1       4.474 -13.207  -1.738  0.00  0.00    +0.145 HD
ATOM     33  H   UNL     1       3.552 -12.569  -2.989  0.00  0.00    +0.145 HD
ENDBRANCH  28  29
ENDBRANCH  24  28
ENDBRANCH   5  24
TORSDOF 8
