REMARK  Name = ZINC38702868
REMARK  8 active torsions:
REMARK  status: ('A' for Active; 'I' for Inactive)
REMARK    1  A    between atoms: C_1  and  C_2
REMARK    2  A    between atoms: C_2  and  C_3
REMARK    3  A    between atoms: C_3  and  C_4
REMARK    4  A    between atoms: C_4  and  O_5
REMARK    5  A    between atoms: O_5  and  C_6
REMARK    6  A    between atoms: C_10  and  C_12
REMARK    7  A    between atoms: C_19  and  C_28
REMARK    8  A    between atoms: C_28  and  C_29
REMARK                            x       y       z     vdW  Elec       q    Type
REMARK                         _______ _______ _______ _____ _____    ______ ____
ROOT
ATOM      1  C   UNL     1      -5.730  -6.426   0.011  0.00  0.00    +0.142 C 
ATOM      2  C   UNL     1      -6.091  -6.883   1.386  0.00  0.00    +0.072 A 
ATOM      3  C   UNL     1      -6.211  -6.146   2.649  0.00  0.00    +0.199 A 
ATOM      4  O   UNL     1      -6.188  -4.930   2.716  0.00  0.00    -0.287 OA
ATOM      5  C   UNL     1      -6.366  -7.023   3.836  0.00  0.00    +0.065 A 
ATOM      6  C   UNL     1      -6.295  -6.490   5.123  0.00  0.00    +0.019 A 
ATOM      7  C   UNL     1      -6.434  -7.312   6.206  0.00  0.00    -0.047 A 
ATOM      8  C   UNL     1      -6.646  -8.672   6.029  0.00  0.00    +0.007 A 
ATOM      9  C   UNL     1      -6.722  -9.215   4.766  0.00  0.00    +0.047 A 
ATOM     10  C   UNL     1      -6.585  -8.397   3.644  0.00  0.00    +0.139 A 
ATOM     11  O   UNL     1      -6.672  -8.950   2.413  0.00  0.00    -0.450 OA
ATOM     12  C   UNL     1      -6.318  -8.229   1.332  0.00  0.00    +0.199 A 
ATOM     13  C   UNL     1      -6.109  -8.677  -0.056  0.00  0.00    +0.281 C 
ATOM     14  O   UNL     1      -6.228  -9.822  -0.443  0.00  0.00    -0.267 OA
ATOM     15  N   UNL     1      -5.767  -7.629  -0.836  0.00  0.00    -0.298 N 
ATOM     16  H   UNL     1      -5.578  -7.663  -1.787  0.00  0.00    +0.150 HD
ENDROOT
BRANCH   1  21
ATOM     17  C   UNL     1      -2.913  -3.908   0.009  0.00  0.00    +0.121 A 
ATOM     18  C   UNL     1      -1.802  -4.739  -0.000  0.00  0.00    +0.045 A 
ATOM     19  C   UNL     1      -1.967  -6.110  -0.006  0.00  0.00    +0.004 A 
ATOM     20  C   UNL     1      -3.238  -6.655  -0.002  0.00  0.00    +0.006 A 
ATOM     21  C   UNL     1      -4.347  -5.829   0.007  0.00  0.00    -0.019 A 
ATOM     22  C   UNL     1      -4.187  -4.457   0.018  0.00  0.00    +0.051 A 
BRANCH  17  23
ATOM     23  O   UNL     1      -2.753  -2.558   0.015  0.00  0.00    -0.492 OA
BRANCH  23  24
ATOM     24  C   UNL     1      -1.413  -2.063   0.004  0.00  0.00    +0.229 C 
BRANCH  24  25
ATOM     25  C   UNL     1      -1.433  -0.534   0.013  0.00  0.00    +0.041 C 
BRANCH  25  27
ATOM     26  C   UNL     1      -0.019   1.526   0.010  0.00  0.00    +0.004 C 
ATOM     27  C   UNL     1       0.002  -0.004   0.002  0.00  0.00    -0.000 C 
ENDBRANCH  25  27
ENDBRANCH  24  25
ENDBRANCH  23  24
ENDBRANCH  17  23
ENDBRANCH   1  21
BRANCH   7  28
ATOM     28  C   UNL     1      -6.358  -6.739   7.598  0.00  0.00    +0.032 C 
ATOM     29  C   UNL     1      -7.757  -6.321   8.056  0.00  0.00    +0.009 C 
ENDBRANCH   7  28
TORSDOF 6
