REMARK  Name = ZINC18209771
REMARK  3 active torsions:
REMARK  status: ('A' for Active; 'I' for Inactive)
REMARK    1  A    between atoms: C_13  and  C_15
REMARK    2  A    between atoms: C_19  and  C_30
REMARK    3  A    between atoms: C_22  and  C_26
REMARK                            x       y       z     vdW  Elec       q    Type
REMARK                         _______ _______ _______ _____ _____    ______ ____
ROOT
ATOM      1  C   UNL     1       0.175  -6.593   1.204  0.00  0.00    +0.110 C 
ATOM      2  C   UNL     1      -1.069  -6.062   1.111  0.00  0.00    +0.072 C 
ATOM      3  C   UNL     1      -2.018  -7.173   1.149  0.00  0.00    +0.114 C 
ATOM      4  N   UNL     1      -3.320  -7.164   1.081  0.00  0.00    -0.362 N 
ATOM      5  C   UNL     1      -4.044  -8.440   1.105  0.00  0.00    +0.149 C 
ATOM      6  C   UNL     1      -3.295  -9.468   1.954  0.00  0.00    +0.065 C 
ATOM      7  C   UNL     1      -1.875  -9.663   1.399  0.00  0.00    +0.202 C 
ATOM      8  N   UNL     1      -1.266  -8.334   1.287  0.00  0.00    -0.226 N 
ATOM      9  N   UNL     1       0.076  -7.972   1.295  0.00  0.00    -0.258 N 
ATOM     10  H   UNL     1       0.824  -8.587   1.356  0.00  0.00    +0.170 HD
ATOM     11  H   UNL     1      -3.803  -6.325   1.016  0.00  0.00    +0.162 HD
ENDROOT
BRANCH   1  24
ATOM     12  C   UNL     1       5.952  -4.447  -4.552  0.00  0.00    +0.005 A 
ATOM     13  C   UNL     1       5.332  -4.850  -5.728  0.00  0.00    +0.018 A 
ATOM     14  C   UNL     1       4.165  -5.584  -5.660  0.00  0.00    +0.084 A 
ATOM     15  N   UNL     1       3.635  -5.906  -4.495  0.00  0.00    -0.350 N 
ATOM     16  C   UNL     1       4.196  -5.540  -3.352  0.00  0.00    +0.099 A 
ATOM     17  C   UNL     1       5.373  -4.799  -3.347  0.00  0.00    +0.042 A 
ATOM     18  N   UNL     1       3.603  -5.900  -2.147  0.00  0.00    -0.314 N 
ATOM     19  C   UNL     1       4.274  -5.619  -0.870  0.00  0.00    +0.125 C 
ATOM     20  C   UNL     1       3.321  -4.806   0.015  0.00  0.00    +0.127 C 
ATOM     21  N   UNL     1       2.012  -5.473   0.034  0.00  0.00    -0.293 N 
ATOM     22  C   UNL     1       1.342  -5.754  -1.243  0.00  0.00    +0.127 C 
ATOM     23  C   UNL     1       2.291  -6.563  -2.128  0.00  0.00    +0.125 C 
ATOM     24  C   UNL     1       1.438  -5.823   1.202  0.00  0.00    +0.262 C 
ATOM     25  O   UNL     1       1.957  -5.504   2.254  0.00  0.00    -0.269 OA
ATOM     26  H   UNL     1       2.814  -6.422  -4.475  0.00  0.00    +0.166 HD
ENDBRANCH   1  24
BRANCH   5  27
ATOM     27  C   UNL     1      -5.417  -8.222   1.688  0.00  0.00    +0.127 A 
ATOM     28  C   UNL     1      -6.555  -8.793   1.255  0.00  0.00    +0.047 A 
ATOM     29  C   UNL     1      -7.596  -8.310   2.082  0.00  0.00    +0.041 A 
ATOM     30  C   UNL     1      -7.031  -7.473   2.970  0.00  0.00    +0.195 A 
ATOM     31  O   UNL     1      -5.710  -7.427   2.730  0.00  0.00    -0.466 OA
ENDBRANCH   5  27
BRANCH   7  32
ATOM     32  C   UNL     1      -1.057 -10.534   2.355  0.00  0.00    +0.410 C 
ATOM     33  F   UNL     1      -1.675 -11.782   2.493  0.00  0.00    -0.169 F 
ATOM     34  F   UNL     1       0.232 -10.706   1.841  0.00  0.00    -0.169 F 
ATOM     35  F   UNL     1      -0.982  -9.910   3.605  0.00  0.00    -0.169 F 
ENDBRANCH   7  32
TORSDOF 3
