REMARK  Name = ZINC14152507
REMARK  6 active torsions:
REMARK  status: ('A' for Active; 'I' for Inactive)
REMARK    1  A    between atoms: C_1  and  N_2
REMARK    2  A    between atoms: N_2  and  C_3
REMARK    3  A    between atoms: C_4  and  C_6
REMARK    4  A    between atoms: C_6  and  N_7
REMARK    5  A    between atoms: C_8  and  C_17
REMARK    6  A    between atoms: C_11  and  C_14
REMARK                            x       y       z     vdW  Elec       q    Type
REMARK                         _______ _______ _______ _____ _____    ______ ____
ROOT
ATOM      1  N   UNL     1      -0.995  -2.210   0.000  0.00  0.00    -0.295 N 
ATOM      2  C   UNL     1      -0.870  -2.873   1.174  0.00  0.00    +0.126 A 
ATOM      3  C   UNL     1      -0.618  -4.207   1.206  0.00  0.00    +0.031 A 
ATOM      4  C   UNL     1      -0.483  -4.923   0.017  0.00  0.00    +0.020 A 
ATOM      5  C   UNL     1      -0.611  -4.247  -1.195  0.00  0.00    +0.101 A 
ATOM      6  C   UNL     1      -0.879  -2.854  -1.177  0.00  0.00    +0.264 A 
ATOM      7  O   UNL     1      -1.001  -2.241  -2.223  0.00  0.00    -0.267 OA
ENDROOT
BRANCH   5   8
ATOM      8  C   UNL     1      -0.477  -4.967  -2.471  0.00  0.00    +0.247 C 
ATOM      9  O   UNL     1      -0.148  -6.138  -2.477  0.00  0.00    -0.270 OA
ATOM     10  N   UNL     1      -0.718  -4.329  -3.633  0.00  0.00    -0.325 N 
ATOM     11  H   UNL     1      -0.908  -3.377  -3.634  0.00  0.00    +0.145 HD
ATOM     12  H   UNL     1      -0.702  -4.821  -4.469  0.00  0.00    +0.145 HD
ENDBRANCH   5   8
BRANCH   2  13
ATOM     13  C   UNL     1      -1.012  -2.116   2.470  0.00  0.00    +0.433 C 
ATOM     14  F   UNL     1      -0.845  -2.996   3.545  0.00  0.00    -0.164 F 
ATOM     15  F   UNL     1      -0.038  -1.113   2.533  0.00  0.00    -0.164 F 
ATOM     16  F   UNL     1      -2.283  -1.537   2.534  0.00  0.00    -0.164 F 
ENDBRANCH   2  13
BRANCH   1  17
ATOM     17  C   UNL     1      -1.267  -0.771   0.011  0.00  0.00    +0.221 C 
BRANCH  17  21
ATOM     18  C   UNL     1       1.299   2.070   0.026  0.00  0.00    +0.131 C 
ATOM     19  N   UNL     1       0.032   1.334   0.023  0.00  0.00    -0.306 N 
ATOM     20  C   UNL     1      -1.238   2.063   0.025  0.00  0.00    +0.131 C 
ATOM     21  C   UNL     1       0.036  -0.013   0.014  0.00  0.00    +0.235 C 
ATOM     22  O   UNL     1       1.088  -0.617   0.008  0.00  0.00    -0.274 OA
ENDBRANCH  17  21
ENDBRANCH   1  17
TORSDOF 4
