REMARK  Name = ZINC61539168
REMARK  3 active torsions:
REMARK  status: ('A' for Active; 'I' for Inactive)
REMARK    1  A    between atoms: C_5  and  C_6
REMARK    2  A    between atoms: C_6  and  C_7
REMARK    3  A    between atoms: C_7  and  N_8
REMARK                            x       y       z     vdW  Elec       q    Type
REMARK                         _______ _______ _______ _____ _____    ______ ____
ROOT
ATOM      1  N   UNL     1      -2.988  -1.804  -1.421  0.00  0.00    -0.313 N 
ATOM      2  C   UNL     1      -3.590  -2.156  -2.612  0.00  0.00    +0.221 A 
ATOM      3  N   UNL     1      -4.729  -2.841  -2.605  0.00  0.00    -0.178 NA
ATOM      4  C   UNL     1      -5.304  -3.178  -3.752  0.00  0.00    +0.241 A 
ATOM      5  N   UNL     1      -4.742  -2.829  -4.904  0.00  0.00    -0.181 NA
ATOM      6  C   UNL     1      -3.608  -2.147  -4.910  0.00  0.00    +0.229 A 
ATOM      7  N   UNL     1      -3.034  -1.805  -3.768  0.00  0.00    -0.184 NA
ATOM      8 CL   UNL     1      -2.876  -1.694  -6.417  0.00  0.00    -0.041 Cl
ATOM      9  N   UNL     1      -6.497  -3.896  -3.748  0.00  0.00    -0.274 N 
ATOM     10  C   UNL     1      -7.200  -4.316  -4.850  0.00  0.00    +0.115 A 
ATOM     11  C   UNL     1      -8.284  -4.970  -4.393  0.00  0.00    +0.130 A 
ATOM     12  N   UNL     1      -8.251  -4.954  -3.052  0.00  0.00    -0.244 NA
ATOM     13  C   UNL     1      -7.183  -4.319  -2.653  0.00  0.00    +0.206 A 
ATOM     14  H   UNL     1      -3.394  -2.060  -0.578  0.00  0.00    +0.149 HD
ENDROOT
BRANCH   1  15
ATOM     15  C   UNL     1      -1.736  -1.044  -1.429  0.00  0.00    +0.109 C 
BRANCH  15  16
ATOM     16  C   UNL     1      -1.286  -0.786   0.011  0.00  0.00    +0.054 C 
BRANCH  16  21
ATOM     17  C   UNL     1      -0.017   1.378   0.010  0.00  0.00    +0.011 A 
ATOM     18  C   UNL     1       1.160   2.051   0.002  0.00  0.00    +0.045 A 
ATOM     19  S   UNL     1       2.348   0.719  -0.017  0.00  0.00    -0.105 S 
ATOM     20  C   UNL     1       1.196  -0.645  -0.013  0.00  0.00    +0.048 A 
ATOM     21  C   UNL     1       0.002  -0.004   0.002  0.00  0.00    -0.039 A 
ENDBRANCH  16  21
ENDBRANCH  15  16
ENDBRANCH   1  15
TORSDOF 3
