REMARK  Name = ZINC11591246
REMARK  8 active torsions:
REMARK  status: ('A' for Active; 'I' for Inactive)
REMARK    1  A    between atoms: C_1  and  C_2
REMARK    2  A    between atoms: C_3  and  C_31
REMARK    3  A    between atoms: C_5  and  N_11
REMARK    4  A    between atoms: C_6  and  C_7
REMARK    5  A    between atoms: C_7  and  O_9
REMARK    6  A    between atoms: O_9  and  C_10
REMARK    7  A    between atoms: C_12  and  C_14
REMARK    8  A    between atoms: C_14  and  N_15
REMARK                            x       y       z     vdW  Elec       q    Type
REMARK                         _______ _______ _______ _____ _____    ______ ____
ROOT
ATOM      1  N   UNL     1       7.000  -0.100  -0.064  0.00  0.00    -0.215 N 
ATOM      2  C   UNL     1       7.457  -0.718   1.044  0.00  0.00    +0.252 C 
ATOM      3  O   UNL     1       7.248  -0.407   2.197  0.00  0.00    -0.272 OA
ATOM      4  C   UNL     1       8.282  -1.882   0.546  0.00  0.00    +0.144 C 
ATOM      5  C   UNL     1       7.688  -3.204   1.022  0.00  0.00    +0.081 C 
ATOM      6  C   UNL     1       8.027  -3.377   2.509  0.00  0.00    +0.232 C 
ATOM      7  O   UNL     1       9.445  -3.473   2.642  0.00  0.00    -0.492 OA
ATOM      8  C   UNL     1      10.210  -2.536   2.024  0.00  0.00    +0.126 A 
ATOM      9  C   UNL     1       9.707  -1.743   1.006  0.00  0.00    +0.027 A 
ATOM     10  C   UNL     1      10.523  -0.805   0.397  0.00  0.00    +0.010 A 
ATOM     11  C   UNL     1      11.835  -0.653   0.803  0.00  0.00    +0.001 A 
ATOM     12  C   UNL     1      12.338  -1.439   1.823  0.00  0.00    +0.004 A 
ATOM     13  C   UNL     1      11.530  -2.378   2.432  0.00  0.00    +0.046 A 
ATOM     14  N   UNL     1       8.200  -1.777  -0.916  0.00  0.00    -0.281 N 
ATOM     15  C   UNL     1       7.429  -0.705  -1.179  0.00  0.00    +0.310 C 
ATOM     16  O   UNL     1       7.152  -0.329  -2.301  0.00  0.00    -0.252 OA
ATOM     17  H   UNL     1       8.619  -2.365  -1.565  0.00  0.00    +0.152 HD
ENDROOT
BRANCH   1  18
ATOM     18  C   UNL     1       6.144   1.089  -0.050  0.00  0.00    +0.214 C 
BRANCH  18  20
ATOM     19  N   UNL     1       3.724   1.600  -0.025  0.00  0.00    -0.278 N 
ATOM     20  C   UNL     1       4.698   0.668  -0.039  0.00  0.00    +0.236 C 
ATOM     21  O   UNL     1       4.409  -0.510  -0.042  0.00  0.00    -0.274 OA
ATOM     22  H   UNL     1       3.955   2.542  -0.022  0.00  0.00    +0.155 HD
BRANCH  19  27
ATOM     23  C   UNL     1      -1.313   2.108   0.020  0.00  0.00    +0.045 C 
ATOM     24  C   UNL     1      -0.016   1.341   0.009  0.00  0.00    -0.025 A 
ATOM     25  C   UNL     1       0.002  -0.004   0.002  0.00  0.00    -0.008 A 
ATOM     26  S   UNL     1       1.740  -0.391  -0.017  0.00  0.00    -0.078 S 
ATOM     27  C   UNL     1       2.394   1.213  -0.014  0.00  0.00    +0.086 A 
ATOM     28  C   UNL     1       1.259   2.018   0.001  0.00  0.00    +0.091 A 
ATOM     29  C   UNL     1      -1.167  -0.955   0.008  0.00  0.00    +0.052 C 
BRANCH  28  30
ATOM     30  C   UNL     1       1.354   3.479   0.007  0.00  0.00    +0.342 C 
ATOM     31  O   UNL     1       1.403   4.080   1.063  0.00  0.00    -0.245 OA
BRANCH  30  32
ATOM     32  O   UNL     1       1.386   4.158  -1.158  0.00  0.00    -0.464 OA
ATOM     33  C   UNL     1       1.481   5.604  -1.075  0.00  0.00    +0.280 C 
ENDBRANCH  30  32
ENDBRANCH  28  30
ENDBRANCH  19  27
ENDBRANCH  18  20
ENDBRANCH   1  18
TORSDOF 5
