REMARK  Name = ZINC21255993
REMARK  4 active torsions:
REMARK  status: ('A' for Active; 'I' for Inactive)
REMARK    1  A    between atoms: C_1  and  C_2
REMARK    2  A    between atoms: C_2  and  C_3
REMARK    3  A    between atoms: C_6  and  C_9
REMARK    4  A    between atoms: C_14  and  C_20
REMARK                            x       y       z     vdW  Elec       q    Type
REMARK                         _______ _______ _______ _____ _____    ______ ____
ROOT
ATOM      1  C   UNL     1       2.490   1.048  -0.016  0.00  0.00    +0.032 C 
ATOM      2  C   UNL     1       3.288   1.449  -1.258  0.00  0.00    +0.059 C 
ATOM      3  C   UNL     1       4.626   0.752  -1.249  0.00  0.00    +0.018 C 
ATOM      4  C   UNL     1       5.236   0.442  -0.085  0.00  0.00    +0.020 C 
ATOM      5  C   UNL     1       6.580  -0.248  -0.100  0.00  0.00    +0.063 C 
ATOM      6  C   UNL     1       7.394   0.252  -1.294  0.00  0.00    +0.109 C 
ATOM      7  C   UNL     1       6.536   0.203  -2.532  0.00  0.00    +0.218 C 
ATOM      8  O   UNL     1       7.038  -0.049  -3.607  0.00  0.00    -0.275 OA
ATOM      9  N   UNL     1       5.215   0.439  -2.447  0.00  0.00    -0.289 N 
ATOM     10  C   UNL     1       4.648   0.747   1.153  0.00  0.00    +0.162 C 
ATOM     11  O   UNL     1       5.233   0.465   2.179  0.00  0.00    -0.292 OA
ATOM     12  C   UNL     1       3.303   1.420   1.229  0.00  0.00    +0.088 C 
ATOM     13  H   UNL     1       4.606   0.378  -3.361  0.00  0.00    +0.155 HD
ENDROOT
BRANCH   1  17
ATOM     14  C   UNL     1      -1.238   3.133   0.029  0.00  0.00    -0.048 A 
ATOM     15  C   UNL     1      -1.219   1.751   0.017  0.00  0.00    +0.004 A 
ATOM     16  C   UNL     1      -0.013   1.076   0.008  0.00  0.00    +0.004 A 
ATOM     17  C   UNL     1       1.175   1.783   0.000  0.00  0.00    -0.043 A 
ATOM     18  C   UNL     1       1.156   3.165   0.008  0.00  0.00    +0.004 A 
ATOM     19  C   UNL     1      -0.050   3.840   0.022  0.00  0.00    +0.004 A 
BRANCH  14  21
ATOM     20  C   UNL     1      -3.010   4.125  -1.393  0.00  0.00    +0.009 C 
ATOM     21  C   UNL     1      -2.553   3.869   0.044  0.00  0.00    +0.032 C 
ENDBRANCH  14  21
ENDBRANCH   1  17
BRANCH   5  22
ATOM     22  C   UNL     1       6.378  -1.737  -0.217  0.00  0.00    -0.039 A 
ATOM     23  C   UNL     1       5.716  -2.262  -1.311  0.00  0.00    +0.004 A 
ATOM     24  C   UNL     1       5.536  -3.628  -1.420  0.00  0.00    +0.000 A 
ATOM     25  C   UNL     1       6.009  -4.469  -0.430  0.00  0.00    +0.000 A 
ATOM     26  C   UNL     1       6.666  -3.944   0.667  0.00  0.00    +0.000 A 
ATOM     27  C   UNL     1       6.851  -2.578   0.773  0.00  0.00    +0.004 A 
ENDBRANCH   5  22
TORSDOF 3
