REMARK  Name = ZINC50634623
REMARK  5 active torsions:
REMARK  status: ('A' for Active; 'I' for Inactive)
REMARK    1  A    between atoms: C_1  and  C_2
REMARK    2  A    between atoms: N_8  and  S_9
REMARK    3  A    between atoms: S_9  and  C_12
REMARK    4  A    between atoms: C_15  and  N_19
REMARK    5  A    between atoms: C_17  and  N_18
REMARK                            x       y       z     vdW  Elec       q    Type
REMARK                         _______ _______ _______ _____ _____    ______ ____
ROOT
ATOM      1  S   UNL     1       0.045  -1.881   3.766  0.00  0.00    +0.102 S 
ATOM      2  O   UNL     1       1.282  -1.184   3.835  0.00  0.00    -0.146 OA
ATOM      3  O   UNL     1      -1.209  -1.217   3.846  0.00  0.00    -0.146 OA
ENDROOT
BRANCH   1  11
ATOM      4  C   UNL     1      -0.018   1.503   0.010  0.00  0.00    +0.063 C 
ATOM      5  C   UNL     1       0.002  -0.004   0.002  0.00  0.00    +0.015 A 
ATOM      6  C   UNL     1       0.005  -0.665  -1.175  0.00  0.00    +0.021 A 
ATOM      7  C   UNL     1       0.024  -2.070  -1.202  0.00  0.00    +0.005 A 
ATOM      8  C   UNL     1       0.039  -2.765  -0.034  0.00  0.00    +0.048 A 
ATOM      9  C   UNL     1       0.036  -2.058   1.192  0.00  0.00    +0.153 A 
ATOM     10  N   UNL     1       0.022  -0.684   1.183  0.00  0.00    -0.343 N 
ATOM     11  N   UNL     1       0.050  -2.713   2.334  0.00  0.00    -0.111 NA
ATOM     12  H   UNL     1       0.024  -0.196   2.021  0.00  0.00    +0.167 HD
ENDBRANCH   1  11
BRANCH   1  13
ATOM     13  C   UNL     1       0.067  -3.074   5.062  0.00  0.00    +0.133 A 
ATOM     14  C   UNL     1       1.153  -3.153   5.912  0.00  0.00    +0.033 A 
ATOM     15  C   UNL     1       1.171  -4.089   6.929  0.00  0.00    +0.035 A 
ATOM     16  C   UNL     1       0.102  -4.950   7.100  0.00  0.00    +0.128 A 
ATOM     17  C   UNL     1      -0.987  -4.877   6.254  0.00  0.00    +0.057 A 
ATOM     18  C   UNL     1      -1.011  -3.933   5.234  0.00  0.00    +0.054 A 
BRANCH  18  19
ATOM     19  N   UNL     1      -2.114  -3.853   4.381  0.00  0.00    -0.356 N 
ATOM     20  H   UNL     1      -2.127  -3.197   3.667  0.00  0.00    +0.142 HD
ATOM     21  H   UNL     1      -2.866  -4.454   4.502  0.00  0.00    +0.142 HD
ENDBRANCH  18  19
BRANCH  16  22
ATOM     22  N   UNL     1       0.126  -5.950   8.190  0.00  0.00    +0.056 N 
ATOM     23  O   UNL     1       1.079  -6.015   8.930  0.00  0.00    -0.126 OA
ATOM     24  O   UNL     1      -0.809  -6.703   8.340  0.00  0.00    -0.126 OA
ENDBRANCH  16  22
ENDBRANCH   1  13
TORSDOF 4
