REMARK  Name = ZINC32818935
REMARK  5 active torsions:
REMARK  status: ('A' for Active; 'I' for Inactive)
REMARK    1  A    between atoms: C_1  and  C_2
REMARK    2  A    between atoms: C_2  and  C_9
REMARK    3  A    between atoms: C_12  and  N_15
REMARK    4  A    between atoms: N_15  and  S_16
REMARK    5  A    between atoms: S_16  and  C_19
REMARK                            x       y       z     vdW  Elec       q    Type
REMARK                         _______ _______ _______ _____ _____    ______ ____
ROOT
ATOM      1  C   UNL     1      -0.199   7.970  -1.873  0.00  0.00    -0.015 A 
ATOM      2  C   UNL     1       1.083   8.133  -2.363  0.00  0.00    +0.008 A 
ATOM      3  C   UNL     1       2.015   7.124  -2.213  0.00  0.00    +0.025 A 
ATOM      4  C   UNL     1       1.662   5.945  -1.570  0.00  0.00    +0.048 A 
ATOM      5  C   UNL     1       0.371   5.782  -1.083  0.00  0.00    +0.025 A 
ATOM      6  C   UNL     1      -0.554   6.797  -1.232  0.00  0.00    +0.008 A 
ENDROOT
BRANCH   1   8
ATOM      7  C   UNL     1      -1.154  10.037  -0.851  0.00  0.00    +0.047 C 
ATOM      8  C   UNL     1      -1.213   9.073  -2.038  0.00  0.00    +0.135 C 
ATOM      9  C   UNL     1      -2.607   8.497  -2.189  0.00  0.00    +0.248 C 
ATOM     10  O   UNL     1      -3.212   7.823  -1.384  0.00  0.00    -0.273 OA
ATOM     11  N   UNL     1      -3.034   8.891  -3.405  0.00  0.00    -0.238 N 
ATOM     12  C   UNL     1      -2.113   9.628  -4.037  0.00  0.00    +0.307 C 
ATOM     13  O   UNL     1      -2.268  10.097  -5.147  0.00  0.00    -0.252 OA
ATOM     14  N   UNL     1      -0.993   9.794  -3.303  0.00  0.00    -0.282 N 
ATOM     15  H   UNL     1      -4.033   8.598  -3.759  0.00  0.00    +0.159 HD
ATOM     16  H   UNL     1      -0.044  10.323  -3.477  0.00  0.00    +0.152 HD
ENDBRANCH   1   8
BRANCH   4  17
ATOM     17  N   UNL     1       2.602   4.923  -1.417  0.00  0.00    -0.216 N 
ATOM     18  H   UNL     1       3.232   4.624  -2.268  0.00  0.00    +0.174 HD
BRANCH  17  19
ATOM     19  S   UNL     1       2.767   4.161   0.044  0.00  0.00    +0.073 S 
ATOM     20  O   UNL     1       3.858   3.261  -0.088  0.00  0.00    -0.150 OA
ATOM     21  O   UNL     1       1.467   3.732   0.427  0.00  0.00    -0.150 OA
BRANCH  19  22
ATOM     22  C   UNL     1       3.259   5.382   1.215  0.00  0.00    +0.122 A 
ATOM     23  C   UNL     1       2.425   5.706   2.268  0.00  0.00    +0.030 A 
ATOM     24  C   UNL     1       2.811   6.663   3.188  0.00  0.00    +0.002 A 
ATOM     25  C   UNL     1       4.031   7.301   3.051  0.00  0.00    +0.001 A 
ATOM     26  C   UNL     1       4.868   6.974   2.001  0.00  0.00    +0.017 A 
ATOM     27  C   UNL     1       4.481   6.016   1.081  0.00  0.00    +0.044 A 
ATOM     28 BR   UNL     1       5.623   5.573  -0.360  0.00  0.00    -0.048 Br
ENDBRANCH  19  22
ENDBRANCH  17  19
ENDBRANCH   4  17
TORSDOF 4
