REMARK  Name = ZINC32791557
REMARK  10 active torsions:
REMARK  status: ('A' for Active; 'I' for Inactive)
REMARK    1  A    between atoms: C_1  and  C_2
REMARK    2  A    between atoms: C_2  and  C_4
REMARK    3  A    between atoms: C_2  and  N_12
REMARK    4  A    between atoms: N_12  and  C_13
REMARK    5  A    between atoms: C_13  and  C_15
REMARK    6  A    between atoms: C_13  and  C_16
REMARK    7  A    between atoms: C_16  and  C_18
REMARK    8  A    between atoms: C_19  and  N_28
REMARK    9  A    between atoms: N_20  and  C_27
REMARK   10  A    between atoms: N_23  and  C_26
REMARK                            x       y       z     vdW  Elec       q    Type
REMARK                         _______ _______ _______ _____ _____    ______ ____
ROOT
ATOM      1  C   UNL     1       2.920  -2.674   2.464  0.00  0.00    -0.001 C 
ATOM      2  C   UNL     1       2.216  -2.446   3.803  0.00  0.00    -0.006 C 
ENDROOT
BRANCH   1   3
ATOM      3  N   UNL     1       3.050  -4.116   2.219  0.00  0.00    +0.390 N 
ATOM      4  H   UNL     1       2.856  -4.311   1.153  0.00  0.00    -0.084 HD
ATOM      5  H   UNL     1       2.306  -4.647   2.830  0.00  0.00    -0.084 HD
BRANCH   3   7
ATOM      6  C   UNL     1       4.314  -6.027   3.083  0.00  0.00    -0.009 C 
ATOM      7  C   UNL     1       4.397  -4.590   2.566  0.00  0.00    -0.043 C 
BRANCH   7   8
ATOM      8  C   UNL     1       5.276  -4.546   1.343  0.00  0.00    -0.060 A 
ATOM      9  C   UNL     1       4.770  -4.927   0.114  0.00  0.00    +0.003 A 
ATOM     10  C   UNL     1       5.574  -4.883  -1.010  0.00  0.00    +0.021 A 
ATOM     11  C   UNL     1       6.888  -4.466  -0.903  0.00  0.00    +0.059 A 
ATOM     12  C   UNL     1       7.397  -4.088   0.328  0.00  0.00    +0.059 A 
ATOM     13  C   UNL     1       6.589  -4.129   1.450  0.00  0.00    +0.023 A 
ATOM     14 CL   UNL     1       9.046  -3.564   0.463  0.00  0.00    -0.082 Cl
ATOM     15 CL   UNL     1       7.900  -4.416  -2.313  0.00  0.00    -0.082 Cl
ENDBRANCH   7   8
ENDBRANCH   3   7
ENDBRANCH   1   3
BRANCH   1  16
ATOM     16  C   UNL     1       2.111  -2.047   1.358  0.00  0.00    +0.158 C 
ATOM     17  O   UNL     1       1.389  -2.737   0.668  0.00  0.00    -0.294 OA
BRANCH  16  18
ATOM     18  C   UNL     1       2.193  -0.657   1.125  0.00  0.00    +0.118 A 
ATOM     19  C   UNL     1       1.472  -0.054   0.080  0.00  0.00    +0.116 A 
ATOM     20  N   UNL     1       1.583   1.295  -0.106  0.00  0.00    -0.284 N 
ATOM     21  C   UNL     1       2.363   2.047   0.686  0.00  0.00    +0.333 A 
ATOM     22  O   UNL     1       2.428   3.243   0.479  0.00  0.00    -0.246 OA
ATOM     23  N   UNL     1       3.074   1.526   1.700  0.00  0.00    -0.263 N 
ATOM     24  C   UNL     1       3.033   0.205   1.966  0.00  0.00    +0.269 A 
ATOM     25  O   UNL     1       3.679  -0.264   2.885  0.00  0.00    -0.267 OA
ATOM     26  C   UNL     1       3.905   2.405   2.526  0.00  0.00    +0.157 C 
ATOM     27  C   UNL     1       0.841   1.932  -1.197  0.00  0.00    +0.155 C 
BRANCH  19  28
ATOM     28  N   UNL     1       0.677  -0.801  -0.733  0.00  0.00    -0.344 N 
ATOM     29  H   UNL     1       0.117  -0.319  -1.548  0.00  0.00    +0.144 HD
ATOM     30  H   UNL     1       0.594  -1.886  -0.575  0.00  0.00    +0.144 HD
ENDBRANCH  19  28
ENDBRANCH  16  18
ENDBRANCH   1  16
TORSDOF 6
