REMARK  Name = ZINC14883596
REMARK  13 active torsions:
REMARK  status: ('A' for Active; 'I' for Inactive)
REMARK    1  A    between atoms: C_1  and  C_2
REMARK    2  A    between atoms: C_2  and  N_64
REMARK    3  A    between atoms: C_3  and  C_4
REMARK    4  A    between atoms: C_3  and  N_64
REMARK    5  A    between atoms: C_5  and  C_6
REMARK    6  A    between atoms: C_5  and  N_64
REMARK    7  A    between atoms: C_6  and  N_7
REMARK    8  A    between atoms: N_7  and  C_8
REMARK    9  A    between atoms: C_8  and  C_9
REMARK   10  A    between atoms: C_10  and  C_12
REMARK   11  A    between atoms: C_13  and  C_31
REMARK   12  A    between atoms: N_21  and  C_22
REMARK   13  A    between atoms: C_22  and  C_23
REMARK                            x       y       z     vdW  Elec       q    Type
REMARK                         _______ _______ _______ _____ _____    ______ ____
ROOT
ATOM      1  C   UNL     1      -8.025   5.277  -0.016  0.00  0.00    +0.080 A 
ATOM      2  C   UNL     1      -6.770   4.801  -0.240  0.00  0.00    -0.019 A 
ATOM      3  C   UNL     1      -5.993   5.342  -1.273  0.00  0.00    +0.051 A 
ATOM      4  C   UNL     1      -4.669   5.000  -1.682  0.00  0.00    +0.130 A 
ATOM      5  N   UNL     1      -4.118   5.651  -2.692  0.00  0.00    -0.220 NA
ATOM      6  C   UNL     1      -4.754   6.606  -3.348  0.00  0.00    +0.224 A 
ATOM      7  N   UNL     1      -5.979   6.968  -3.019  0.00  0.00    -0.228 NA
ATOM      8  C   UNL     1      -6.605   6.377  -2.022  0.00  0.00    +0.114 A 
ATOM      9  S   UNL     1      -8.201   6.540  -1.264  0.00  0.00    -0.064 S 
ATOM     10  N   UNL     1      -3.971   4.006  -1.027  0.00  0.00    -0.328 N 
ATOM     11  C   UNL     1      -6.217   3.694   0.620  0.00  0.00    +0.046 C 
ATOM     12  H   UNL     1      -4.343   3.596  -0.231  0.00  0.00    +0.147 HD
ENDROOT
BRANCH   1  14
ATOM     13  N   UNL     1     -10.191   5.472   1.090  0.00  0.00    -0.299 N 
ATOM     14  C   UNL     1      -8.996   4.855   1.002  0.00  0.00    +0.253 C 
ATOM     15  O   UNL     1      -8.721   3.948   1.765  0.00  0.00    -0.269 OA
BRANCH  13  16
ATOM     16  C   UNL     1     -10.475   6.641   0.254  0.00  0.00    +0.104 C 
ATOM     17  C   UNL     1     -10.993   6.179  -1.109  0.00  0.00    +0.024 C 
ENDBRANCH  13  16
BRANCH  13  18
ATOM     18  C   UNL     1     -11.205   4.974   2.022  0.00  0.00    +0.089 C 
BRANCH  18  19
ATOM     19  C   UNL     1     -11.035   5.664   3.377  0.00  0.00    -0.060 C 
BRANCH  19  20
ATOM     20  N   UNL     1     -12.011   5.089   4.327  0.00  0.00    +0.380 N 
ATOM     21  H   UNL     1     -12.908   4.958   3.845  0.00  0.00    -0.082 HD
BRANCH  20  23
ATOM     22  C   UNL     1     -12.650   3.107   5.611  0.00  0.00    -0.017 C 
ATOM     23  C   UNL     1     -11.531   3.778   4.812  0.00  0.00    -0.082 C 
ENDBRANCH  20  23
BRANCH  20  24
ATOM     24  C   UNL     1     -12.207   6.008   5.468  0.00  0.00    -0.082 C 
ATOM     25  C   UNL     1     -13.134   7.143   5.028  0.00  0.00    -0.017 C 
ENDBRANCH  20  24
ENDBRANCH  19  20
ENDBRANCH  18  19
ENDBRANCH  13  18
ENDBRANCH   1  14
BRANCH  10  26
ATOM     26  C   UNL     1      -2.668   3.569  -1.536  0.00  0.00    +0.108 C 
BRANCH  26  27
ATOM     27  C   UNL     1      -2.112   2.465  -0.634  0.00  0.00    +0.029 C 
ATOM     28  C   UNL     1      -1.843   3.040   0.767  0.00  0.00    +0.029 C 
ATOM     29  C   UNL     1      -0.996   2.004   1.562  0.00  0.00    +0.166 C 
ATOM     30  S   UNL     1       0.170   1.444   0.249  0.00  0.00    -0.031 S 
ATOM     31  O   UNL     1       0.278   0.029   0.299  0.00  0.00    -0.174 OA
ATOM     32  O   UNL     1       1.347   2.238   0.307  0.00  0.00    -0.174 OA
ATOM     33  C   UNL     1      -0.798   1.918  -1.242  0.00  0.00    +0.171 C 
ENDBRANCH  26  27
ENDBRANCH  10  26
TORSDOF 9
