REMARK  Name = ZINC04028276
REMARK  9 active torsions:
REMARK  status: ('A' for Active; 'I' for Inactive)
REMARK    1  A    between atoms: C_1  and  N_52
REMARK    2  A    between atoms: C_8  and  O_24
REMARK    3  A    between atoms: C_10  and  C_12
REMARK    4  A    between atoms: C_12  and  C_13
REMARK    5  A    between atoms: C_13  and  C_16
REMARK    6  A    between atoms: N_14  and  O_15
REMARK    7  A    between atoms: C_19  and  O_22
REMARK    8  A    between atoms: O_22  and  C_23
REMARK    9  A    between atoms: O_24  and  C_25
REMARK                            x       y       z     vdW  Elec       q    Type
REMARK                         _______ _______ _______ _____ _____    ______ ____
ROOT
ATOM      1  C   UNL     1       3.188   3.523   2.929  0.00  0.00    -0.095 C 
ATOM      2  C   UNL     1       1.807   5.289   2.009  0.00  0.00    -0.074 C 
ATOM      3  C   UNL     1       0.400   5.874   2.092  0.00  0.00    +0.017 C 
ATOM      4  C   UNL     1      -0.612   4.856   1.634  0.00  0.00    -0.040 A 
ATOM      5  C   UNL     1      -1.887   5.293   1.308  0.00  0.00    +0.053 A 
ATOM      6  C   UNL     1      -2.854   4.394   0.890  0.00  0.00    +0.170 A 
ATOM      7  C   UNL     1      -2.542   3.042   0.796  0.00  0.00    +0.208 A 
ATOM      8  C   UNL     1      -1.265   2.607   1.121  0.00  0.00    +0.167 A 
ATOM      9  C   UNL     1      -0.299   3.516   1.543  0.00  0.00    -0.012 A 
ATOM     10  C   UNL     1       1.074   2.996   1.879  0.00  0.00    -0.028 C 
ATOM     11  O   UNL     1      -3.650   2.367   0.368  0.00  0.00    -0.449 OA
ATOM     12  C   UNL     1      -4.519   3.370  -0.190  0.00  0.00    +0.467 C 
ATOM     13  O   UNL     1      -4.156   4.569   0.520  0.00  0.00    -0.452 OA
ATOM     14  N   UNL     1       1.801   3.981   2.697  0.00  0.00    +0.383 N 
ATOM     15  H   UNL     1       1.327   4.081   3.602  0.00  0.00    -0.081 HD
ENDROOT
BRANCH   8  16
ATOM     16  O   UNL     1      -0.957   1.286   1.032  0.00  0.00    -0.491 OA
ATOM     17  C   UNL     1      -0.446   0.822  -0.220  0.00  0.00    +0.277 C 
ENDBRANCH   8  16
BRANCH  10  18
ATOM     18  C   UNL     1       0.941   1.696   2.674  0.00  0.00    +0.049 C 
BRANCH  18  19
ATOM     19  C   UNL     1       0.029   1.919   3.853  0.00  0.00    +0.086 C 
ATOM     20  N   UNL     1      -0.418   3.106   4.109  0.00  0.00    -0.092 NA
BRANCH  19  21
ATOM     21  C   UNL     1      -0.352   0.785   4.716  0.00  0.00    -0.000 A 
ATOM     22  C   UNL     1      -0.558   0.983   6.083  0.00  0.00    +0.013 A 
ATOM     23  C   UNL     1      -0.919  -0.079   6.885  0.00  0.00    +0.046 A 
ATOM     24  C   UNL     1      -1.068  -1.346   6.336  0.00  0.00    +0.120 A 
ATOM     25  C   UNL     1      -0.859  -1.549   4.978  0.00  0.00    +0.046 A 
ATOM     26  C   UNL     1      -0.503  -0.492   4.168  0.00  0.00    +0.013 A 
BRANCH  24  27
ATOM     27  O   UNL     1      -1.419  -2.390   7.130  0.00  0.00    -0.495 OA
ATOM     28  C   UNL     1      -1.619  -2.112   8.517  0.00  0.00    +0.277 C 
ENDBRANCH  24  27
ENDBRANCH  19  21
BRANCH  20  29
ATOM     29  O   UNL     1      -1.380   3.294   5.132  0.00  0.00    -0.409 OA
ATOM     30  H   UNL     1      -1.654   4.214   5.249  0.00  0.00    +0.328 HD
ENDBRANCH  20  29
ENDBRANCH  18  19
ENDBRANCH  10  18
TORSDOF 6
