REMARK  Name = ZINC20137939
REMARK  6 active torsions:
REMARK  status: ('A' for Active; 'I' for Inactive)
REMARK    1  A    between atoms: C_1  and  C_2
REMARK    2  A    between atoms: C_5  and  C_18
REMARK    3  A    between atoms: C_7  and  N_8
REMARK    4  A    between atoms: C_9  and  C_11
REMARK    5  A    between atoms: C_21  and  C_23
REMARK    6  A    between atoms: C_23  and  O_24
REMARK                            x       y       z     vdW  Elec       q    Type
REMARK                         _______ _______ _______ _____ _____    ______ ____
ROOT
ATOM      1  C   UNL     1      -0.010   1.493   0.004  0.00  0.00    +0.045 C 
ATOM      2  C   UNL     1       0.015  -0.014   0.002  0.00  0.00    -0.029 A 
ATOM      3  C   UNL     1       0.026  -0.701  -1.198  0.00  0.00    +0.006 A 
ATOM      4  C   UNL     1       0.049  -2.080  -1.208  0.00  0.00    +0.012 A 
ATOM      5  C   UNL     1       0.059  -2.787  -0.003  0.00  0.00    +0.019 A 
ATOM      6  C   UNL     1       0.048  -2.094   1.207  0.00  0.00    +0.035 A 
ATOM      7  C   UNL     1       0.031  -0.708   1.206  0.00  0.00    +0.037 A 
ENDROOT
BRANCH   5   8
ATOM      8  C   UNL     1       0.083  -4.265  -0.011  0.00  0.00    +0.135 A 
ATOM      9  C   UNL     1       0.101  -5.057  -1.116  0.00  0.00    +0.050 A 
ATOM     10  C   UNL     1       0.119  -6.390  -0.660  0.00  0.00    +0.047 A 
ATOM     11  C   UNL     1       0.112  -6.347   0.687  0.00  0.00    +0.131 A 
ATOM     12  O   UNL     1       0.096  -5.061   1.075  0.00  0.00    -0.457 OA
BRANCH  11  13
ATOM     13  C   UNL     1       0.125  -7.542   1.604  0.00  0.00    +0.230 C 
BRANCH  13  14
ATOM     14  O   UNL     1       1.476  -7.899   1.901  0.00  0.00    -0.387 OA
ATOM     15  H   UNL     1       1.561  -8.663   2.489  0.00  0.00    +0.210 HD
ENDBRANCH  13  14
ENDBRANCH  11  13
ENDBRANCH   5   8
BRANCH   7  16
ATOM     16  N   UNL     1       0.025  -0.008   2.417  0.00  0.00    -0.281 N 
ATOM     17  C   UNL     1      -0.631  -0.509   3.482  0.00  0.00    +0.248 C 
ATOM     18  O   UNL     1      -1.149  -1.607   3.415  0.00  0.00    -0.270 OA
ATOM     19  H   UNL     1       0.494   0.838   2.490  0.00  0.00    +0.155 HD
BRANCH  17  20
ATOM     20  C   UNL     1      -0.722   0.277   4.731  0.00  0.00    +0.038 A 
ATOM     21  C   UNL     1      -0.134   1.540   4.809  0.00  0.00    +0.013 A 
ATOM     22  C   UNL     1      -0.222   2.268   5.977  0.00  0.00    +0.002 A 
ATOM     23  C   UNL     1      -0.892   1.749   7.071  0.00  0.00    +0.014 A 
ATOM     24  C   UNL     1      -1.477   0.496   7.000  0.00  0.00    +0.014 A 
ATOM     25  C   UNL     1      -1.402  -0.239   5.835  0.00  0.00    +0.027 A 
ATOM     26  I   UNL     1      -2.487  -0.280   8.664  0.00  0.00    -0.044 I 
ENDBRANCH  17  20
ENDBRANCH   7  16
TORSDOF 5
