REMARK  Name = ZINC36497176
REMARK  18 active torsions:
REMARK  status: ('A' for Active; 'I' for Inactive)
REMARK    1  A    between atoms: C_1  and  C_2
REMARK    2  A    between atoms: C_2  and  C_3
REMARK    3  A    between atoms: C_3  and  C_5
REMARK    4  A    between atoms: C_3  and  C_11
REMARK    5  A    between atoms: N_13  and  C_14
REMARK    6  A    between atoms: N_13  and  C_20
REMARK    7  A    between atoms: C_14  and  C_15
REMARK    8  A    between atoms: C_20  and  C_22
REMARK    9  A    between atoms: C_20  and  C_31
REMARK   10  A    between atoms: C_25  and  N_28
REMARK   11  A    between atoms: N_33  and  C_34
REMARK   12  A    between atoms: C_34  and  C_35
REMARK   13  A    between atoms: C_34  and  C_36
REMARK   14  A    between atoms: C_34  and  C_37
REMARK   15  A    between atoms: C_37  and  C_38
REMARK   16  A    between atoms: C_38  and  C_39
REMARK   17  A    between atoms: C_38  and  C_40
REMARK   18  A    between atoms: C_38  and  C_41
REMARK                            x       y       z     vdW  Elec       q    Type
REMARK                         _______ _______ _______ _____ _____    ______ ____
ROOT
ATOM      1  C   UNL     1      -0.515  -5.469  -0.727  0.00  0.00    +0.193 C 
ENDROOT
BRANCH   1   2
ATOM      2  C   UNL     1      -1.637  -5.745   0.241  0.00  0.00    -0.018 A 
ATOM      3  C   UNL     1      -2.264  -4.697   0.889  0.00  0.00    +0.008 A 
ATOM      4  C   UNL     1      -3.292  -4.949   1.777  0.00  0.00    +0.033 A 
ATOM      5  C   UNL     1      -3.695  -6.250   2.017  0.00  0.00    +0.126 A 
ATOM      6  C   UNL     1      -3.069  -7.298   1.368  0.00  0.00    +0.033 A 
ATOM      7  C   UNL     1      -2.043  -7.045   0.477  0.00  0.00    +0.008 A 
BRANCH   5   8
ATOM      8  N   UNL     1      -4.796  -6.520   2.968  0.00  0.00    +0.056 N 
ATOM      9  O   UNL     1      -5.344  -5.604   3.535  0.00  0.00    -0.126 OA
ATOM     10  O   UNL     1      -5.148  -7.658   3.177  0.00  0.00    -0.126 OA
ENDBRANCH   5   8
ENDBRANCH   1   2
BRANCH   1  11
ATOM     11  C   UNL     1       0.484  -4.541  -0.086  0.00  0.00    +0.239 C 
ATOM     12  O   UNL     1       0.722  -3.464  -0.591  0.00  0.00    -0.273 OA
ATOM     13  N   UNL     1       1.115  -4.907   1.047  0.00  0.00    -0.308 N 
ATOM     14  H   UNL     1       0.925  -5.769   1.450  0.00  0.00    +0.149 HD
BRANCH  13  15
ATOM     15  C   UNL     1       2.087  -4.005   1.670  0.00  0.00    +0.030 C 
ATOM     16  C   UNL     1       3.311  -3.869   0.762  0.00  0.00    +0.031 C 
ATOM     17  C   UNL     1       1.448  -2.630   1.873  0.00  0.00    +0.031 C 
BRANCH  15  18
ATOM     18  C   UNL     1       2.516  -4.573   3.024  0.00  0.00    +0.031 C 
BRANCH  18  19
ATOM     19  C   UNL     1       1.333  -4.530   3.993  0.00  0.00    -0.036 C 
ATOM     20  C   UNL     1       0.047  -4.885   3.245  0.00  0.00    +0.010 C 
ATOM     21  C   UNL     1       1.561  -5.537   5.122  0.00  0.00    +0.010 C 
ATOM     22  C   UNL     1       1.209  -3.123   4.583  0.00  0.00    +0.010 C 
ENDBRANCH  18  19
ENDBRANCH  15  18
ENDBRANCH  13  15
ENDBRANCH   1  11
BRANCH   1  25
ATOM     23  C   UNL     1      -1.126  -5.548  -3.084  0.00  0.00    +0.224 C 
ATOM     24  O   UNL     1      -0.790  -6.713  -3.103  0.00  0.00    -0.275 OA
ATOM     25  N   UNL     1      -1.056  -4.845  -1.937  0.00  0.00    -0.278 N 
BRANCH  23  26
ATOM     26  C   UNL     1      -1.621  -4.886  -4.344  0.00  0.00    +0.105 C 
BRANCH  26  27
ATOM     27  C   UNL     1      -1.921  -5.939  -5.380  0.00  0.00    -0.036 A 
ATOM     28  C   UNL     1      -0.919  -6.787  -5.814  0.00  0.00    +0.004 A 
ATOM     29  C   UNL     1      -1.195  -7.753  -6.764  0.00  0.00    +0.000 A 
ATOM     30  C   UNL     1      -2.472  -7.871  -7.279  0.00  0.00    +0.000 A 
ATOM     31  C   UNL     1      -3.474  -7.024  -6.845  0.00  0.00    +0.000 A 
ATOM     32  C   UNL     1      -3.200  -6.061  -5.892  0.00  0.00    +0.004 A 
ENDBRANCH  26  27
BRANCH  26  34
ATOM     33  C   UNL     1      -1.104  -3.156  -6.070  0.00  0.00    +0.005 C 
ATOM     34  C   UNL     1      -0.547  -3.937  -4.878  0.00  0.00    +0.014 C 
ENDBRANCH  26  34
ENDBRANCH  23  26
BRANCH  25  35
ATOM     35  C   UNL     1      -1.521  -3.456  -1.899  0.00  0.00    +0.183 C 
BRANCH  35  36
ATOM     36  C   UNL     1      -3.006  -3.417  -2.154  0.00  0.00    +0.122 A 
ATOM     37  C   UNL     1      -3.967  -3.634  -1.238  0.00  0.00    +0.046 A 
ATOM     38  C   UNL     1      -5.206  -3.499  -1.905  0.00  0.00    +0.041 A 
ATOM     39  C   UNL     1      -4.928  -3.207  -3.189  0.00  0.00    +0.195 A 
ATOM     40  O   UNL     1      -3.594  -3.153  -3.332  0.00  0.00    -0.466 OA
ENDBRANCH  35  36
ENDBRANCH  25  35
ENDBRANCH   1  25
TORSDOF 12
