REMARK  Name = ZINC27662403
REMARK  10 active torsions:
REMARK  status: ('A' for Active; 'I' for Inactive)
REMARK    1  A    between atoms: C_1  and  C_2
REMARK    2  A    between atoms: C_5  and  C_35
REMARK    3  A    between atoms: C_6  and  C_8
REMARK    4  A    between atoms: C_8  and  C_10
REMARK    5  A    between atoms: N_14  and  C_27
REMARK    6  A    between atoms: C_15  and  C_17
REMARK    7  A    between atoms: C_19  and  O_25
REMARK    8  A    between atoms: C_20  and  O_24
REMARK    9  A    between atoms: O_25  and  C_26
REMARK   10  A    between atoms: C_27  and  C_28
REMARK                            x       y       z     vdW  Elec       q    Type
REMARK                         _______ _______ _______ _____ _____    ______ ____
ROOT
ATOM      1  C   UNL     1      -2.695  -0.184  -0.265  0.00  0.00    +0.076 C 
ATOM      2  C   UNL     1      -3.914  -0.739  -0.464  0.00  0.00    +0.249 C 
ATOM      3  C   UNL     1      -4.927   0.334  -0.556  0.00  0.00    +0.288 C 
ATOM      4  O   UNL     1      -6.116   0.157  -0.730  0.00  0.00    -0.266 OA
ATOM      5  N   UNL     1      -4.337   1.535  -0.423  0.00  0.00    -0.279 N 
ATOM      6  C   UNL     1      -2.899   1.313  -0.231  0.00  0.00    +0.145 C 
ATOM      7  O   UNL     1      -4.165  -2.065  -0.561  0.00  0.00    -0.282 OA
ENDROOT
BRANCH   6   8
ATOM      8  C   UNL     1      -2.462   1.865   1.102  0.00  0.00    -0.018 A 
ATOM      9  C   UNL     1      -1.279   2.575   1.200  0.00  0.00    +0.055 A 
ATOM     10  C   UNL     1      -0.878   3.088   2.423  0.00  0.00    +0.163 A 
ATOM     11  C   UNL     1      -1.662   2.877   3.553  0.00  0.00    +0.173 A 
ATOM     12  C   UNL     1      -2.843   2.160   3.450  0.00  0.00    +0.063 A 
ATOM     13  C   UNL     1      -3.241   1.656   2.224  0.00  0.00    +0.025 A 
ATOM     14 BR   UNL     1      -3.911   1.871   4.983  0.00  0.00    -0.046 Br
BRANCH  11  15
ATOM     15  O   UNL     1      -1.270   3.375   4.757  0.00  0.00    -0.503 OA
ATOM     16  H   UNL     1      -1.890   3.207   5.649  0.00  0.00    +0.292 HD
ENDBRANCH  11  15
BRANCH  10  17
ATOM     17  O   UNL     1       0.282   3.791   2.519  0.00  0.00    -0.491 OA
ATOM     18  C   UNL     1       0.982   4.059   1.302  0.00  0.00    +0.277 C 
ENDBRANCH  10  17
ENDBRANCH   6   8
BRANCH   1  19
ATOM     19  C   UNL     1      -1.423  -0.897  -0.117  0.00  0.00    +0.195 C 
ATOM     20  O   UNL     1      -0.381  -0.273  -0.050  0.00  0.00    -0.287 OA
BRANCH  19  26
ATOM     21  C   UNL     1      -0.547  -5.309  -2.277  0.00  0.00    +0.044 C 
ATOM     22  C   UNL     1      -0.987  -4.500  -1.085  0.00  0.00    -0.050 A 
ATOM     23  C   UNL     1      -1.377  -5.140   0.079  0.00  0.00    +0.003 A 
ATOM     24  C   UNL     1      -1.781  -4.404   1.179  0.00  0.00    +0.004 A 
ATOM     25  C   UNL     1      -1.799  -3.026   1.122  0.00  0.00    -0.040 A 
ATOM     26  C   UNL     1      -1.407  -2.374  -0.049  0.00  0.00    +0.025 A 
ATOM     27  C   UNL     1      -1.000  -3.122  -1.155  0.00  0.00    +0.015 A 
ATOM     28  C   UNL     1      -2.240  -2.227   2.321  0.00  0.00    +0.044 C 
ENDBRANCH  19  26
ENDBRANCH   1  19
BRANCH   5  29
ATOM     29  C   UNL     1      -5.010   2.836  -0.464  0.00  0.00    +0.144 C 
BRANCH  29  30
ATOM     30  C   UNL     1      -5.044   3.340  -1.883  0.00  0.00    -0.030 A 
ATOM     31  C   UNL     1      -4.012   4.125  -2.363  0.00  0.00    +0.005 A 
ATOM     32  C   UNL     1      -4.040   4.583  -3.667  0.00  0.00    +0.000 A 
ATOM     33  C   UNL     1      -5.106   4.265  -4.488  0.00  0.00    +0.000 A 
ATOM     34  C   UNL     1      -6.141   3.485  -4.007  0.00  0.00    +0.000 A 
ATOM     35  C   UNL     1      -6.109   3.022  -2.705  0.00  0.00    +0.005 A 
ENDBRANCH  29  30
ENDBRANCH   5  29
TORSDOF 7
