REMARK  Name = ZINC39654625
REMARK  8 active torsions:
REMARK  status: ('A' for Active; 'I' for Inactive)
REMARK    1  A    between atoms: C_1  and  C_2
REMARK    2  A    between atoms: C_2  and  C_3
REMARK    3  A    between atoms: C_6  and  C_9
REMARK    4  A    between atoms: C_9  and  C_10
REMARK    5  A    between atoms: C_10  and  N_11
REMARK    6  A    between atoms: C_12  and  C_14
REMARK    7  A    between atoms: C_25  and  C_27
REMARK    8  A    between atoms: C_28  and  C_32
REMARK                            x       y       z     vdW  Elec       q    Type
REMARK                         _______ _______ _______ _____ _____    ______ ____
ROOT
ATOM      1  C   UNL     1       5.209  -0.851   8.815  0.00  0.00    +0.100 C 
ATOM      2  C   UNL     1       4.222  -1.550   9.777  0.00  0.00    +0.121 C 
ATOM      3  N   UNL     1       4.695  -1.180  11.132  0.00  0.00    -0.296 N 
ATOM      4  C   UNL     1       5.103   0.240  11.005  0.00  0.00    +0.115 C 
ATOM      5  C   UNL     1       5.784   0.324   9.624  0.00  0.00    -0.004 C 
ATOM      6  C   UNL     1       5.444   1.649   8.948  0.00  0.00    -0.010 C 
ATOM      7  C   UNL     1       6.075   2.797   9.739  0.00  0.00    -0.082 C 
ATOM      8  N   UNL     1       7.531   2.613   9.795  0.00  0.00    +0.379 N 
ATOM      9  C   UNL     1       7.852   1.383  10.528  0.00  0.00    -0.082 C 
ATOM     10  C   UNL     1       7.295   0.175   9.771  0.00  0.00    -0.010 C 
ATOM     11  C   UNL     1       4.742  -1.958  12.231  0.00  0.00    +0.254 C 
ATOM     12  O   UNL     1       4.466  -3.140  12.152  0.00  0.00    -0.269 OA
ATOM     13  H   UNL     1       7.896   2.549   8.856  0.00  0.00    -0.086 HD
ATOM     14  H   UNL     1       7.950   3.402  10.263  0.00  0.00    -0.086 HD
ENDROOT
BRANCH  11  15
ATOM     15  C   UNL     1       5.127  -1.380  13.522  0.00  0.00    +0.077 A 
ATOM     16  C   UNL     1       5.340  -2.016  14.736  0.00  0.00    -0.031 A 
ATOM     17  C   UNL     1       5.696  -1.200  15.783  0.00  0.00    +0.011 A 
ATOM     18  C   UNL     1       5.813   0.134  15.568  0.00  0.00    +0.046 A 
ATOM     19  S   UNL     1       5.452   0.323  13.939  0.00  0.00    -0.092 S 
ATOM     20  C   UNL     1       5.189  -3.506  14.896  0.00  0.00    +0.045 C 
ENDBRANCH  11  15
BRANCH   1  22
ATOM     21  N   UNL     1       5.166  -0.082   6.464  0.00  0.00    -0.315 N 
ATOM     22  C   UNL     1       4.482  -0.342   7.596  0.00  0.00    +0.218 C 
ATOM     23  O   UNL     1       3.283  -0.167   7.634  0.00  0.00    -0.275 OA
ATOM     24  H   UNL     1       6.125  -0.222   6.433  0.00  0.00    +0.149 HD
BRANCH  21  25
ATOM     25  C   UNL     1       4.460   0.412   5.279  0.00  0.00    +0.109 C 
BRANCH  25  26
ATOM     26  C   UNL     1       5.460   0.624   4.141  0.00  0.00    +0.054 C 
BRANCH  26  30
ATOM     27  C   UNL     1       3.402   2.066   0.686  0.00  0.00    -0.048 A 
ATOM     28  C   UNL     1       3.910   2.959   1.610  0.00  0.00    +0.004 A 
ATOM     29  C   UNL     1       4.576   2.492   2.729  0.00  0.00    +0.004 A 
ATOM     30  C   UNL     1       4.733   1.133   2.922  0.00  0.00    -0.046 A 
ATOM     31  C   UNL     1       4.224   0.239   1.998  0.00  0.00    +0.004 A 
ATOM     32  C   UNL     1       3.555   0.706   0.882  0.00  0.00    +0.004 A 
BRANCH  27  34
ATOM     33  C   UNL     1       1.186   2.711  -0.219  0.00  0.00    +0.009 C 
ATOM     34  C   UNL     1       2.677   2.574  -0.533  0.00  0.00    +0.032 C 
ENDBRANCH  27  34
ENDBRANCH  26  30
ENDBRANCH  25  26
ENDBRANCH  21  25
ENDBRANCH   1  22
TORSDOF 6
