REMARK  Name = ZINC39726421
REMARK  6 active torsions:
REMARK  status: ('A' for Active; 'I' for Inactive)
REMARK    1  A    between atoms: C_1  and  C_2
REMARK    2  A    between atoms: C_2  and  C_4
REMARK    3  A    between atoms: C_2  and  N_14
REMARK    4  A    between atoms: C_15  and  C_17
REMARK    5  A    between atoms: C_20  and  S_28
REMARK    6  A    between atoms: S_28  and  N_31
REMARK                            x       y       z     vdW  Elec       q    Type
REMARK                         _______ _______ _______ _____ _____    ______ ____
ROOT
ATOM      1  C   UNL     1      -3.437  -1.154  -1.134  0.00  0.00    +0.032 C 
ATOM      2  C   UNL     1      -4.194  -1.205  -2.286  0.00  0.00    +0.007 A 
ATOM      3  C   UNL     1      -3.650  -0.754  -3.567  0.00  0.00    +0.038 A 
ATOM      4  C   UNL     1      -4.433  -0.824  -4.671  0.00  0.00    +0.106 A 
ATOM      5  C   UNL     1      -5.742  -1.318  -4.609  0.00  0.00    +0.030 A 
ATOM      6  C   UNL     1      -6.308  -1.751  -3.456  0.00  0.00    +0.026 A 
ATOM      7  C   UNL     1      -5.579  -1.722  -2.247  0.00  0.00    +0.041 A 
ATOM      8  N   UNL     1      -6.138  -2.148  -1.123  0.00  0.00    -0.285 N 
ATOM      9  C   UNL     1      -5.512  -2.149   0.048  0.00  0.00    +0.222 C 
ATOM     10  O   UNL     1      -6.082  -2.555   1.041  0.00  0.00    -0.275 OA
ATOM     11  C   UNL     1      -4.088  -1.652   0.142  0.00  0.00    +0.137 C 
ATOM     12  H   UNL     1      -7.050  -2.477  -1.159  0.00  0.00    +0.155 HD
ENDROOT
BRANCH   1  14
ATOM     13  N   UNL     1      -1.378  -0.495   0.014  0.00  0.00    -0.308 N 
ATOM     14  C   UNL     1      -2.051  -0.643  -1.145  0.00  0.00    +0.241 C 
ATOM     15  O   UNL     1      -1.517  -0.355  -2.198  0.00  0.00    -0.271 OA
ATOM     16  H   UNL     1      -1.804  -0.725   0.855  0.00  0.00    +0.149 HD
BRANCH  13  18
ATOM     17  C   UNL     1      -0.025   1.542  -0.009  0.00  0.00    +0.028 C 
ATOM     18  C   UNL     1      -0.004   0.012   0.004  0.00  0.00    +0.076 C 
BRANCH  18  19
ATOM     19  C   UNL     1       0.730  -0.478   1.253  0.00  0.00    -0.010 C 
ATOM     20  C   UNL     1       0.751  -2.008   1.266  0.00  0.00    +0.012 C 
ATOM     21  C   UNL     1       1.485  -2.498   2.516  0.00  0.00    -0.010 C 
ATOM     22  C   UNL     1       2.920  -1.968   2.505  0.00  0.00    +0.007 C 
ATOM     23  C   UNL     1       2.899  -0.439   2.493  0.00  0.00    -0.010 C 
ATOM     24  C   UNL     1       2.166   0.051   1.243  0.00  0.00    +0.012 C 
ATOM     25  C   UNL     1       2.177   0.072   3.741  0.00  0.00    +0.007 C 
ATOM     26  C   UNL     1       0.742  -0.458   3.752  0.00  0.00    -0.010 C 
ATOM     27  C   UNL     1       0.762  -1.988   3.764  0.00  0.00    +0.007 C 
ATOM     28  C   UNL     1       0.008   0.032   2.502  0.00  0.00    +0.012 C 
ENDBRANCH  18  19
ENDBRANCH  13  18
ENDBRANCH   1  14
BRANCH   4  29
ATOM     29  S   UNL     1      -3.790  -0.283  -6.219  0.00  0.00    +0.061 S 
ATOM     30  O   UNL     1      -4.908   0.061  -7.026  0.00  0.00    -0.153 OA
ATOM     31  O   UNL     1      -2.749   0.639  -5.926  0.00  0.00    -0.153 OA
BRANCH  29  32
ATOM     32  N   UNL     1      -3.074  -1.593  -6.937  0.00  0.00    -0.172 NA
ATOM     33  C   UNL     1      -1.655  -1.903  -6.704  0.00  0.00    +0.137 C 
ATOM     34  C   UNL     1      -1.542  -3.378  -6.302  0.00  0.00    +0.177 C 
ATOM     35  O   UNL     1      -2.216  -4.183  -7.272  0.00  0.00    -0.377 OA
ATOM     36  C   UNL     1      -3.619  -3.928  -7.370  0.00  0.00    +0.177 C 
ATOM     37  C   UNL     1      -3.840  -2.484  -7.822  0.00  0.00    +0.137 C 
ENDBRANCH  29  32
ENDBRANCH   4  29
TORSDOF 5
