REMARK  Name = ZINC04945113
REMARK  3 active torsions:
REMARK  status: ('A' for Active; 'I' for Inactive)
REMARK    1  A    between atoms: C_1  and  C_2
REMARK    2  A    between atoms: C_7  and  C_24
REMARK    3  A    between atoms: C_13  and  C_18
REMARK                            x       y       z     vdW  Elec       q    Type
REMARK                         _______ _______ _______ _____ _____    ______ ____
ROOT
ATOM      1  C   UNL     1      -0.018   1.503   0.010  0.00  0.00    +0.090 C 
ATOM      2  C   UNL     1       0.002  -0.004   0.002  0.00  0.00    +0.150 A 
ATOM      3  N   UNL     1       0.008  -0.773  -1.092  0.00  0.00    -0.198 NA
ATOM      4  C   UNL     1       0.029  -2.029  -0.742  0.00  0.00    +0.219 A 
ATOM      5  N   UNL     1       0.032  -2.087   0.613  0.00  0.00    -0.221 N 
ATOM      6  N   UNL     1       0.023  -0.769   1.066  0.00  0.00    -0.153 NA
ATOM      7  C   UNL     1       0.044  -3.337   1.362  0.00  0.00    +0.177 C 
ATOM      8  C   UNL     1       0.395  -4.487   0.444  0.00  0.00    +0.041 C 
ATOM      9  C   UNL     1       0.374  -4.364  -0.901  0.00  0.00    +0.020 C 
ATOM     10  N   UNL     1       0.049  -3.179  -1.515  0.00  0.00    -0.287 N 
ATOM     11  C   UNL     1       0.705  -5.538  -1.792  0.00  0.00    +0.060 C 
ATOM     12  C   UNL     1       1.729  -6.438  -1.097  0.00  0.00    +0.032 C 
ATOM     13  C   UNL     1       1.133  -6.908   0.234  0.00  0.00    +0.088 C 
ATOM     14  C   UNL     1       0.751  -5.705   1.051  0.00  0.00    +0.164 C 
ATOM     15  O   UNL     1       0.751  -5.786   2.264  0.00  0.00    -0.292 OA
ATOM     16  H   UNL     1      -0.160  -3.147  -2.462  0.00  0.00    +0.155 HD
ENDROOT
BRANCH   7  17
ATOM     17  C   UNL     1      -1.318  -3.575   1.960  0.00  0.00    +0.007 A 
ATOM     18  C   UNL     1      -2.473  -3.710   1.288  0.00  0.00    +0.089 A 
ATOM     19  N   UNL     1      -3.502  -3.914   2.167  0.00  0.00    -0.360 N 
ATOM     20  H   UNL     1      -4.431  -4.039   1.917  0.00  0.00    +0.165 HD
ATOM     21  C   UNL     1      -3.023  -3.915   3.457  0.00  0.00    +0.047 A 
ATOM     22  C   UNL     1      -1.633  -3.709   3.384  0.00  0.00    +0.005 A 
ATOM     23  C   UNL     1      -0.873  -3.668   4.554  0.00  0.00    +0.010 A 
ATOM     24  C   UNL     1      -1.483  -3.833   5.766  0.00  0.00    +0.001 A 
ATOM     25  C   UNL     1      -2.853  -4.040   5.843  0.00  0.00    +0.002 A 
ATOM     26  C   UNL     1      -3.624  -4.075   4.702  0.00  0.00    +0.026 A 
ENDBRANCH   7  17
BRANCH  12  27
ATOM     27  C   UNL     1       2.031  -7.630  -1.968  0.00  0.00    -0.044 A 
ATOM     28  C   UNL     1       1.016  -8.496  -2.331  0.00  0.00    +0.004 A 
ATOM     29  C   UNL     1       1.293  -9.589  -3.130  0.00  0.00    +0.000 A 
ATOM     30  C   UNL     1       2.585  -9.818  -3.566  0.00  0.00    +0.000 A 
ATOM     31  C   UNL     1       3.599  -8.952  -3.203  0.00  0.00    +0.000 A 
ATOM     32  C   UNL     1       3.322  -7.856  -2.408  0.00  0.00    +0.004 A 
ENDBRANCH  12  27
TORSDOF 2
