REMARK  Name = ZINC08636357
REMARK  8 active torsions:
REMARK  status: ('A' for Active; 'I' for Inactive)
REMARK    1  A    between atoms: C_1  and  O_2
REMARK    2  A    between atoms: O_2  and  C_3
REMARK    3  A    between atoms: C_8  and  C_9
REMARK    4  A    between atoms: C_9  and  N_10
REMARK    5  A    between atoms: C_11  and  C_13
REMARK    6  A    between atoms: C_16  and  O_38
REMARK    7  A    between atoms: C_18  and  O_37
REMARK    8  A    between atoms: N_24  and  C_28
REMARK                            x       y       z     vdW  Elec       q    Type
REMARK                         _______ _______ _______ _____ _____    ______ ____
ROOT
ATOM      1  C   UNL     1       2.658   4.365  -1.071  0.00  0.00    +0.100 C 
ATOM      2  C   UNL     1       3.165   4.601  -2.474  0.00  0.00    +0.048 C 
ATOM      3  C   UNL     1       4.524   5.270  -2.480  0.00  0.00    +0.146 C 
ATOM      4  C   UNL     1       5.547   4.501  -1.684  0.00  0.00    +0.165 C 
ATOM      5  C   UNL     1       5.116   4.113  -0.289  0.00  0.00    +0.124 C 
ATOM      6  C   UNL     1       3.648   3.799  -0.116  0.00  0.00    +0.115 C 
ATOM      7  N   UNL     1       3.577   2.348   0.055  0.00  0.00    -0.277 N 
ATOM      8  C   UNL     1       4.832   1.883   0.188  0.00  0.00    +0.138 C 
ATOM      9  S   UNL     1       5.193   0.239   0.498  0.00  0.00    -0.018 S 
ATOM     10  N   UNL     1       5.774   2.828   0.052  0.00  0.00    -0.319 N 
ATOM     11  H   UNL     1       6.728   2.694   0.163  0.00  0.00    +0.148 HD
ENDROOT
BRANCH   7  12
ATOM     12  C   UNL     1       2.407   1.578   0.080  0.00  0.00    +0.039 A 
ATOM     13  C   UNL     1       2.152   0.668  -0.937  0.00  0.00    +0.027 A 
ATOM     14  C   UNL     1       0.998  -0.092  -0.913  0.00  0.00    +0.051 A 
ATOM     15  C   UNL     1       0.092   0.051   0.126  0.00  0.00    +0.166 A 
ATOM     16  C   UNL     1       0.346   0.962   1.148  0.00  0.00    +0.168 A 
ATOM     17  C   UNL     1       1.502   1.724   1.123  0.00  0.00    +0.073 A 
ATOM     18  O   UNL     1      -0.686   0.915   2.041  0.00  0.00    -0.453 OA
ATOM     19  C   UNL     1      -1.371  -0.323   1.771  0.00  0.00    +0.466 C 
ATOM     20  O   UNL     1      -1.099  -0.567   0.378  0.00  0.00    -0.453 OA
ENDBRANCH   7  12
BRANCH   1  22
ATOM     21  N   UNL     1       1.197   2.793  -2.302  0.00  0.00    -0.311 N 
ATOM     22  C   UNL     1       1.483   3.424  -1.145  0.00  0.00    +0.218 C 
ATOM     23  O   UNL     1       0.795   3.234  -0.165  0.00  0.00    -0.275 OA
ATOM     24  H   UNL     1       1.812   2.850  -3.050  0.00  0.00    +0.149 HD
BRANCH  21  25
ATOM     25  C   UNL     1      -0.042   2.023  -2.429  0.00  0.00    +0.143 C 
BRANCH  25  31
ATOM     26  C   UNL     1       0.469   0.509  -4.362  0.00  0.00    +0.125 A 
ATOM     27  C   UNL     1       0.293   0.122  -5.683  0.00  0.00    +0.046 A 
ATOM     28  C   UNL     1      -0.567   0.829  -6.500  0.00  0.00    +0.004 A 
ATOM     29  C   UNL     1      -1.255   1.920  -6.003  0.00  0.00    +0.001 A 
ATOM     30  C   UNL     1      -1.085   2.306  -4.686  0.00  0.00    +0.009 A 
ATOM     31  C   UNL     1      -0.227   1.601  -3.864  0.00  0.00    +0.011 A 
BRANCH  26  33
ATOM     32  C   UNL     1       2.000  -1.295  -4.137  0.00  0.00    +0.277 C 
ATOM     33  O   UNL     1       1.318  -0.182  -3.557  0.00  0.00    -0.495 OA
ENDBRANCH  26  33
ENDBRANCH  25  31
ENDBRANCH  21  25
ENDBRANCH   1  22
BRANCH   4  34
ATOM     34  O   UNL     1       5.869   3.307  -2.401  0.00  0.00    -0.387 OA
ATOM     35  H   UNL     1       6.236   3.464  -3.281  0.00  0.00    +0.210 HD
ENDBRANCH   4  34
BRANCH   3  36
ATOM     36  O   UNL     1       4.396   6.580  -1.922  0.00  0.00    -0.389 OA
ATOM     37  H   UNL     1       3.787   7.155  -2.405  0.00  0.00    +0.210 HD
ENDBRANCH   3  36
TORSDOF 7
