REMARK  Name = ZINC38798476
REMARK  8 active torsions:
REMARK  status: ('A' for Active; 'I' for Inactive)
REMARK    1  A    between atoms: C_1  and  C_2
REMARK    2  A    between atoms: C_2  and  C_3
REMARK    3  A    between atoms: C_5  and  C_11
REMARK    4  A    between atoms: C_7  and  C_9
REMARK    5  A    between atoms: C_9  and  C_10
REMARK    6  A    between atoms: C_11  and  C_19
REMARK    7  A    between atoms: N_14  and  C_18
REMARK    8  A    between atoms: C_23  and  C_25
REMARK                            x       y       z     vdW  Elec       q    Type
REMARK                         _______ _______ _______ _____ _____    ______ ____
ROOT
ATOM      1  C   UNL     1      -3.611  -2.844  -2.003  0.00  0.00    +0.162 C 
ATOM      2  C   UNL     1      -4.237  -2.015  -3.104  0.00  0.00    +0.254 C 
ATOM      3  O   UNL     1      -5.168  -1.246  -2.992  0.00  0.00    -0.272 OA
ATOM      4  N   UNL     1      -3.555  -2.296  -4.230  0.00  0.00    -0.247 N 
ATOM      5  C   UNL     1      -2.559  -3.212  -3.994  0.00  0.00    +0.161 C 
ATOM      6  N   UNL     1      -2.532  -3.588  -2.674  0.00  0.00    -0.297 N 
ATOM      7  N   UNL     1      -1.746  -3.665  -4.904  0.00  0.00    -0.375 N 
ATOM      8  C   UNL     1      -3.840  -1.703  -5.539  0.00  0.00    +0.141 C 
ATOM      9  H   UNL     1      -1.823  -3.356  -5.820  0.00  0.00    +0.158 HD
ATOM     10  H   UNL     1      -1.921  -4.220  -2.263  0.00  0.00    +0.150 HD
ATOM     11  H   UNL     1      -1.064  -4.313  -4.667  0.00  0.00    +0.158 HD
ENDROOT
BRANCH   1  14
ATOM     12  C   UNL     1      -3.231  -0.093   0.558  0.00  0.00    +0.042 A 
ATOM     13  C   UNL     1      -3.782  -0.889  -0.428  0.00  0.00    +0.030 A 
ATOM     14  C   UNL     1      -3.045  -1.952  -0.928  0.00  0.00    -0.007 A 
ATOM     15  C   UNL     1      -1.777  -2.175  -0.415  0.00  0.00    +0.030 A 
ATOM     16  C   UNL     1      -1.292  -1.337   0.571  0.00  0.00    +0.042 A 
ATOM     17  N   UNL     1      -2.018  -0.332   1.019  0.00  0.00    -0.257 NA
BRANCH  12  19
ATOM     18  C   UNL     1      -4.117   0.940   2.631  0.00  0.00    +0.010 C 
ATOM     19  C   UNL     1      -4.022   1.065   1.109  0.00  0.00    +0.052 C 
ENDBRANCH  12  19
BRANCH  16  20
ATOM     20  C   UNL     1       0.086  -1.570   1.136  0.00  0.00    +0.052 C 
ATOM     21  C   UNL     1       0.915  -0.292   1.002  0.00  0.00    +0.010 C 
ENDBRANCH  16  20
ENDBRANCH   1  14
BRANCH   1  22
ATOM     22  C   UNL     1      -4.622  -3.796  -1.418  0.00  0.00    -0.010 A 
ATOM     23  C   UNL     1      -5.838  -3.318  -0.965  0.00  0.00    +0.006 A 
ATOM     24  C   UNL     1      -6.771  -4.186  -0.427  0.00  0.00    +0.001 A 
ATOM     25  C   UNL     1      -6.492  -5.535  -0.339  0.00  0.00    +0.008 A 
ATOM     26  C   UNL     1      -5.269  -6.022  -0.794  0.00  0.00    -0.015 A 
ATOM     27  C   UNL     1      -4.335  -5.144  -1.340  0.00  0.00    +0.015 A 
BRANCH  26  28
ATOM     28  C   UNL     1      -4.964  -7.471  -0.703  0.00  0.00    +0.018 A 
ATOM     29  C   UNL     1      -3.740  -7.977  -1.149  0.00  0.00    +0.122 A 
ATOM     30  N   UNL     1      -3.508  -9.274  -1.048  0.00  0.00    -0.243 NA
ATOM     31  C   UNL     1      -4.412 -10.086  -0.537  0.00  0.00    +0.221 A 
ATOM     32  N   UNL     1      -5.579  -9.651  -0.105  0.00  0.00    -0.243 NA
ATOM     33  C   UNL     1      -5.890  -8.367  -0.163  0.00  0.00    +0.122 A 
ENDBRANCH  26  28
ENDBRANCH   1  22
TORSDOF 5
