REMARK  Name = ZINC64899940
REMARK  7 active torsions:
REMARK  status: ('A' for Active; 'I' for Inactive)
REMARK    1  A    between atoms: C_1  and  O_2
REMARK    2  A    between atoms: O_2  and  C_3
REMARK    3  A    between atoms: C_3  and  C_4
REMARK    4  A    between atoms: C_4  and  N_5
REMARK    5  A    between atoms: N_8  and  N_9
REMARK    6  A    between atoms: C_10  and  C_12
REMARK    7  A    between atoms: C_13  and  C_14
REMARK                            x       y       z     vdW  Elec       q    Type
REMARK                         _______ _______ _______ _____ _____    ______ ____
ROOT
ATOM      1  N   UNL     1       0.673  -3.337   3.570  0.00  0.00    -0.230 N 
ATOM      2  C   UNL     1       1.260  -3.741   4.714  0.00  0.00    +0.253 C 
ATOM      3  O   UNL     1       1.466  -4.925   4.907  0.00  0.00    -0.269 OA
ATOM      4  H   UNL     1       0.509  -2.394   3.416  0.00  0.00    +0.173 HD
ENDROOT
BRANCH   1   8
ATOM      5  N   UNL     1      -0.515  -2.565   1.245  0.00  0.00    -0.296 N 
ATOM      6  C   UNL     1      -0.287  -3.876   1.459  0.00  0.00    +0.316 C 
ATOM      7  O   UNL     1      -0.611  -4.695   0.620  0.00  0.00    -0.251 OA
ATOM      8  N   UNL     1       0.300  -4.280   2.603  0.00  0.00    -0.218 N 
ATOM      9  H   UNL     1      -0.257  -1.913   1.914  0.00  0.00    +0.150 HD
ATOM     10  H   UNL     1       0.464  -5.224   2.757  0.00  0.00    +0.174 HD
BRANCH   5  11
ATOM     11  C   UNL     1      -1.154  -2.126   0.002  0.00  0.00    +0.134 C 
BRANCH  11  12
ATOM     12  C   UNL     1      -1.295  -0.603   0.011  0.00  0.00    +0.178 C 
BRANCH  12  14
ATOM     13  C   UNL     1      -0.017   1.425   0.010  0.00  0.00    +0.194 C 
ATOM     14  O   UNL     1       0.002  -0.004   0.002  0.00  0.00    -0.381 OA
ENDBRANCH  12  14
ENDBRANCH  11  12
ENDBRANCH   5  11
ENDBRANCH   1   8
BRANCH   2  15
ATOM     15  C   UNL     1       1.650  -2.757   5.723  0.00  0.00    +0.069 C 
ATOM     16  C   UNL     1       2.238  -3.161   6.868  0.00  0.00    +0.013 C 
BRANCH  16  17
ATOM     17  C   UNL     1       2.629  -2.172   7.883  0.00  0.00    -0.020 A 
ATOM     18  C   UNL     1       3.245  -2.588   9.069  0.00  0.00    +0.057 A 
ATOM     19  C   UNL     1       3.611  -1.655  10.019  0.00  0.00    +0.168 A 
ATOM     20  C   UNL     1       3.368  -0.299   9.796  0.00  0.00    +0.184 A 
ATOM     21  C   UNL     1       2.758   0.115   8.618  0.00  0.00    +0.087 A 
ATOM     22  C   UNL     1       2.393  -0.810   7.663  0.00  0.00    +0.031 A 
ATOM     23 CL   UNL     1       2.458   1.803   8.346  0.00  0.00    -0.080 Cl
ATOM     24  O   UNL     1       3.819   0.406  10.873  0.00  0.00    -0.451 OA
ATOM     25  C   UNL     1       3.965  -0.559  11.931  0.00  0.00    +0.466 C 
ATOM     26  O   UNL     1       4.213  -1.795  11.236  0.00  0.00    -0.453 OA
ENDBRANCH  16  17
ENDBRANCH   2  15
TORSDOF 6
