REMARK  Name = ZINC21084156
REMARK  10 active torsions:
REMARK  status: ('A' for Active; 'I' for Inactive)
REMARK    1  A    between atoms: C_1  and  N_2
REMARK    2  A    between atoms: C_6  and  S_7
REMARK    3  A    between atoms: S_7  and  C_8
REMARK    4  A    between atoms: N_13  and  N_14
REMARK    5  A    between atoms: C_15  and  C_16
REMARK    6  A    between atoms: C_18  and  N_25
REMARK    7  A    between atoms: C_20  and  O_22
REMARK    8  A    between atoms: O_22  and  C_23
REMARK    9  A    between atoms: N_28  and  C_35
REMARK   10  A    between atoms: N_31  and  C_34
REMARK                            x       y       z     vdW  Elec       q    Type
REMARK                         _______ _______ _______ _____ _____    ______ ____
ROOT
ATOM      1  C   UNL     1      -6.825   0.870   0.039  0.00  0.00    +0.217 A 
ATOM      2  N   UNL     1      -5.963   1.932   0.041  0.00  0.00    -0.186 NA
ATOM      3  C   UNL     1      -4.701   1.396   0.032  0.00  0.00    +0.232 A 
ATOM      4  N   UNL     1      -4.834   0.061   0.019  0.00  0.00    -0.245 N 
ATOM      5  N   UNL     1      -6.082  -0.248   0.029  0.00  0.00    -0.144 NA
ATOM      6  N   UNL     1      -3.547   2.080   0.030  0.00  0.00    -0.205 N 
ATOM      7  H   UNL     1      -3.559   3.180   0.036  0.00  0.00    +0.177 HD
ATOM      8  H   UNL     1      -3.941  -0.581   0.003  0.00  0.00    +0.192 HD
ENDROOT
BRANCH   6   9
ATOM      9  N   UNL     1      -2.422   1.448   0.021  0.00  0.00    -0.188 NA
ATOM     10  C   UNL     1      -1.291   2.119   0.020  0.00  0.00    +0.138 C 
BRANCH  10  11
ATOM     11  C   UNL     1      -0.017   1.403   0.010  0.00  0.00    +0.000 A 
ATOM     12  C   UNL     1       0.002  -0.004   0.002  0.00  0.00    +0.046 A 
ATOM     13  C   UNL     1       1.192  -0.671  -0.013  0.00  0.00    +0.177 A 
ATOM     14  C   UNL     1       2.393   0.033  -0.021  0.00  0.00    +0.250 A 
ATOM     15  C   UNL     1       2.389   1.432  -0.013  0.00  0.00    +0.169 A 
ATOM     16  C   UNL     1       1.194   2.117   0.002  0.00  0.00    +0.059 A 
ATOM     17  O   UNL     1       3.570  -0.640  -0.035  0.00  0.00    -0.282 OA
BRANCH  13  18
ATOM     18  N   UNL     1       1.206  -2.151  -0.021  0.00  0.00    +0.060 N 
ATOM     19  O   UNL     1       0.072  -2.821  -0.015  0.00  0.00    -0.126 OA
ATOM     20  O   UNL     1       2.353  -2.799  -0.036  0.00  0.00    -0.126 OA
ENDBRANCH  13  18
BRANCH  15  21
ATOM     21  O   UNL     1       3.565   2.116  -0.019  0.00  0.00    -0.491 OA
ATOM     22  C   UNL     1       3.486   3.542  -0.010  0.00  0.00    +0.277 C 
ENDBRANCH  15  21
ENDBRANCH  10  11
ENDBRANCH   6   9
BRANCH   1  23
ATOM     23  S   UNL     1      -8.535   0.951   0.047  0.00  0.00    -0.010 S 
BRANCH  23  29
ATOM     24  C   UNL     1     -11.438  -0.540   0.052  0.00  0.00    +0.151 C 
ATOM     25  N   UNL     1     -10.180  -1.290   0.043  0.00  0.00    -0.316 N 
ATOM     26  C   UNL     1     -10.041  -2.663   0.035  0.00  0.00    +0.152 A 
ATOM     27  C   UNL     1      -8.670  -2.921   0.028  0.00  0.00    +0.169 A 
ATOM     28  N   UNL     1      -8.041  -1.748   0.025  0.00  0.00    -0.203 NA
ATOM     29  C   UNL     1      -8.923  -0.767   0.040  0.00  0.00    +0.179 A 
ATOM     30  N   UNL     1      -8.240  -4.238   0.019  0.00  0.00    -0.280 N 
ATOM     31  C   UNL     1      -9.137  -5.242   0.018  0.00  0.00    +0.333 A 
ATOM     32  O   UNL     1      -8.739  -6.391   0.010  0.00  0.00    -0.246 OA
ATOM     33  N   UNL     1     -10.460  -5.008   0.025  0.00  0.00    -0.262 N 
ATOM     34  C   UNL     1     -10.945  -3.749   0.033  0.00  0.00    +0.282 A 
ATOM     35  O   UNL     1     -12.146  -3.551   0.040  0.00  0.00    -0.265 OA
ATOM     36  C   UNL     1     -11.392  -6.139   0.024  0.00  0.00    +0.157 C 
ATOM     37  C   UNL     1      -6.806  -4.539   0.011  0.00  0.00    +0.155 C 
ENDBRANCH  23  29
ENDBRANCH   1  23
TORSDOF 6
