REMARK  Name = ZINC12785054
REMARK  9 active torsions:
REMARK  status: ('A' for Active; 'I' for Inactive)
REMARK    1  A    between atoms: C_1  and  C_2
REMARK    2  A    between atoms: C_5  and  C_7
REMARK    3  A    between atoms: C_7  and  N_8
REMARK    4  A    between atoms: N_8  and  C_9
REMARK    5  A    between atoms: N_8  and  C_10
REMARK    6  A    between atoms: C_10  and  C_12
REMARK    7  A    between atoms: C_10  and  C_13
REMARK    8  A    between atoms: N_19  and  C_20
REMARK    9  A    between atoms: N_19  and  C_21
REMARK                            x       y       z     vdW  Elec       q    Type
REMARK                         _______ _______ _______ _____ _____    ______ ____
ROOT
ATOM      1  C   UNL     1       3.353  -4.963  -2.903  0.00  0.00    +0.153 A 
ATOM      2  N   UNL     1       3.435  -4.012  -3.817  0.00  0.00    -0.198 NA
ATOM      3  C   UNL     1       3.681  -4.326  -5.087  0.00  0.00    +0.217 A 
ATOM      4  N   UNL     1       3.845  -5.598  -5.435  0.00  0.00    -0.181 NA
ATOM      5  C   UNL     1       3.762  -6.551  -4.513  0.00  0.00    +0.222 A 
ATOM      6  N   UNL     1       3.520  -6.229  -3.245  0.00  0.00    -0.198 NA
ATOM      7  N   UNL     1       3.931  -7.873  -4.870  0.00  0.00    -0.306 N 
ATOM      8  C   UNL     1       4.202  -8.227  -6.266  0.00  0.00    +0.132 C 
ATOM      9  C   UNL     1       3.839  -8.924  -3.853  0.00  0.00    +0.132 C 
ATOM     10  N   UNL     1       3.766  -3.333  -6.041  0.00  0.00    -0.327 N 
ATOM     11  H   UNL     1       3.646  -2.404  -5.786  0.00  0.00    +0.145 HD
ATOM     12  H   UNL     1       3.945  -3.562  -6.966  0.00  0.00    +0.145 HD
ENDROOT
BRANCH   1  13
ATOM     13  C   UNL     1       3.075  -4.603  -1.467  0.00  0.00    +0.122 C 
ATOM     14  C   UNL     1       4.334  -4.002  -0.838  0.00  0.00    +0.032 C 
BRANCH  13  15
ATOM     15  N   UNL     1       1.984  -3.621  -1.411  0.00  0.00    -0.289 NA
ATOM     16  C   UNL     1       0.784  -4.128  -2.090  0.00  0.00    +0.106 C 
BRANCH  15  17
ATOM     17  C   UNL     1       1.684  -3.245  -0.023  0.00  0.00    +0.159 C 
BRANCH  17  22
ATOM     18  C   UNL     1      -0.018   1.503   0.010  0.00  0.00    +0.086 C 
ATOM     19  C   UNL     1       0.002  -0.004   0.002  0.00  0.00    +0.102 A 
ATOM     20  C   UNL     1      -1.078  -0.805   0.003  0.00  0.00    +0.044 A 
ATOM     21  C   UNL     1      -0.601  -2.136  -0.007  0.00  0.00    +0.046 A 
ATOM     22  C   UNL     1       0.742  -2.069  -0.013  0.00  0.00    +0.119 A 
ATOM     23  O   UNL     1       1.102  -0.775  -0.013  0.00  0.00    -0.464 OA
ENDBRANCH  17  22
ENDBRANCH  15  17
ENDBRANCH  13  15
ENDBRANCH   1  13
TORSDOF 4
