REMARK  Name = ZINC33717842
REMARK  10 active torsions:
REMARK  status: ('A' for Active; 'I' for Inactive)
REMARK    1  A    between atoms: C_1  and  C_2
REMARK    2  A    between atoms: C_2  and  C_3
REMARK    3  A    between atoms: C_3  and  C_4
REMARK    4  A    between atoms: C_4  and  N_5
REMARK    5  A    between atoms: C_10  and  C_28
REMARK    6  A    between atoms: C_13  and  C_18
REMARK    7  A    between atoms: C_13  and  C_25
REMARK    8  A    between atoms: C_18  and  C_19
REMARK    9  A    between atoms: C_19  and  C_20
REMARK   10  A    between atoms: C_20  and  N_21
REMARK                            x       y       z     vdW  Elec       q    Type
REMARK                         _______ _______ _______ _____ _____    ______ ____
ROOT
ATOM      1  N   UNL     1      -2.079   0.840   0.449  0.00  0.00    -0.242 N 
ATOM      2  C   UNL     1      -1.204   1.842   0.791  0.00  0.00    +0.224 C 
ATOM      3  O   UNL     1      -1.387   2.748   1.575  0.00  0.00    -0.275 OA
ATOM      4  C   UNL     1      -0.019   1.577   0.011  0.00  0.00    +0.077 C 
ATOM      5  C   UNL     1       1.421   1.893  -0.001  0.00  0.00    -0.027 C 
ATOM      6  N   UNL     1       1.940   0.949  -1.051  0.00  0.00    +0.395 N 
ATOM      7  C   UNL     1       0.977  -0.187  -1.160  0.00  0.00    +0.048 C 
ATOM      8  C   UNL     1       0.002  -0.004   0.002  0.00  0.00    +0.086 C 
ATOM      9  C   UNL     1      -1.474  -0.178  -0.233  0.00  0.00    +0.225 C 
ATOM     10  O   UNL     1      -2.014  -1.042  -0.890  0.00  0.00    -0.275 OA
ATOM     11  H   UNL     1       2.017   1.478  -2.013  0.00  0.00    -0.083 HD
ATOM     12  H   UNL     1       2.933   0.581  -0.754  0.00  0.00    -0.083 HD
ENDROOT
BRANCH   5  13
ATOM     13  C   UNL     1       1.654   3.326  -0.404  0.00  0.00    -0.061 A 
ATOM     14  C   UNL     1       1.623   3.683  -1.739  0.00  0.00    +0.003 A 
ATOM     15  C   UNL     1       1.832   4.999  -2.108  0.00  0.00    +0.015 A 
ATOM     16  C   UNL     1       2.082   5.956  -1.141  0.00  0.00    +0.018 A 
ATOM     17  C   UNL     1       2.118   5.598   0.194  0.00  0.00    +0.015 A 
ATOM     18  C   UNL     1       1.903   4.283   0.563  0.00  0.00    +0.003 A 
ATOM     19 BR   UNL     1       2.375   7.755  -1.646  0.00  0.00    -0.050 Br
ENDBRANCH   5  13
BRANCH   7  20
ATOM     20  C   UNL     1       1.701  -1.502  -1.032  0.00  0.00    +0.346 C 
ATOM     21  O   UNL     1       1.197  -2.412  -0.417  0.00  0.00    -0.248 OA
ATOM     22  O   UNL     1       2.906  -1.663  -1.601  0.00  0.00    -0.248 OA
ENDBRANCH   7  20
BRANCH   1  23
ATOM     23  C   UNL     1      -3.506   0.860   0.780  0.00  0.00    +0.116 C 
BRANCH  23  24
ATOM     24  C   UNL     1      -3.722   0.198   2.143  0.00  0.00    +0.019 C 
BRANCH  24  26
ATOM     25  C   UNL     1      -5.429  -0.442   3.851  0.00  0.00    +0.004 C 
ATOM     26  C   UNL     1      -5.212   0.219   2.489  0.00  0.00    -0.002 C 
ENDBRANCH  24  26
ENDBRANCH  23  24
ENDBRANCH   1  23
BRANCH   7  27
ATOM     27  C   UNL     1       0.229  -0.122  -2.494  0.00  0.00    +0.001 C 
BRANCH  27  28
ATOM     28  C   UNL     1       1.221  -0.307  -3.644  0.00  0.00    +0.018 C 
BRANCH  28  29
ATOM     29  C   UNL     1       0.474  -0.242  -4.977  0.00  0.00    +0.105 C 
BRANCH  29  30
ATOM     30  N   UNL     1       1.424  -0.419  -6.079  0.00  0.00    -0.300 N 
ATOM     31  C   UNL     1       0.988  -0.399  -7.354  0.00  0.00    +0.297 C 
ATOM     32  O   UNL     1      -0.193  -0.233  -7.590  0.00  0.00    -0.253 OA
ATOM     33  N   UNL     1       1.862  -0.561  -8.367  0.00  0.00    -0.313 N 
ATOM     34  H   UNL     1       2.492  -0.570  -5.864  0.00  0.00    +0.150 HD
ATOM     35  H   UNL     1       1.507  -0.544  -9.408  0.00  0.00    +0.146 HD
ATOM     36  H   UNL     1       2.931  -0.712  -8.153  0.00  0.00    +0.146 HD
ENDBRANCH  29  30
ENDBRANCH  28  29
ENDBRANCH  27  28
ENDBRANCH   7  27
TORSDOF 9
