REMARK  Name = ZINC12149850
REMARK  8 active torsions:
REMARK  status: ('A' for Active; 'I' for Inactive)
REMARK    1  A    between atoms: C_1  and  C_2
REMARK    2  A    between atoms: C_2  and  C_19
REMARK    3  A    between atoms: N_5  and  C_9
REMARK    4  A    between atoms: C_9  and  C_10
REMARK    5  A    between atoms: C_10  and  C_11
REMARK    6  A    between atoms: C_14  and  O_17
REMARK    7  A    between atoms: O_17  and  C_18
REMARK    8  A    between atoms: C_25  and  C_27
REMARK                            x       y       z     vdW  Elec       q    Type
REMARK                         _______ _______ _______ _____ _____    ______ ____
ROOT
ATOM      1  C   UNL     1      -2.290   4.002   2.902  0.00  0.00    +0.042 C 
ATOM      2  C   UNL     1      -1.366   2.788   3.019  0.00  0.00    +0.113 C 
ATOM      3  C   UNL     1      -0.418   2.719   1.838  0.00  0.00    +0.247 C 
ATOM      4  O   UNL     1       0.418   3.538   1.521  0.00  0.00    -0.273 OA
ATOM      5  N   UNL     1      -0.698   1.558   1.213  0.00  0.00    -0.224 N 
ATOM      6  C   UNL     1      -1.677   0.888   1.833  0.00  0.00    +0.309 C 
ATOM      7  O   UNL     1      -2.101  -0.188   1.459  0.00  0.00    -0.252 OA
ATOM      8  N   UNL     1      -2.138   1.538   2.917  0.00  0.00    -0.285 N 
ATOM      9  H   UNL     1      -2.841   1.241   3.515  0.00  0.00    +0.151 HD
ENDROOT
BRANCH   2  10
ATOM     10  C   UNL     1      -0.584   2.833   4.334  0.00  0.00    +0.024 C 
ATOM     11  C   UNL     1       0.356   1.627   4.409  0.00  0.00    +0.025 C 
ATOM     12  C   UNL     1       1.162   1.694   5.710  0.00  0.00    +0.108 C 
ATOM     13  N   UNL     1       0.228   1.802   6.839  0.00  0.00    -0.299 N 
ATOM     14  C   UNL     1      -0.779   2.872   6.824  0.00  0.00    +0.108 C 
ATOM     15  C   UNL     1      -1.563   2.792   5.510  0.00  0.00    +0.025 C 
ATOM     16  C   UNL     1       0.294   0.936   7.870  0.00  0.00    +0.244 C 
ATOM     17  O   UNL     1      -0.482   1.035   8.796  0.00  0.00    -0.273 OA
BRANCH  16  18
ATOM     18  C   UNL     1       1.332  -0.157   7.871  0.00  0.00    +0.204 C 
ATOM     19  C   UNL     1       1.073  -1.147   6.714  0.00  0.00    +0.043 C 
ATOM     20  C   UNL     1       1.437  -2.525   7.311  0.00  0.00    +0.031 C 
ATOM     21  C   UNL     1       1.873  -2.204   8.757  0.00  0.00    +0.161 C 
ATOM     22  O   UNL     1       1.222  -0.953   9.070  0.00  0.00    -0.367 OA
ENDBRANCH  16  18
ENDBRANCH   2  10
BRANCH   5  23
ATOM     23  C   UNL     1      -0.013   1.086   0.008  0.00  0.00    +0.122 C 
BRANCH  23  24
ATOM     24  C   UNL     1      -0.753   1.593  -1.232  0.00  0.00    +0.054 C 
BRANCH  24  25
ATOM     25  C   UNL     1      -0.047   1.107  -2.471  0.00  0.00    -0.046 A 
ATOM     26  C   UNL     1       0.950   1.874  -3.044  0.00  0.00    +0.007 A 
ATOM     27  C   UNL     1       1.602   1.428  -4.177  0.00  0.00    +0.046 A 
ATOM     28  C   UNL     1       1.248   0.214  -4.747  0.00  0.00    +0.120 A 
ATOM     29  C   UNL     1       0.242  -0.551  -4.175  0.00  0.00    +0.046 A 
ATOM     30  C   UNL     1      -0.403  -0.103  -3.038  0.00  0.00    +0.007 A 
BRANCH  28  31
ATOM     31  O   UNL     1       1.884  -0.224  -5.865  0.00  0.00    -0.495 OA
ATOM     32  C   UNL     1       2.909   0.616  -6.400  0.00  0.00    +0.277 C 
ENDBRANCH  28  31
ENDBRANCH  24  25
ENDBRANCH  23  24
ENDBRANCH   5  23
TORSDOF 6
