REMARK  Name = ZINC61700519
REMARK  8 active torsions:
REMARK  status: ('A' for Active; 'I' for Inactive)
REMARK    1  A    between atoms: C_1  and  C_2
REMARK    2  A    between atoms: C_2  and  C_3
REMARK    3  A    between atoms: C_3  and  N_4
REMARK    4  A    between atoms: C_10  and  S_11
REMARK    5  A    between atoms: S_11  and  C_12
REMARK    6  A    between atoms: C_15  and  C_19
REMARK    7  A    between atoms: C_19  and  C_21
REMARK    8  A    between atoms: C_19  and  N_22
REMARK                            x       y       z     vdW  Elec       q    Type
REMARK                         _______ _______ _______ _____ _____    ______ ____
ROOT
ATOM      1  C   UNL     1      -1.315  -3.670   3.847  0.00  0.00    +0.030 A 
ATOM      2  C   UNL     1      -1.201  -4.943   3.303  0.00  0.00    +0.016 A 
ATOM      3  C   UNL     1      -1.147  -6.045   4.133  0.00  0.00    +0.003 A 
ATOM      4  C   UNL     1      -1.207  -5.882   5.505  0.00  0.00    -0.061 A 
ATOM      5  C   UNL     1      -1.322  -4.617   6.051  0.00  0.00    +0.018 A 
ATOM      6  C   UNL     1      -1.370  -3.509   5.226  0.00  0.00    +0.032 A 
ATOM      7 BR   UNL     1      -1.519  -1.778   5.973  0.00  0.00    -0.049 Br
ENDROOT
BRANCH   4   8
ATOM      8  C   UNL     1      -1.149  -7.088   6.408  0.00  0.00    -0.047 C 
ATOM      9  C   UNL     1       0.269  -7.241   6.964  0.00  0.00    -0.009 C 
BRANCH   8  10
ATOM     10  N   UNL     1      -2.094  -6.914   7.519  0.00  0.00    +0.382 N 
ATOM     11  H   UNL     1      -2.055  -7.721   8.123  0.00  0.00    -0.089 HD
ATOM     12  H   UNL     1      -1.848  -6.088   8.044  0.00  0.00    -0.089 HD
ATOM     13  H   UNL     1      -3.029  -6.813   7.152  0.00  0.00    -0.089 HD
ENDBRANCH   8  10
ENDBRANCH   4   8
BRANCH   1  14
ATOM     14  S   UNL     1      -1.384  -2.261   2.791  0.00  0.00    -0.049 S 
BRANCH  14  21
ATOM     15  N   UNL     1      -3.619  -0.682   2.205  0.00  0.00    -0.270 N 
ATOM     16  C   UNL     1      -4.948  -0.673   2.431  0.00  0.00    +0.345 A 
ATOM     17  O   UNL     1      -5.739   0.168   2.041  0.00  0.00    -0.245 OA
ATOM     18  N   UNL     1      -5.243  -1.764   3.167  0.00  0.00    -0.226 N 
ATOM     19  H   UNL     1      -6.123  -2.023   3.482  0.00  0.00    +0.194 HD
ATOM     20  N   UNL     1      -4.044  -2.456   3.391  0.00  0.00    -0.144 NA
ATOM     21  C   UNL     1      -3.085  -1.799   2.806  0.00  0.00    +0.197 A 
BRANCH  15  22
ATOM     22  C   UNL     1      -2.872   0.323   1.444  0.00  0.00    +0.129 C 
BRANCH  22  24
ATOM     23  C   UNL     1      -2.049   0.966  -0.826  0.00  0.00    +0.005 C 
ATOM     24  C   UNL     1      -2.829  -0.083  -0.031  0.00  0.00    +0.018 C 
ENDBRANCH  22  24
ENDBRANCH  15  22
ENDBRANCH  14  21
ENDBRANCH   1  14
TORSDOF 6
