REMARK  Name = ZINC20728521
REMARK  9 active torsions:
REMARK  status: ('A' for Active; 'I' for Inactive)
REMARK    1  A    between atoms: C_1  and  O_2
REMARK    2  A    between atoms: O_2  and  C_3
REMARK    3  A    between atoms: C_6  and  C_13
REMARK    4  A    between atoms: C_7  and  O_11
REMARK    5  A    between atoms: C_8  and  O_9
REMARK    6  A    between atoms: O_9  and  C_10
REMARK    7  A    between atoms: O_11  and  C_12
REMARK    8  A    between atoms: C_15  and  C_31
REMARK    9  A    between atoms: C_16  and  N_30
REMARK                            x       y       z     vdW  Elec       q    Type
REMARK                         _______ _______ _______ _____ _____    ______ ____
ROOT
ATOM      1  C   UNL     1       2.280  -2.384   4.620  0.00  0.00    +0.105 C 
ATOM      2  C   UNL     1       3.769  -2.189   4.683  0.00  0.00    +0.098 C 
ATOM      3  C   UNL     1       4.306  -1.203   5.444  0.00  0.00    +0.199 C 
ATOM      4  O   UNL     1       3.528  -0.375   6.160  0.00  0.00    -0.437 OA
ATOM      5  C   UNL     1       2.262  -0.731   6.474  0.00  0.00    +0.185 C 
ATOM      6  C   UNL     1       1.615  -1.682   5.777  0.00  0.00    +0.059 C 
ATOM      7  C   UNL     1       0.239  -2.058   6.129  0.00  0.00    +0.194 C 
ATOM      8  O   UNL     1      -0.334  -2.921   5.493  0.00  0.00    -0.287 OA
ATOM      9  C   UNL     1      -0.451  -1.392   7.254  0.00  0.00    +0.033 A 
ATOM     10  C   UNL     1      -1.753  -1.735   7.596  0.00  0.00    +0.012 A 
ATOM     11  C   UNL     1      -2.378  -1.095   8.655  0.00  0.00    +0.001 A 
ATOM     12  C   UNL     1      -1.716  -0.118   9.373  0.00  0.00    +0.001 A 
ATOM     13  C   UNL     1      -0.417   0.235   9.044  0.00  0.00    +0.012 A 
ATOM     14  C   UNL     1       0.223  -0.398   7.985  0.00  0.00    +0.036 A 
ATOM     15  C   UNL     1       1.597  -0.046   7.612  0.00  0.00    +0.229 C 
ATOM     16  O   UNL     1       2.191   0.809   8.237  0.00  0.00    -0.283 OA
ENDROOT
BRANCH   1  20
ATOM     17  C   UNL     1       0.792  -0.781   0.942  0.00  0.00    +0.165 A 
ATOM     18  C   UNL     1       0.411  -2.048   1.356  0.00  0.00    +0.050 A 
ATOM     19  C   UNL     1       0.893  -2.563   2.545  0.00  0.00    +0.012 A 
ATOM     20  C   UNL     1       1.758  -1.818   3.325  0.00  0.00    +0.011 A 
ATOM     21  C   UNL     1       2.144  -0.550   2.918  0.00  0.00    +0.169 A 
ATOM     22  C   UNL     1       1.665  -0.031   1.720  0.00  0.00    +0.204 A 
BRANCH  17  24
ATOM     23  C   UNL     1      -0.578  -1.101  -0.976  0.00  0.00    +0.277 C 
ATOM     24  O   UNL     1       0.316  -0.275  -0.227  0.00  0.00    -0.491 OA
ENDBRANCH  17  24
BRANCH  22  25
ATOM     25  O   UNL     1       2.046   1.211   1.315  0.00  0.00    -0.488 OA
ATOM     26  C   UNL     1       1.239   2.309   1.743  0.00  0.00    +0.277 C 
ENDBRANCH  22  25
BRANCH  21  27
ATOM     27  O   UNL     1       2.993   0.183   3.687  0.00  0.00    -0.491 OA
ATOM     28  C   UNL     1       4.344   0.294   3.235  0.00  0.00    +0.277 C 
ENDBRANCH  21  27
ENDBRANCH   1  20
BRANCH   3  29
ATOM     29  N   UNL     1       5.669  -1.050   5.485  0.00  0.00    -0.328 N 
ATOM     30  H   UNL     1       6.239  -1.644   4.972  0.00  0.00    +0.145 HD
ATOM     31  H   UNL     1       6.062  -0.348   6.026  0.00  0.00    +0.145 HD
ENDBRANCH   3  29
BRANCH   2  32
ATOM     32  C   UNL     1       4.630  -3.053   3.933  0.00  0.00    +0.101 C 
ATOM     33  N   UNL     1       5.313  -3.738   3.337  0.00  0.00    -0.191 NA
ENDBRANCH   2  32
TORSDOF 6
