REMARK  Name = ZINC39738846
REMARK  13 active torsions:
REMARK  status: ('A' for Active; 'I' for Inactive)
REMARK    1  A    between atoms: C_1  and  C_2
REMARK    2  A    between atoms: C_3  and  C_30
REMARK    3  A    between atoms: C_4  and  C_29
REMARK    4  A    between atoms: C_7  and  C_8
REMARK    5  A    between atoms: C_8  and  C_10
REMARK    6  A    between atoms: C_10  and  C_12
REMARK    7  A    between atoms: C_10  and  S_13
REMARK    8  A    between atoms: S_13  and  C_14
REMARK    9  A    between atoms: C_20  and  C_25
REMARK   10  A    between atoms: C_25  and  C_26
REMARK   11  A    between atoms: C_25  and  C_27
REMARK   12  A    between atoms: C_25  and  C_28
REMARK   13  A    between atoms: C_30  and  C_32
REMARK                            x       y       z     vdW  Elec       q    Type
REMARK                         _______ _______ _______ _____ _____    ______ ____
ROOT
ATOM      1  S   UNL     1       0.355  -0.520   4.966  0.00  0.00    -0.115 S 
ENDROOT
BRANCH   1   2
ATOM      2  C   UNL     1       0.258  -1.712   6.330  0.00  0.00    +0.211 C 
ATOM      3  N   UNL     1       1.545  -2.430   6.522  0.00  0.00    -0.256 N 
ATOM      4  N   UNL     1       2.411  -1.837   7.395  0.00  0.00    -0.202 N 
ATOM      5  C   UNL     1       3.768  -2.020   7.425  0.00  0.00    +0.294 A 
ATOM      6  O   UNL     1       4.316  -2.719   6.589  0.00  0.00    -0.264 OA
ATOM      7  C   UNL     1       4.522  -1.391   8.431  0.00  0.00    +0.135 A 
ATOM      8  N   UNL     1       3.935  -0.619   9.315  0.00  0.00    -0.146 NA
ATOM      9  N   UNL     1       2.663  -0.422   9.261  0.00  0.00    -0.122 NA
ATOM     10  C   UNL     1       1.915  -0.981   8.342  0.00  0.00    +0.213 A 
ATOM     11  S   UNL     1       0.173  -0.866   7.967  0.00  0.00    -0.050 S 
ATOM     12  H   UNL     1       1.387  -3.396   6.770  0.00  0.00    +0.169 HD
BRANCH   7  13
ATOM     13  C   UNL     1       6.012  -1.604   8.494  0.00  0.00    +0.012 C 
ATOM     14  C   UNL     1       6.590  -0.815   9.671  0.00  0.00    +0.017 C 
ATOM     15  C   UNL     1       6.307  -3.093   8.684  0.00  0.00    +0.017 C 
ATOM     16  C   UNL     1       6.652  -1.119   7.192  0.00  0.00    +0.017 C 
ENDBRANCH   7  13
ENDBRANCH   1   2
BRANCH   1  17
ATOM     17  C   UNL     1       0.007  -1.514   3.489  0.00  0.00    +0.118 C 
ATOM     18  C   UNL     1      -1.443  -2.000   3.531  0.00  0.00    +0.027 C 
BRANCH  17  19
ATOM     19  C   UNL     1       0.218  -0.673   2.256  0.00  0.00    +0.192 C 
ATOM     20  O   UNL     1       0.120   0.535   2.321  0.00  0.00    -0.289 OA
BRANCH  19  27
ATOM     21  C   UNL     1       0.698   0.841  -0.415  0.00  0.00    +0.047 C 
ATOM     22  C   UNL     1       0.749  -0.646  -0.175  0.00  0.00    -0.012 A 
ATOM     23  C   UNL     1       1.036  -1.645  -1.133  0.00  0.00    +0.041 A 
ATOM     24  C   UNL     1       0.976  -2.867  -0.478  0.00  0.00    +0.024 A 
ATOM     25  N   UNL     1       0.671  -2.649   0.808  0.00  0.00    -0.355 N 
ATOM     26  H   UNL     1       0.568  -3.337   1.484  0.00  0.00    +0.166 HD
ATOM     27  C   UNL     1       0.532  -1.292   1.022  0.00  0.00    +0.087 A 
ATOM     28  C   UNL     1       1.214  -4.214  -1.109  0.00  0.00    +0.064 C 
BRANCH  23  29
ATOM     29  C   UNL     1       1.340  -1.430  -2.551  0.00  0.00    +0.162 C 
ATOM     30  O   UNL     1       0.443  -1.421  -3.369  0.00  0.00    -0.292 OA
ATOM     31  C   UNL     1       2.765  -1.220  -2.994  0.00  0.00    +0.091 C 
ENDBRANCH  23  29
ENDBRANCH  19  27
ENDBRANCH  17  19
ENDBRANCH   1  17
TORSDOF 6
