REMARK  Name = ZINC54871352
REMARK  4 active torsions:
REMARK  status: ('A' for Active; 'I' for Inactive)
REMARK    1  A    between atoms: C_1  and  N_2
REMARK    2  A    between atoms: C_10  and  C_11
REMARK    3  A    between atoms: N_13  and  N_14
REMARK    4  A    between atoms: C_15  and  C_17
REMARK                            x       y       z     vdW  Elec       q    Type
REMARK                         _______ _______ _______ _____ _____    ______ ____
ROOT
ATOM      1  C   UNL     1      -0.187  -0.353   2.509  0.00  0.00    +0.277 C 
ATOM      2  O   UNL     1      -0.098  -1.148   3.425  0.00  0.00    -0.267 OA
ATOM      3  N   UNL     1      -0.392   0.953   2.768  0.00  0.00    -0.229 N 
ATOM      4  H   UNL     1      -0.537   1.575   2.038  0.00  0.00    +0.173 HD
ENDROOT
BRANCH   1  14
ATOM      5  C   UNL     1       0.072  -3.297   1.615  0.00  0.00    +0.149 C 
ATOM      6  N   UNL     1       0.044  -2.136   0.722  0.00  0.00    -0.339 N 
ATOM      7  C   UNL     1       0.123  -2.181  -0.650  0.00  0.00    +0.049 A 
ATOM      8  C   UNL     1       0.243  -3.224  -1.564  0.00  0.00    +0.026 A 
ATOM      9  C   UNL     1       0.299  -2.949  -2.912  0.00  0.00    +0.002 A 
ATOM     10  C   UNL     1       0.238  -1.640  -3.372  0.00  0.00    +0.001 A 
ATOM     11  C   UNL     1       0.120  -0.601  -2.495  0.00  0.00    +0.010 A 
ATOM     12  C   UNL     1       0.061  -0.854  -1.118  0.00  0.00    +0.001 A 
ATOM     13  C   UNL     1      -0.058  -0.019   0.019  0.00  0.00    +0.041 A 
ATOM     14  C   UNL     1      -0.072  -0.818   1.119  0.00  0.00    +0.107 A 
ENDBRANCH   1  14
BRANCH   3  15
ATOM     15  N   UNL     1      -0.396   1.413   4.091  0.00  0.00    -0.231 N 
ATOM     16  C   UNL     1      -0.601   2.720   4.350  0.00  0.00    +0.273 C 
ATOM     17  O   UNL     1      -0.782   3.498   3.437  0.00  0.00    -0.270 OA
ATOM     18  H   UNL     1      -0.251   0.791   4.821  0.00  0.00    +0.173 HD
BRANCH  16  19
ATOM     19  C   UNL     1      -0.605   3.214   5.774  0.00  0.00    +0.297 C 
ATOM     20  C   UNL     1      -1.798   2.611   6.527  0.00  0.00    +0.283 C 
ATOM     21  O   UNL     1      -1.780   3.111   7.869  0.00  0.00    -0.484 OA
ATOM     22  C   UNL     1      -1.580   4.449   8.020  0.00  0.00    +0.162 A 
ATOM     23  C   UNL     1      -1.905   5.054   9.225  0.00  0.00    +0.049 A 
ATOM     24  C   UNL     1      -1.704   6.411   9.395  0.00  0.00    +0.004 A 
ATOM     25  C   UNL     1      -1.180   7.169   8.364  0.00  0.00    +0.004 A 
ATOM     26  C   UNL     1      -0.856   6.572   7.160  0.00  0.00    +0.049 A 
ATOM     27  C   UNL     1      -1.056   5.211   6.983  0.00  0.00    +0.163 A 
ATOM     28  O   UNL     1      -0.738   4.640   5.789  0.00  0.00    -0.472 OA
ENDBRANCH  16  19
ENDBRANCH   3  15
TORSDOF 3
