REMARK  Name = ZINC05858735
REMARK  9 active torsions:
REMARK  status: ('A' for Active; 'I' for Inactive)
REMARK    1  A    between atoms: C_1  and  C_2
REMARK    2  A    between atoms: C_2  and  C_3
REMARK    3  A    between atoms: C_2  and  C_4
REMARK    4  A    between atoms: C_4  and  C_5
REMARK    5  A    between atoms: C_5  and  S_6
REMARK    6  A    between atoms: S_6  and  C_7
REMARK    7  A    between atoms: C_14  and  C_26
REMARK    8  A    between atoms: C_19  and  C_23
REMARK    9  A    between atoms: C_19  and  C_24
REMARK                            x       y       z     vdW  Elec       q    Type
REMARK                         _______ _______ _______ _____ _____    ______ ____
ROOT
ATOM      1  C   UNL     1      -2.929  -4.430  -0.269  0.00  0.00    +0.171 A 
ATOM      2  N   UNL     1      -4.037  -5.223  -0.299  0.00  0.00    -0.322 N 
ATOM      3  C   UNL     1      -3.907  -6.581  -0.421  0.00  0.00    +0.111 A 
ATOM      4  C   UNL     1      -2.663  -7.126  -0.509  0.00  0.00    +0.069 A 
ATOM      5  C   UNL     1      -1.541  -6.269  -0.479  0.00  0.00    +0.280 A 
ATOM      6  N   UNL     1      -1.721  -4.945  -0.362  0.00  0.00    -0.185 NA
ATOM      7  O   UNL     1      -0.413  -6.732  -0.564  0.00  0.00    -0.265 OA
ATOM      8  C   UNL     1      -2.477  -8.609  -0.633  0.00  0.00    +0.092 C 
ATOM      9  C   UNL     1      -3.753  -9.287  -1.062  0.00  0.00    +0.024 C 
ATOM     10  C   UNL     1      -3.666 -10.589  -1.585  0.00  0.00    +0.162 C 
ATOM     11  C   UNL     1      -4.891 -11.329  -2.046  0.00  0.00    +0.086 C 
ATOM     12  C   UNL     1      -5.939 -10.314  -2.515  0.00  0.00    -0.023 C 
ATOM     13  C   UNL     1      -6.224  -9.345  -1.366  0.00  0.00    +0.058 C 
ATOM     14  C   UNL     1      -4.945  -8.662  -0.950  0.00  0.00    +0.017 C 
ATOM     15  N   UNL     1      -5.020  -7.388  -0.455  0.00  0.00    -0.304 N 
ATOM     16  C   UNL     1      -5.401  -9.540  -3.720  0.00  0.00    +0.011 C 
ATOM     17  C   UNL     1      -7.226 -11.046  -2.903  0.00  0.00    +0.011 C 
ATOM     18  O   UNL     1      -2.579 -11.128  -1.665  0.00  0.00    -0.292 OA
ATOM     19  H   UNL     1      -5.867  -7.051  -0.125  0.00  0.00    +0.153 HD
ATOM     20  H   UNL     1      -4.920  -4.825  -0.235  0.00  0.00    +0.169 HD
ENDROOT
BRANCH   8  21
ATOM     21  C   UNL     1      -2.050  -9.165   0.701  0.00  0.00    -0.032 A 
ATOM     22  C   UNL     1      -2.859  -9.030   1.819  0.00  0.00    +0.024 A 
ATOM     23  C   UNL     1      -2.433  -9.553   3.025  0.00  0.00    +0.111 A 
ATOM     24  N   UNL     1      -1.273 -10.173   3.120  0.00  0.00    -0.263 NA
ATOM     25  C   UNL     1      -0.478 -10.320   2.078  0.00  0.00    +0.111 A 
ATOM     26  C   UNL     1      -0.840  -9.829   0.838  0.00  0.00    +0.024 A 
ENDBRANCH   8  21
BRANCH   1  27
ATOM     27  S   UNL     1      -3.118  -2.686  -0.108  0.00  0.00    -0.088 S 
BRANCH  27  28
ATOM     28  C   UNL     1      -1.416  -2.058  -0.121  0.00  0.00    +0.077 C 
BRANCH  28  29
ATOM     29  C   UNL     1      -1.433  -0.534   0.013  0.00  0.00    +0.014 C 
BRANCH  29  31
ATOM     30  C   UNL     1      -0.019   1.526   0.010  0.00  0.00    +0.007 C 
ATOM     31  C   UNL     1       0.002  -0.004   0.002  0.00  0.00    -0.016 C 
ATOM     32  C   UNL     1       0.742  -0.511   1.242  0.00  0.00    +0.007 C 
ENDBRANCH  29  31
ENDBRANCH  28  29
ENDBRANCH  27  28
ENDBRANCH   1  27
TORSDOF 5
