REMARK  Name = ZINC21320692
REMARK  9 active torsions:
REMARK  status: ('A' for Active; 'I' for Inactive)
REMARK    1  A    between atoms: C_1  and  O_2
REMARK    2  A    between atoms: O_2  and  C_3
REMARK    3  A    between atoms: C_8  and  C_9
REMARK    4  A    between atoms: N_10  and  N_11
REMARK    5  A    between atoms: C_15  and  S_18
REMARK    6  A    between atoms: N_16  and  N_17
REMARK    7  A    between atoms: S_18  and  C_19
REMARK    8  A    between atoms: C_19  and  C_20
REMARK    9  A    between atoms: N_22  and  C_23
REMARK                            x       y       z     vdW  Elec       q    Type
REMARK                         _______ _______ _______ _____ _____    ______ ____
ROOT
ATOM      1  N   UNL     1       1.065   1.695  -2.691  0.00  0.00    -0.204 N 
ATOM      2  C   UNL     1      -0.253   1.819  -2.276  0.00  0.00    +0.254 A 
ATOM      3  N   UNL     1      -1.252   2.256  -3.003  0.00  0.00    -0.109 NA
ATOM      4  N   UNL     1      -2.407   2.231  -2.211  0.00  0.00    -0.119 NA
ATOM      5  C   UNL     1      -2.077   1.772  -1.028  0.00  0.00    +0.210 A 
ATOM      6  N   UNL     1      -0.738   1.503  -1.037  0.00  0.00    -0.211 N 
ATOM      7  H   UNL     1       1.827   1.312  -1.996  0.00  0.00    +0.177 HD
ENDROOT
BRANCH   6   8
ATOM      8  N   UNL     1      -0.011   1.010   0.008  0.00  0.00    -0.294 N 
ATOM      9  H   UNL     1      -0.504   0.789   0.966  0.00  0.00    +0.163 HD
ATOM     10  H   UNL     1       1.069   0.833  -0.107  0.00  0.00    +0.163 HD
ENDBRANCH   6   8
BRANCH   1  12
ATOM     11  C   UNL     1       2.659   1.941  -4.384  0.00  0.00    +0.142 C 
ATOM     12  N   UNL     1       1.426   2.057  -3.996  0.00  0.00    -0.187 NA
BRANCH  11  18
ATOM     13  C   UNL     1       2.071   2.810  -6.645  0.00  0.00    +0.129 A 
ATOM     14  C   UNL     1       2.438   3.167  -7.932  0.00  0.00    +0.047 A 
ATOM     15  C   UNL     1       3.753   3.041  -8.339  0.00  0.00    +0.019 A 
ATOM     16  C   UNL     1       4.713   2.558  -7.464  0.00  0.00    +0.019 A 
ATOM     17  C   UNL     1       4.366   2.205  -6.176  0.00  0.00    +0.028 A 
ATOM     18  C   UNL     1       3.039   2.322  -5.756  0.00  0.00    +0.037 A 
ATOM     19 BR   UNL     1       6.508   2.391  -8.036  0.00  0.00    -0.050 Br
BRANCH  13  21
ATOM     20  C   UNL     1      -0.152   3.439  -7.205  0.00  0.00    +0.277 C 
ATOM     21  O   UNL     1       0.779   2.934  -6.245  0.00  0.00    -0.494 OA
ENDBRANCH  13  21
ENDBRANCH  11  18
ENDBRANCH   1  12
BRANCH   5  22
ATOM     22  S   UNL     1      -3.169   1.545   0.336  0.00  0.00    -0.075 S 
BRANCH  22  23
ATOM     23  C   UNL     1      -4.782   2.083  -0.298  0.00  0.00    +0.173 C 
BRANCH  23  24
ATOM     24  C   UNL     1      -5.821   1.938   0.784  0.00  0.00    +0.227 C 
ATOM     25  O   UNL     1      -5.505   1.513   1.875  0.00  0.00    -0.275 OA
ATOM     26  N   UNL     1      -7.101   2.280   0.538  0.00  0.00    -0.285 N 
ATOM     27  H   UNL     1      -7.374   2.736  -0.425  0.00  0.00    +0.155 HD
BRANCH  26  28
ATOM     28  C   UNL     1      -8.084   2.055   1.510  0.00  0.00    +0.034 A 
ATOM     29  C   UNL     1      -9.371   1.700   1.127  0.00  0.00    +0.026 A 
ATOM     30  C   UNL     1     -10.338   1.473   2.087  0.00  0.00    +0.040 A 
ATOM     31  C   UNL     1     -10.028   1.610   3.430  0.00  0.00    +0.124 A 
ATOM     32  C   UNL     1      -8.746   1.969   3.813  0.00  0.00    +0.040 A 
ATOM     33  C   UNL     1      -7.775   2.192   2.857  0.00  0.00    +0.026 A 
ATOM     34  F   UNL     1     -10.976   1.393   4.367  0.00  0.00    -0.205 F 
ENDBRANCH  26  28
ENDBRANCH  23  24
ENDBRANCH  22  23
ENDBRANCH   5  22
TORSDOF 8
