REMARK  Name = ZINC64684168
REMARK  10 active torsions:
REMARK  status: ('A' for Active; 'I' for Inactive)
REMARK    1  A    between atoms: C_1  and  O_2
REMARK    2  A    between atoms: O_2  and  C_3
REMARK    3  A    between atoms: C_6  and  N_9
REMARK    4  A    between atoms: C_10  and  S_15
REMARK    5  A    between atoms: S_15  and  C_16
REMARK    6  A    between atoms: C_16  and  C_17
REMARK    7  A    between atoms: N_19  and  CA_20
REMARK    8  A    between atoms: CA_20  and  CB_22
REMARK    9  A    between atoms: CA_20  and  C_32
REMARK   10  A    between atoms: CB_22  and  CG_23
REMARK                            x       y       z     vdW  Elec       q    Type
REMARK                         _______ _______ _______ _____ _____    ______ ____
ROOT
ATOM      1  C   UNK A   0       5.170  -3.819  -3.307  0.00  0.00    +0.167 C 
ENDROOT
BRANCH   1   2
ATOM      2  C   UNK A   0       6.096  -4.355  -2.245  0.00  0.00    +0.224 C 
ATOM      3  O   UNK A   0       5.711  -5.218  -1.485  0.00  0.00    -0.275 OA
ATOM      4  N   TRP A   1       7.351  -3.876  -2.141  0.00  0.00    -0.301 N 
ATOM      5  H   TRP A   1       7.659  -3.186  -2.749  0.00  0.00    +0.150 HD
BRANCH   4   6
ATOM      6  CA  TRP A   1       8.251  -4.397  -1.109  0.00  0.00    +0.190 C 
BRANCH   6   7
ATOM      7  C   TRP A   1       8.015  -3.657   0.183  0.00  0.00    +0.376 C 
ATOM      8  O   TRP A   1       8.202  -4.218   1.249  0.00  0.00    -0.244 OA
ATOM      9  OXT TRP A   1       7.638  -2.498   0.161  0.00  0.00    -0.244 OA
ENDBRANCH   6   7
BRANCH   6  10
ATOM     10  CB  TRP A   1       9.702  -4.201  -1.552  0.00  0.00    +0.067 C 
BRANCH  10  11
ATOM     11  CG  TRP A   1       9.971  -5.039  -2.775  0.00  0.00    -0.039 C 
ATOM     12  CD2 TRP A   1       9.909  -4.637  -4.066  0.00  0.00    -0.001 A 
ATOM     13  CE3 TRP A   1       9.582  -3.350  -4.692  0.00  0.00    +0.010 A 
ATOM     14  CZ3 TRP A   1       9.603  -3.253  -6.041  0.00  0.00    +0.001 A 
ATOM     15  CH2 TRP A   1       9.927  -4.348  -6.853  0.00  0.00    +0.002 A 
ATOM     16  CZ2 TRP A   1      10.238  -5.562  -6.352  0.00  0.00    +0.026 A 
ATOM     17  CE2 TRP A   1      10.248  -5.778  -4.946  0.00  0.00    +0.043 A 
ATOM     18  NE1 TRP A   1      10.510  -6.843  -4.228  0.00  0.00    -0.380 N 
ATOM     19  CD1 TRP A   1      10.373  -6.496  -2.809  0.00  0.00    +0.144 C 
ATOM     20  HE1 TRP A   1      10.758  -7.714  -4.577  0.00  0.00    +0.160 HD
ENDBRANCH  10  11
ENDBRANCH   6  10
ENDBRANCH   4   6
ENDBRANCH   1   2
BRANCH   1  21
ATOM     21  S   UNK A   0       3.566  -4.657  -3.190  0.00  0.00    -0.114 S 
BRANCH  21  23
ATOM     22  N   UNK A   0       2.458  -2.457  -4.301  0.00  0.00    -0.254 N 
ATOM     23  C   UNK A   0       2.581  -3.909  -4.517  0.00  0.00    +0.203 C 
ATOM     24  N   UNK A   0       3.273  -4.064  -5.820  0.00  0.00    -0.320 NA
ATOM     25  N   UNK A   0       3.016  -2.771  -6.479  0.00  0.00    +0.411 N 
ATOM     26  N   UNK A   0       3.055  -1.821  -5.363  0.00  0.00    -0.265 NA
ATOM     27  H   UNK A   0       4.263  -4.212  -5.689  0.00  0.00    +0.106 HD
ATOM     28  H   UNK A   0       3.737  -2.564  -7.153  0.00  0.00    -0.031 HD
ATOM     29  H   UNK A   0       2.567  -0.969  -5.595  0.00  0.00    +0.125 HD
ATOM     30  H   UNK A   0       2.106  -2.767  -6.915  0.00  0.00    -0.031 HD
BRANCH  22  34
ATOM     31  C   UNK A   0       0.606  -0.608  -1.056  0.00  0.00    +0.120 A 
ATOM     32  C   UNK A   0       1.173   0.162  -2.062  0.00  0.00    +0.047 A 
ATOM     33  C   UNK A   0       1.786  -0.451  -3.137  0.00  0.00    +0.028 A 
ATOM     34  C   UNK A   0       1.836  -1.836  -3.212  0.00  0.00    +0.045 A 
ATOM     35  C   UNK A   0       1.269  -2.605  -2.204  0.00  0.00    +0.028 A 
ATOM     36  C   UNK A   0       0.660  -1.992  -1.127  0.00  0.00    +0.047 A 
BRANCH  31  38
ATOM     37  C   UNK A   0      -0.017   1.425   0.010  0.00  0.00    +0.277 C 
ATOM     38  O   UNK A   0       0.002  -0.004   0.002  0.00  0.00    -0.495 OA
ENDBRANCH  31  38
ENDBRANCH  22  34
ENDBRANCH  21  23
ENDBRANCH   1  21
TORSDOF 9
