REMARK  Name = ZINC45526564
REMARK  11 active torsions:
REMARK  status: ('A' for Active; 'I' for Inactive)
REMARK    1  A    between atoms: C_1  and  C_2
REMARK    2  A    between atoms: C_2  and  C_3
REMARK    3  A    between atoms: C_3  and  C_4
REMARK    4  A    between atoms: C_3  and  C_6
REMARK    5  A    between atoms: C_4  and  C_5
REMARK    6  A    between atoms: C_6  and  C_8
REMARK    7  A    between atoms: C_6  and  N_22
REMARK    8  A    between atoms: C_8  and  N_9
REMARK    9  A    between atoms: N_12  and  N_13
REMARK   10  A    between atoms: N_13  and  C_14
REMARK   11  A    between atoms: C_18  and  C_20
REMARK                            x       y       z     vdW  Elec       q    Type
REMARK                         _______ _______ _______ _____ _____    ______ ____
ROOT
ATOM      1  N   UNL     1       4.250  -0.648   1.346  0.00  0.00    -0.297 N 
ATOM      2  C   UNL     1       5.207  -1.008   2.224  0.00  0.00    +0.316 C 
ATOM      3  O   UNL     1       4.931  -1.731   3.161  0.00  0.00    -0.251 OA
ATOM      4  N   UNL     1       6.469  -0.565   2.063  0.00  0.00    -0.220 N 
ATOM      5  H   UNL     1       4.469  -0.070   0.598  0.00  0.00    +0.150 HD
ATOM      6  H   UNL     1       7.158  -0.824   2.695  0.00  0.00    +0.174 HD
ENDROOT
BRANCH   4   7
ATOM      7  N   UNL     1       6.787   0.269   0.983  0.00  0.00    -0.263 N 
ATOM      8  H   UNL     1       6.098   0.528   0.351  0.00  0.00    +0.170 HD
BRANCH   7   9
ATOM      9  C   UNL     1       8.096   0.728   0.816  0.00  0.00    +0.046 A 
ATOM     10  C   UNL     1       9.085   0.353   1.719  0.00  0.00    +0.024 A 
ATOM     11  C   UNL     1      10.381   0.804   1.559  0.00  0.00    +0.003 A 
ATOM     12  C   UNL     1      10.703   1.631   0.501  0.00  0.00    +0.019 A 
ATOM     13  C   UNL     1       9.718   2.014  -0.411  0.00  0.00    +0.054 A 
ATOM     14  C   UNL     1       8.410   1.554  -0.252  0.00  0.00    +0.043 A 
BRANCH  13  15
ATOM     15  C   UNL     1      10.050   2.871  -1.509  0.00  0.00    +0.099 C 
ATOM     16  N   UNL     1      10.313   3.552  -2.380  0.00  0.00    -0.191 NA
ENDBRANCH  13  15
ENDBRANCH   7   9
ENDBRANCH   4   7
BRANCH   1  17
ATOM     17  C   UNL     1       2.877  -1.129   1.520  0.00  0.00    +0.125 C 
BRANCH  17  18
ATOM     18  C   UNL     1       1.962  -0.441   0.505  0.00  0.00    +0.077 C 
BRANCH  18  19
ATOM     19  N   UNL     1       1.830   0.981   0.850  0.00  0.00    -0.293 NA
ATOM     20  C   UNL     1       1.089   1.708  -0.190  0.00  0.00    +0.113 C 
ATOM     21  C   UNL     1       0.923   3.169   0.236  0.00  0.00    +0.175 C 
ATOM     22  O   UNL     1       2.212   3.739   0.480  0.00  0.00    -0.377 OA
ATOM     23  C   UNL     1       2.962   3.055   1.489  0.00  0.00    +0.175 C 
ATOM     24  C   UNL     1       3.148   1.593   1.075  0.00  0.00    +0.113 C 
ENDBRANCH  18  19
BRANCH  18  25
ATOM     25  C   UNL     1       0.583  -1.102   0.532  0.00  0.00    +0.007 C 
BRANCH  25  27
ATOM     26  C   UNL     1       1.071  -2.540  -1.453  0.00  0.00    +0.004 C 
ATOM     27  C   UNL     1       0.698  -2.543   0.031  0.00  0.00    +0.002 C 
ENDBRANCH  25  27
BRANCH  25  28
ATOM     28  C   UNL     1       0.044  -1.101   1.964  0.00  0.00    +0.002 C 
ATOM     29  C   UNL     1      -0.229   0.338   2.405  0.00  0.00    +0.004 C 
ENDBRANCH  25  28
ENDBRANCH  18  25
ENDBRANCH  17  18
ENDBRANCH   1  17
TORSDOF 9
