REMARK  Name = ZINC15768961
REMARK  4 active torsions:
REMARK  status: ('A' for Active; 'I' for Inactive)
REMARK    1  A    between atoms: C_4  and  N_7
REMARK    2  A    between atoms: C_12  and  N_54
REMARK    3  A    between atoms: C_19  and  C_24
REMARK    4  A    between atoms: C_19  and  N_54
REMARK                            x       y       z     vdW  Elec       q    Type
REMARK                         _______ _______ _______ _____ _____    ______ ____
ROOT
ATOM      1  N   UNL     1      -0.113   3.716  -2.140  0.00  0.00    -0.230 N 
ATOM      2  C   UNL     1      -0.894   2.587  -1.621  0.00  0.00    +0.120 C 
ATOM      3  C   UNL     1      -0.107   1.327  -1.460  0.00  0.00    +0.025 C 
ATOM      4  C   UNL     1       0.479   1.155  -0.063  0.00  0.00    -0.014 C 
ATOM      5  C   UNL     1      -0.676   1.266   0.941  0.00  0.00    -0.068 C 
ATOM      6  C   UNL     1      -1.167   2.707   0.934  0.00  0.00    +0.015 C 
ATOM      7  C   UNL     1      -1.630   3.168  -0.434  0.00  0.00    +0.150 C 
ATOM      8  N   UNL     1      -1.353   4.619  -0.540  0.00  0.00    -0.166 NA
ATOM      9  N   UNL     1      -0.546   4.847  -1.438  0.00  0.00    -0.083 NA
ENDROOT
BRANCH   1  13
ATOM     10  C   UNL     1       2.902   5.010  -4.867  0.00  0.00    +0.000 C 
ATOM     11  C   UNL     1       1.570   4.520  -5.439  0.00  0.00    +0.002 C 
ATOM     12  C   UNL     1       0.497   4.569  -4.349  0.00  0.00    +0.024 C 
ATOM     13  C   UNL     1       0.913   3.669  -3.184  0.00  0.00    +0.095 C 
ATOM     14  C   UNL     1       2.245   4.159  -2.612  0.00  0.00    +0.024 C 
ATOM     15  C   UNL     1       3.318   4.110  -3.702  0.00  0.00    +0.002 C 
ENDBRANCH   1  13
BRANCH   5  16
ATOM     16  N   UNL     1      -0.195   0.915   2.291  0.00  0.00    +0.390 N 
ATOM     17  H   UNL     1      -0.386   1.693   2.932  0.00  0.00    -0.084 HD
ATOM     18  H   UNL     1       0.816   0.741   2.255  0.00  0.00    -0.084 HD
BRANCH  16  19
ATOM     19  C   UNL     1      -0.880  -0.297   2.779  0.00  0.00    +0.010 C 
ATOM     20  C   UNL     1      -0.301  -0.706   4.149  0.00  0.00    -0.003 C 
ATOM     21  C   UNL     1      -0.292  -2.255   4.111  0.00  0.00    -0.001 C 
ATOM     22  C   UNL     1       0.105  -2.559   2.645  0.00  0.00    -0.001 C 
ATOM     23  C   UNL     1      -0.622  -1.475   1.823  0.00  0.00    -0.003 C 
BRANCH  19  24
ATOM     24  C   UNL     1      -2.361  -0.044   2.899  0.00  0.00    +0.200 C 
ATOM     25  O   UNL     1      -3.150  -0.922   2.622  0.00  0.00    -0.278 OA
ATOM     26  N   UNL     1      -2.808   1.158   3.314  0.00  0.00    -0.330 N 
ATOM     27  H   UNL     1      -2.177   1.837   3.599  0.00  0.00    +0.145 HD
ATOM     28  H   UNL     1      -3.760   1.343   3.327  0.00  0.00    +0.145 HD
ENDBRANCH  19  24
ENDBRANCH  16  19
ENDBRANCH   5  16
TORSDOF 4
