REMARK  Name = ZINC54645065
REMARK  8 active torsions:
REMARK  status: ('A' for Active; 'I' for Inactive)
REMARK    1  A    between atoms: C_1  and  C_2
REMARK    2  A    between atoms: C_5  and  N_9
REMARK    3  A    between atoms: C_7  and  C_8
REMARK    4  A    between atoms: C_10  and  C_12
REMARK    5  A    between atoms: C_12  and  N_13
REMARK    6  A    between atoms: C_20  and  C_26
REMARK    7  A    between atoms: C_23  and  C_24
REMARK    8  A    between atoms: C_23  and  C_25
REMARK                            x       y       z     vdW  Elec       q    Type
REMARK                         _______ _______ _______ _____ _____    ______ ____
ROOT
ATOM      1  C   UNL     1      -0.134  -6.343  -1.187  0.00  0.00    +0.212 C 
ENDROOT
BRANCH   1   2
ATOM      2  N   UNL     1      -0.232  -6.826  -2.567  0.00  0.00    -0.233 N 
ATOM      3  C   UNL     1      -1.450  -6.962  -3.123  0.00  0.00    +0.226 C 
ATOM      4  O   UNL     1      -2.447  -6.728  -2.474  0.00  0.00    -0.275 OA
ATOM      5  C   UNL     1      -1.567  -7.409  -4.569  0.00  0.00    +0.082 C 
ATOM      6  C   UNL     1      -1.264  -8.927  -4.597  0.00  0.00    +0.014 C 
ATOM      7  C   UNL     1       0.270  -9.053  -4.662  0.00  0.00    +0.017 C 
ATOM      8  C   UNL     1       0.816  -7.604  -4.671  0.00  0.00    +0.051 C 
ATOM      9  C   UNL     1       0.899  -7.113  -3.237  0.00  0.00    +0.229 C 
ATOM     10  O   UNL     1       1.976  -7.014  -2.688  0.00  0.00    -0.275 OA
ATOM     11  C   UNL     1      -0.359  -6.772  -5.312  0.00  0.00    -0.010 C 
ATOM     12  C   UNL     1      -0.447  -7.016  -6.820  0.00  0.00    +0.012 C 
ATOM     13  C   UNL     1      -0.245  -5.278  -5.003  0.00  0.00    +0.012 C 
ATOM     14  C   UNL     1       2.147  -7.468  -5.415  0.00  0.00    +0.021 C 
ENDBRANCH   1   2
BRANCH   1  16
ATOM     15  N   UNL     1       0.059  -4.170  -0.021  0.00  0.00    -0.284 N 
ATOM     16  C   UNL     1      -0.040  -4.839  -1.187  0.00  0.00    +0.235 C 
ATOM     17  O   UNL     1      -0.054  -4.230  -2.236  0.00  0.00    -0.274 OA
ATOM     18  H   UNL     1       0.147  -4.658   0.812  0.00  0.00    +0.155 HD
BRANCH  15  23
ATOM     19  C   UNL     1      -0.041   1.502   0.014  0.00  0.00    +0.044 C 
ATOM     20  C   UNL     1      -0.015  -0.004   0.004  0.00  0.00    -0.047 A 
ATOM     21  C   UNL     1      -0.752  -0.702  -0.935  0.00  0.00    +0.005 A 
ATOM     22  C   UNL     1      -0.730  -2.082  -0.946  0.00  0.00    +0.023 A 
ATOM     23  C   UNL     1       0.034  -2.771  -0.013  0.00  0.00    +0.034 A 
ATOM     24  C   UNL     1       0.773  -2.068   0.929  0.00  0.00    +0.027 A 
ATOM     25  C   UNL     1       0.751  -0.686   0.932  0.00  0.00    -0.046 A 
ATOM     26  C   UNL     1       1.557   0.078   1.950  0.00  0.00    +0.044 C 
ENDBRANCH  15  23
ENDBRANCH   1  16
TORSDOF 3
