REMARK  Name = ZINC44608272
REMARK  8 active torsions:
REMARK  status: ('A' for Active; 'I' for Inactive)
REMARK    1  A    between atoms: C_4  and  C_7
REMARK    2  A    between atoms: C_7  and  O_8
REMARK    3  A    between atoms: O_8  and  C_9
REMARK    4  A    between atoms: C_11  and  O_24
REMARK    5  A    between atoms: C_13  and  C_22
REMARK    6  A    between atoms: C_16  and  O_21
REMARK    7  A    between atoms: C_18  and  O_20
REMARK    8  A    between atoms: C_22  and  O_23
REMARK                            x       y       z     vdW  Elec       q    Type
REMARK                         _______ _______ _______ _____ _____    ______ ____
ROOT
ATOM      1  C   UNL     1       5.385  -1.642   1.400  0.00  0.00    +0.183 C 
ATOM      2  C   UNL     1       6.109  -1.223   2.684  0.00  0.00    +0.177 C 
ATOM      3  C   UNL     1       7.402  -2.031   2.818  0.00  0.00    +0.178 C 
ATOM      4  O   UNL     1       7.093  -3.426   2.820  0.00  0.00    -0.341 OA
ATOM      5  C   UNL     1       6.458  -3.885   1.625  0.00  0.00    +0.279 C 
ATOM      6  C   UNL     1       5.127  -3.152   1.440  0.00  0.00    +0.201 C 
ENDROOT
BRANCH   6   7
ATOM      7  O   UNL     1       4.518  -3.564   0.215  0.00  0.00    -0.384 OA
ATOM      8  H   UNL     1       4.325  -4.511   0.171  0.00  0.00    +0.210 HD
ENDBRANCH   6   7
BRANCH   5   9
ATOM      9  O   UNL     1       7.305  -3.622   0.504  0.00  0.00    -0.365 OA
ATOM     10  H   UNL     1       8.168  -4.055   0.553  0.00  0.00    +0.213 HD
ENDBRANCH   5   9
BRANCH   2  11
ATOM     11  O   UNL     1       5.267  -1.476   3.811  0.00  0.00    -0.386 OA
ATOM     12  H   UNL     1       5.663  -1.234   4.659  0.00  0.00    +0.210 HD
ENDBRANCH   2  11
BRANCH   1  13
ATOM     13  O   UNL     1       4.141  -0.946   1.304  0.00  0.00    -0.367 OA
BRANCH  13  14
ATOM     14  C   UNL     1       3.711  -0.707  -0.038  0.00  0.00    +0.195 C 
BRANCH  14  18
ATOM     15  C   UNL     1      -0.017   1.378   0.010  0.00  0.00    +0.000 A 
ATOM     16  C   UNL     1       1.171   2.086   0.002  0.00  0.00    +0.000 A 
ATOM     17  C   UNL     1       2.377   1.411  -0.013  0.00  0.00    +0.006 A 
ATOM     18  C   UNL     1       2.396   0.029  -0.020  0.00  0.00    -0.022 A 
ATOM     19  C   UNL     1       1.208  -0.679  -0.012  0.00  0.00    +0.006 A 
ATOM     20  C   UNL     1       0.002  -0.004   0.002  0.00  0.00    +0.000 A 
ENDBRANCH  14  18
ENDBRANCH  13  14
ENDBRANCH   1  13
BRANCH   3  21
ATOM     21  C   UNL     1       8.101  -1.661   4.128  0.00  0.00    +0.190 C 
BRANCH  21  22
ATOM     22  O   UNL     1       9.364  -2.327   4.199  0.00  0.00    -0.392 OA
ATOM     23  H   UNL     1       9.863  -2.138   5.005  0.00  0.00    +0.210 HD
ENDBRANCH  21  22
ENDBRANCH   3  21
TORSDOF 8
