REMARK  Name = ZINC22007288
REMARK  11 active torsions:
REMARK  status: ('A' for Active; 'I' for Inactive)
REMARK    1  A    between atoms: C_1  and  C_2
REMARK    2  A    between atoms: C_2  and  N_3
REMARK    3  A    between atoms: C_7  and  S_27
REMARK    4  A    between atoms: C_11  and  C_12
REMARK    5  A    between atoms: C_12  and  C_13
REMARK    6  A    between atoms: C_13  and  C_14
REMARK    7  A    between atoms: N_16  and  C_17
REMARK    8  A    between atoms: C_17  and  C_18
REMARK    9  A    between atoms: S_27  and  N_30
REMARK   10  A    between atoms: N_30  and  C_31
REMARK   11  A    between atoms: N_30  and  C_32
REMARK                            x       y       z     vdW  Elec       q    Type
REMARK                         _______ _______ _______ _____ _____    ______ ____
ROOT
ATOM      1  N   UNL     1       5.056  10.342  -5.274  0.00  0.00    -0.328 N 
ATOM      2  C   UNL     1       4.794  10.981  -6.469  0.00  0.00    +0.069 A 
ATOM      3  C   UNL     1       5.463  11.077  -7.682  0.00  0.00    +0.030 A 
ATOM      4  C   UNL     1       4.918  11.822  -8.706  0.00  0.00    +0.030 A 
ATOM      5  C   UNL     1       3.707  12.477  -8.531  0.00  0.00    +0.108 A 
ATOM      6  C   UNL     1       3.034  12.394  -7.345  0.00  0.00    +0.058 A 
ATOM      7  C   UNL     1       3.567  11.644  -6.293  0.00  0.00    +0.091 A 
ATOM      8  N   UNL     1       3.151  11.376  -5.029  0.00  0.00    -0.232 NA
ATOM      9  C   UNL     1       4.020  10.612  -4.435  0.00  0.00    +0.111 A 
ENDROOT
BRANCH   5  10
ATOM     10  S   UNL     1       3.030  13.425  -9.853  0.00  0.00    +0.060 S 
ATOM     11  O   UNL     1       2.163  14.384  -9.263  0.00  0.00    -0.153 OA
ATOM     12  O   UNL     1       4.119  13.794 -10.688  0.00  0.00    -0.153 OA
BRANCH  10  13
ATOM     13  N   UNL     1       2.074  12.408 -10.745  0.00  0.00    -0.183 NA
ATOM     14  C   UNL     1       0.655  12.259 -10.414  0.00  0.00    +0.131 C 
ATOM     15  C   UNL     1       2.648  11.659 -11.865  0.00  0.00    +0.131 C 
ENDBRANCH  10  13
ENDBRANCH   5  10
BRANCH   1  17
ATOM     16  C   UNL     1       5.947   8.065  -5.340  0.00  0.00    +0.027 C 
ATOM     17  C   UNL     1       6.231   9.522  -4.968  0.00  0.00    +0.120 C 
ENDBRANCH   1  17
BRANCH   9  18
ATOM     18  C   UNL     1       3.900  10.105  -3.021  0.00  0.00    +0.083 C 
BRANCH  18  19
ATOM     19  C   UNL     1       3.160   8.765  -3.021  0.00  0.00    +0.103 C 
BRANCH  19  20
ATOM     20  C   UNL     1       3.040   8.258  -1.607  0.00  0.00    +0.214 C 
ATOM     21  O   UNL     1       3.501   8.905  -0.689  0.00  0.00    -0.276 OA
ATOM     22  N   UNL     1       2.421   7.087  -1.361  0.00  0.00    -0.310 N 
ATOM     23  H   UNL     1       2.003   6.500  -2.193  0.00  0.00    +0.149 HD
BRANCH  22  24
ATOM     24  C   UNL     1       2.304   6.594   0.014  0.00  0.00    +0.161 C 
BRANCH  24  25
ATOM     25  C   UNL     1       1.576   5.274   0.014  0.00  0.00    +0.077 A 
ATOM     26  C   UNL     1       2.156   4.054   0.002  0.00  0.00    +0.117 A 
ATOM     27  N   UNL     1       1.148   3.128   0.007  0.00  0.00    -0.306 N 
ATOM     28  C   UNL     1       1.149   1.763   0.001  0.00  0.00    +0.092 A 
ATOM     29  C   UNL     1      -0.013   1.076   0.008  0.00  0.00    +0.018 A 
ATOM     30  C   UNL     1      -1.240   1.758   0.018  0.00  0.00    +0.005 A 
ATOM     31  C   UNL     1      -1.255   3.119   0.031  0.00  0.00    +0.047 A 
ATOM     32  C   UNL     1      -0.034   3.822   0.022  0.00  0.00    +0.138 A 
ATOM     33  N   UNL     1       0.250   5.117   0.026  0.00  0.00    -0.231 NA
ENDBRANCH  24  25
ENDBRANCH  22  24
ENDBRANCH  19  20
ENDBRANCH  18  19
ENDBRANCH   9  18
TORSDOF 8
