REMARK  Name = ZINC67492927
REMARK  12 active torsions:
REMARK  status: ('A' for Active; 'I' for Inactive)
REMARK    1  A    between atoms: C_1  and  C_2
REMARK    2  A    between atoms: C_5  and  N_11
REMARK    3  A    between atoms: C_7  and  C_8
REMARK    4  A    between atoms: C_12  and  C_14
REMARK    5  A    between atoms: N_16  and  C_17
REMARK    6  A    between atoms: C_17  and  C_19
REMARK    7  A    between atoms: C_17  and  C_28
REMARK    8  A    between atoms: C_22  and  C_25
REMARK    9  A    between atoms: C_25  and  C_26
REMARK   10  A    between atoms: C_25  and  C_27
REMARK   11  A    between atoms: C_28  and  C_29
REMARK   12  A    between atoms: C_28  and  C_30
REMARK                            x       y       z     vdW  Elec       q    Type
REMARK                         _______ _______ _______ _____ _____    ______ ____
ROOT
ATOM      1  C   UNL     1      -0.404  -5.988  -2.116  0.00  0.00    +0.300 C 
ATOM      2  O   UNL     1      -0.260  -6.798  -1.224  0.00  0.00    -0.265 OA
ATOM      3  N   UNL     1      -0.577  -6.407  -3.386  0.00  0.00    -0.301 N 
ATOM      4  H   UNL     1      -0.692  -5.759  -4.099  0.00  0.00    +0.150 HD
ENDROOT
BRANCH   1   6
ATOM      5  N   UNL     1      -0.215  -4.107  -0.539  0.00  0.00    -0.278 N 
ATOM      6  C   UNL     1      -0.389  -4.526  -1.808  0.00  0.00    +0.303 C 
ATOM      7  O   UNL     1      -0.533  -3.716  -2.700  0.00  0.00    -0.265 OA
ATOM      8  H   UNL     1      -0.176  -4.753   0.184  0.00  0.00    +0.155 HD
BRANCH   5  13
ATOM      9  C   UNL     1       0.270   1.436   0.606  0.00  0.00    +0.044 C 
ATOM     10  C   UNL     1       0.143  -0.034   0.299  0.00  0.00    -0.038 A 
ATOM     11  C   UNL     1      -0.483  -0.875   1.198  0.00  0.00    +0.006 A 
ATOM     12  C   UNL     1      -0.602  -2.224   0.921  0.00  0.00    +0.023 A 
ATOM     13  C   UNL     1      -0.093  -2.743  -0.264  0.00  0.00    +0.035 A 
ATOM     14  C   UNL     1       0.537  -1.906  -1.173  0.00  0.00    +0.036 A 
ATOM     15  C   UNL     1       0.652  -0.544  -0.896  0.00  0.00    +0.041 A 
BRANCH  15  16
ATOM     16  C   UNL     1       1.317   0.356  -1.863  0.00  0.00    +0.242 C 
ATOM     17  O   UNL     1       1.315   1.557  -1.676  0.00  0.00    -0.270 OA
ATOM     18  N   UNL     1       1.927  -0.156  -2.950  0.00  0.00    -0.325 N 
ATOM     19  H   UNL     1       1.929  -1.115  -3.099  0.00  0.00    +0.145 HD
ATOM     20  H   UNL     1       2.363   0.434  -3.585  0.00  0.00    +0.145 HD
ENDBRANCH  15  16
ENDBRANCH   5  13
ENDBRANCH   1   6
BRANCH   3  21
ATOM     21  C   UNL     1      -0.592  -7.840  -3.688  0.00  0.00    +0.106 C 
BRANCH  21  22
ATOM     22  C   UNL     1      -0.187  -8.055  -5.124  0.00  0.00    -0.027 A 
ATOM     23  C   UNL     1      -0.636  -7.191  -6.105  0.00  0.00    +0.006 A 
ATOM     24  C   UNL     1      -0.264  -7.388  -7.422  0.00  0.00    +0.004 A 
ATOM     25  C   UNL     1       0.557  -8.448  -7.757  0.00  0.00    -0.045 A 
ATOM     26  C   UNL     1       1.007  -9.311  -6.775  0.00  0.00    +0.004 A 
ATOM     27  C   UNL     1       0.639  -9.112  -5.458  0.00  0.00    +0.006 A 
BRANCH  25  28
ATOM     28  C   UNL     1       0.962  -8.663  -9.193  0.00  0.00    +0.013 C 
ATOM     29  C   UNL     1       2.486  -8.593  -9.309  0.00  0.00    +0.012 C 
ATOM     30  C   UNL     1       0.478 -10.038  -9.659  0.00  0.00    +0.012 C 
ENDBRANCH  25  28
ENDBRANCH  21  22
BRANCH  21  31
ATOM     31  C   UNL     1      -2.002  -8.393  -3.468  0.00  0.00    +0.008 C 
ATOM     32  C   UNL     1      -2.017  -9.890  -3.784  0.00  0.00    +0.009 C 
ATOM     33  C   UNL     1      -2.413  -8.175  -2.011  0.00  0.00    +0.009 C 
ENDBRANCH  21  31
ENDBRANCH   3  21
TORSDOF 7
