REMARK  Name = ZINC35871044
REMARK  9 active torsions:
REMARK  status: ('A' for Active; 'I' for Inactive)
REMARK    1  A    between atoms: C_1  and  C_2
REMARK    2  A    between atoms: C_2  and  C_3
REMARK    3  A    between atoms: C_2  and  N_4
REMARK    4  A    between atoms: C_5  and  C_7
REMARK    5  A    between atoms: C_7  and  N_8
REMARK    6  A    between atoms: C_15  and  N_35
REMARK    7  A    between atoms: C_19  and  C_24
REMARK    8  A    between atoms: N_26  and  C_27
REMARK    9  A    between atoms: C_27  and  C_28
REMARK                            x       y       z     vdW  Elec       q    Type
REMARK                         _______ _______ _______ _____ _____    ______ ____
ROOT
ATOM      1  N   UNL     1      -3.979  -1.213  -2.509  0.00  0.00    +0.388 N 
ATOM      2  C   UNL     1      -4.087   0.153  -3.043  0.00  0.00    -0.059 C 
ATOM      3  C   UNL     1      -4.406   0.064  -4.534  0.00  0.00    +0.087 C 
ATOM      4  N   UNL     1      -5.575  -0.791  -4.759  0.00  0.00    -0.329 N 
ATOM      5  C   UNL     1      -6.400  -0.484  -5.853  0.00  0.00    +0.033 A 
ATOM      6  C   UNL     1      -6.042   0.576  -6.681  0.00  0.00    +0.025 A 
ATOM      7  C   UNL     1      -6.830   0.899  -7.766  0.00  0.00    +0.034 A 
ATOM      8  C   UNL     1      -7.976   0.171  -8.031  0.00  0.00    +0.127 A 
ATOM      9  C   UNL     1      -8.335  -0.879  -7.208  0.00  0.00    +0.038 A 
ATOM     10  C   UNL     1      -7.549  -1.208  -6.117  0.00  0.00    -0.023 A 
ATOM     11  C   UNL     1      -7.965  -2.349  -5.227  0.00  0.00    +0.051 C 
ATOM     12  C   UNL     1      -7.392  -2.137  -3.826  0.00  0.00    +0.098 C 
ATOM     13  C   UNL     1      -5.875  -1.941  -3.920  0.00  0.00    +0.069 C 
ATOM     14  C   UNL     1      -5.305  -1.829  -2.514  0.00  0.00    -0.055 C 
ATOM     15  H   UNL     1      -3.352  -1.755  -3.085  0.00  0.00    -0.081 HD
ENDROOT
BRANCH  12  16
ATOM     16  C   UNL     1      -8.020  -0.916  -3.206  0.00  0.00    +0.218 C 
ATOM     17  O   UNL     1      -7.324   0.020  -2.871  0.00  0.00    -0.275 OA
ATOM     18  N   UNL     1      -9.354  -0.863  -3.023  0.00  0.00    -0.311 N 
ATOM     19  H   UNL     1      -9.910  -1.611  -3.291  0.00  0.00    +0.149 HD
BRANCH  18  20
ATOM     20  C   UNL     1      -9.964   0.325  -2.420  0.00  0.00    +0.139 C 
BRANCH  20  21
ATOM     21  C   UNL     1     -11.456   0.132  -2.328  0.00  0.00    -0.028 A 
ATOM     22  C   UNL     1     -12.269   0.523  -3.376  0.00  0.00    +0.005 A 
ATOM     23  C   UNL     1     -13.637   0.346  -3.293  0.00  0.00    +0.003 A 
ATOM     24  C   UNL     1     -14.194  -0.222  -2.163  0.00  0.00    +0.038 A 
ATOM     25  C   UNL     1     -13.381  -0.614  -1.113  0.00  0.00    +0.124 A 
ATOM     26  C   UNL     1     -12.010  -0.442  -1.200  0.00  0.00    +0.043 A 
ATOM     27  F   UNL     1     -13.925  -1.169  -0.008  0.00  0.00    -0.205 F 
ENDBRANCH  20  21
ENDBRANCH  18  20
ENDBRANCH  12  16
BRANCH   8  28
ATOM     28  N   UNL     1      -8.819   0.518  -9.197  0.00  0.00    +0.056 N 
ATOM     29  O   UNL     1      -8.507   1.437  -9.917  0.00  0.00    -0.126 OA
ATOM     30  O   UNL     1      -9.821  -0.118  -9.428  0.00  0.00    -0.126 OA
ENDBRANCH   8  28
BRANCH   1  31
ATOM     31  C   UNL     1      -3.465  -1.164  -1.134  0.00  0.00    +0.019 C 
BRANCH  31  33
ATOM     32  N   UNL     1      -1.372  -0.511   0.012  0.00  0.00    -0.315 N 
ATOM     33  C   UNL     1      -2.051  -0.643  -1.145  0.00  0.00    +0.197 C 
ATOM     34  O   UNL     1      -1.524  -0.341  -2.194  0.00  0.00    -0.278 OA
ATOM     35  H   UNL     1      -1.794  -0.752   0.852  0.00  0.00    +0.149 HD
BRANCH  32  37
ATOM     36  C   UNL     1      -0.019   1.526   0.010  0.00  0.00    +0.027 C 
ATOM     37  C   UNL     1       0.002  -0.004   0.002  0.00  0.00    +0.067 C 
ATOM     38  C   UNL     1       0.742  -0.511   1.242  0.00  0.00    +0.027 C 
ENDBRANCH  32  37
ENDBRANCH  31  33
ENDBRANCH   1  31
TORSDOF 7
