REMARK  Name = ZINC03284427
REMARK  7 active torsions:
REMARK  status: ('A' for Active; 'I' for Inactive)
REMARK    1  A    between atoms: C_1  and  C_2
REMARK    2  A    between atoms: C_4  and  C_23
REMARK    3  A    between atoms: C_8  and  N_12
REMARK    4  A    between atoms: N_12  and  N_13
REMARK    5  A    between atoms: C_14  and  C_16
REMARK    6  A    between atoms: C_18  and  C_22
REMARK    7  A    between atoms: C_20  and  C_21
REMARK                            x       y       z     vdW  Elec       q    Type
REMARK                         _______ _______ _______ _____ _____    ______ ____
ROOT
ATOM      1  N   UNL     1      -2.460  -0.182  -0.365  0.00  0.00    -0.264 N 
ATOM      2  H   UNL     1      -2.473   0.750  -0.635  0.00  0.00    +0.170 HD
ENDROOT
BRANCH   1  10
ATOM      3  C   UNL     1       1.161   3.594   0.010  0.00  0.00    +0.044 C 
ATOM      4  C   UNL     1       1.174   2.087   0.002  0.00  0.00    -0.050 A 
ATOM      5  C   UNL     1       2.379   1.407  -0.013  0.00  0.00    +0.007 A 
ATOM      6  C   UNL     1       2.402   0.023  -0.021  0.00  0.00    -0.046 A 
ATOM      7  C   UNL     1       1.220  -0.685  -0.014  0.00  0.00    -0.035 A 
ATOM      8  C   UNL     1       0.002  -0.004   0.002  0.00  0.00    +0.001 A 
ATOM      9  C   UNL     1      -0.017   1.388   0.010  0.00  0.00    +0.013 A 
ATOM     10  C   UNL     1      -1.258  -0.782   0.011  0.00  0.00    +0.048 C 
ATOM     11  C   UNL     1      -1.232  -2.063   0.383  0.00  0.00    -0.002 C 
ATOM     12  C   UNL     1       0.053  -2.720   0.801  0.00  0.00    +0.034 C 
ATOM     13  C   UNL     1       1.225  -2.191  -0.024  0.00  0.00    +0.040 C 
ATOM     14  C   UNL     1       3.720  -0.709  -0.036  0.00  0.00    +0.044 C 
ENDBRANCH   1  10
BRANCH   1  15
ATOM     15  N   UNL     1      -3.648  -0.925  -0.354  0.00  0.00    -0.232 N 
ATOM     16  C   UNL     1      -4.809  -0.345  -0.717  0.00  0.00    +0.263 C 
ATOM     17  O   UNL     1      -4.825   0.823  -1.056  0.00  0.00    -0.269 OA
ATOM     18  H   UNL     1      -3.635  -1.857  -0.084  0.00  0.00    +0.173 HD
BRANCH  16  19
ATOM     19  C   UNL     1      -6.059  -1.126  -0.705  0.00  0.00    +0.079 A 
ATOM     20  C   UNL     1      -6.219  -2.540  -0.334  0.00  0.00    +0.057 A 
ATOM     21  C   UNL     1      -7.526  -2.811  -0.471  0.00  0.00    +0.103 A 
ATOM     22  O   UNL     1      -8.162  -1.707  -0.896  0.00  0.00    -0.464 OA
ATOM     23  C   UNL     1      -7.307  -0.691  -1.042  0.00  0.00    +0.114 A 
ATOM     24  C   UNL     1      -7.661   0.700  -1.501  0.00  0.00    +0.087 C 
ATOM     25  C   UNL     1      -8.175  -4.143  -0.200  0.00  0.00    +0.086 C 
ENDBRANCH  16  19
ENDBRANCH   1  15
TORSDOF 3
