REMARK  Name = ZINC39362570
REMARK  11 active torsions:
REMARK  status: ('A' for Active; 'I' for Inactive)
REMARK    1  A    between atoms: C_1  and  C_2
REMARK    2  A    between atoms: C_2  and  O_3
REMARK    3  A    between atoms: O_3  and  C_4
REMARK    4  A    between atoms: C_7  and  N_10
REMARK    5  A    between atoms: C_11  and  C_28
REMARK    6  A    between atoms: C_15  and  S_16
REMARK    7  A    between atoms: S_16  and  C_17
REMARK    8  A    between atoms: C_17  and  C_18
REMARK    9  A    between atoms: N_20  and  C_21
REMARK   10  A    between atoms: C_21  and  C_22
REMARK   11  A    between atoms: C_28  and  C_29
REMARK                            x       y       z     vdW  Elec       q    Type
REMARK                         _______ _______ _______ _____ _____    ______ ____
ROOT
ATOM      1  N   UNL     1       1.102  -5.937  -1.834  0.00  0.00    -0.258 N 
ATOM      2  C   UNL     1       1.663  -6.642  -3.000  0.00  0.00    +0.187 C 
ATOM      3  N   UNL     1       1.532  -8.066  -2.648  0.00  0.00    -0.246 N 
ATOM      4  N   UNL     1       0.940  -8.102  -1.380  0.00  0.00    -0.162 NA
ATOM      5  C   UNL     1       0.709  -6.915  -0.932  0.00  0.00    +0.180 C 
ATOM      6  H   UNL     1       1.801  -8.826  -3.188  0.00  0.00    +0.170 HD
ENDROOT
BRANCH   1  10
ATOM      7  C   UNL     1       0.776  -1.811  -1.336  0.00  0.00    +0.121 A 
ATOM      8  C   UNL     1      -0.367  -2.588  -1.452  0.00  0.00    +0.047 A 
ATOM      9  C   UNL     1      -0.261  -3.954  -1.618  0.00  0.00    +0.027 A 
ATOM     10  C   UNL     1       0.992  -4.551  -1.667  0.00  0.00    +0.038 A 
ATOM     11  C   UNL     1       2.137  -3.773  -1.550  0.00  0.00    +0.027 A 
ATOM     12  C   UNL     1       2.028  -2.406  -1.391  0.00  0.00    +0.047 A 
BRANCH   7  13
ATOM     13  O   UNL     1       0.670  -0.465  -1.173  0.00  0.00    -0.492 OA
BRANCH  13  15
ATOM     14  C   UNL     1      -0.569   1.597  -0.939  0.00  0.00    +0.048 C 
ATOM     15  C   UNL     1      -0.650   0.080  -1.125  0.00  0.00    +0.225 C 
ENDBRANCH  13  15
ENDBRANCH   7  13
ENDBRANCH   1  10
BRANCH   5  16
ATOM     16  S   UNL     1      -0.022  -6.575   0.635  0.00  0.00    -0.079 S 
BRANCH  16  17
ATOM     17  C   UNL     1      -0.312  -8.218   1.349  0.00  0.00    +0.172 C 
BRANCH  17  18
ATOM     18  C   UNL     1      -0.944  -8.070   2.709  0.00  0.00    +0.223 C 
ATOM     19  O   UNL     1      -1.175  -6.965   3.153  0.00  0.00    -0.275 OA
ATOM     20  N   UNL     1      -1.251  -9.165   3.432  0.00  0.00    -0.312 N 
ATOM     21  H   UNL     1      -1.066 -10.049   3.076  0.00  0.00    +0.149 HD
BRANCH  20  22
ATOM     22  C   UNL     1      -1.865  -9.021   4.754  0.00  0.00    +0.135 C 
BRANCH  22  23
ATOM     23  C   UNL     1      -2.110 -10.407   5.356  0.00  0.00    +0.135 C 
ATOM     24  C   UNL     1      -2.865 -10.270   6.696  0.00  0.00    +0.035 C 
ATOM     25  C   UNL     1      -2.184 -11.356   7.571  0.00  0.00    +0.031 C 
ATOM     26  C   UNL     1      -0.730 -11.294   7.038  0.00  0.00    +0.160 C 
ATOM     27  O   UNL     1      -0.857 -11.047   5.627  0.00  0.00    -0.375 OA
ENDBRANCH  22  23
ENDBRANCH  20  22
ENDBRANCH  17  18
ENDBRANCH  16  17
ENDBRANCH   5  16
BRANCH   2  28
ATOM     28  C   UNL     1       0.857  -6.320  -4.260  0.00  0.00    +0.097 C 
BRANCH  28  29
ATOM     29  C   UNL     1       1.451  -7.052  -5.436  0.00  0.00    +0.029 A 
ATOM     30  N   UNL     1       2.502  -6.511  -6.123  0.00  0.00    -0.311 N 
ATOM     31  C   UNL     1       3.040  -7.157  -7.174  0.00  0.00    +0.327 A 
ATOM     32  O   UNL     1       3.974  -6.657  -7.771  0.00  0.00    -0.247 OA
ATOM     33  N   UNL     1       2.558  -8.348  -7.574  0.00  0.00    -0.275 N 
ATOM     34  C   UNL     1       1.522  -8.915  -6.923  0.00  0.00    +0.254 A 
ATOM     35  O   UNL     1       1.086  -9.993  -7.284  0.00  0.00    -0.268 OA
ATOM     36  C   UNL     1       0.951  -8.249  -5.812  0.00  0.00    +0.091 A 
ATOM     37  H   UNL     1       2.957  -8.800  -8.334  0.00  0.00    +0.173 HD
ATOM     38  H   UNL     1       2.864  -5.653  -5.851  0.00  0.00    +0.170 HD
ENDBRANCH  28  29
ENDBRANCH   2  28
TORSDOF 10
