REMARK  Name = ZINC05544015
REMARK  4 active torsions:
REMARK  status: ('A' for Active; 'I' for Inactive)
REMARK    1  A    between atoms: C_2  and  C_3
REMARK    2  A    between atoms: C_3  and  O_4
REMARK    3  A    between atoms: O_4  and  C_5
REMARK    4  A    between atoms: C_8  and  C_11
REMARK                            x       y       z     vdW  Elec       q    Type
REMARK                         _______ _______ _______ _____ _____    ______ ____
ROOT
ATOM      1  C   UNL     1      -1.264   3.338  -0.209  0.00  0.00    +0.190 C 
ATOM      2  N   UNL     1      -0.069   4.037   0.298  0.00  0.00    -0.316 N 
ATOM      3  C   UNL     1       1.131   3.393   0.144  0.00  0.00    +0.080 A 
ATOM      4  C   UNL     1       1.239   2.002   0.001  0.00  0.00    +0.068 A 
ATOM      5  C   UNL     1       2.590   1.482  -0.142  0.00  0.00    -0.023 A 
ATOM      6  C   UNL     1       3.577   2.405  -0.123  0.00  0.00    -0.005 A 
ATOM      7  S   UNL     1       2.746   3.959   0.083  0.00  0.00    -0.078 S 
ATOM      8  C   UNL     1       5.048   2.160  -0.248  0.00  0.00    +0.043 C 
ATOM      9  C   UNL     1       5.311   0.663  -0.029  0.00  0.00    +0.005 C 
ATOM     10  C   UNL     1       4.321  -0.140  -0.879  0.00  0.00    +0.005 C 
ATOM     11  C   UNL     1       2.910   0.000  -0.306  0.00  0.00    +0.037 C 
ATOM     12  C   UNL     1      -0.014   1.213   0.009  0.00  0.00    +0.248 C 
ATOM     13  O   UNL     1       0.002  -0.004   0.002  0.00  0.00    -0.270 OA
ATOM     14  N   UNL     1      -1.176   1.900   0.018  0.00  0.00    -0.289 N 
ATOM     15  H   UNL     1      -0.130   4.908   0.720  0.00  0.00    +0.149 HD
ATOM     16  H   UNL     1      -1.996   1.412   0.188  0.00  0.00    +0.151 HD
ENDROOT
BRANCH   1  20
ATOM     17  C   UNL     1      -1.630   4.057  -4.406  0.00  0.00    +0.121 A 
ATOM     18  C   UNL     1      -2.099   2.871  -3.861  0.00  0.00    +0.046 A 
ATOM     19  C   UNL     1      -1.980   2.641  -2.504  0.00  0.00    +0.010 A 
ATOM     20  C   UNL     1      -1.393   3.592  -1.689  0.00  0.00    -0.009 A 
ATOM     21  C   UNL     1      -0.930   4.777  -2.229  0.00  0.00    +0.010 A 
ATOM     22  C   UNL     1      -1.042   5.010  -3.586  0.00  0.00    +0.046 A 
BRANCH  17  23
ATOM     23  O   UNL     1      -1.746   4.286  -5.740  0.00  0.00    -0.488 OA
BRANCH  23  24
ATOM     24  C   UNL     1      -1.241   5.529  -6.232  0.00  0.00    +0.256 C 
BRANCH  24  26
ATOM     25  C   UNL     1      -1.924   6.702  -8.261  0.00  0.00    +0.007 C 
ATOM     26  C   UNL     1      -1.455   5.604  -7.722  0.00  0.00    +0.006 C 
ENDBRANCH  24  26
ENDBRANCH  23  24
ENDBRANCH  17  23
ENDBRANCH   1  20
TORSDOF 4
