REMARK  Name = ZINC11883250
REMARK  9 active torsions:
REMARK  status: ('A' for Active; 'I' for Inactive)
REMARK    1  A    between atoms: C_1  and  C_2
REMARK    2  A    between atoms: C_10  and  N_15
REMARK    3  A    between atoms: C_11  and  C_12
REMARK    4  A    between atoms: C_16  and  C_18
REMARK    5  A    between atoms: C_21  and  S_24
REMARK    6  A    between atoms: S_24  and  N_27
REMARK    7  A    between atoms: N_27  and  C_28
REMARK    8  A    between atoms: N_27  and  C_29
REMARK    9  A    between atoms: C_29  and  C_30
REMARK                            x       y       z     vdW  Elec       q    Type
REMARK                         _______ _______ _______ _____ _____    ______ ____
ROOT
ATOM      1  N   UNL     1      -1.372   4.404  -8.575  0.00  0.00    -0.275 N 
ATOM      2  C   UNL     1      -1.631   5.301  -7.603  0.00  0.00    +0.249 C 
ATOM      3  O   UNL     1      -2.278   6.299  -7.855  0.00  0.00    -0.270 OA
ATOM      4  H   UNL     1      -0.856   3.607  -8.374  0.00  0.00    +0.156 HD
ENDROOT
BRANCH   1  14
ATOM      5  C   UNL     1      -3.057   7.646 -15.635  0.00  0.00    +0.109 C 
ATOM      6  C   UNL     1      -3.027   6.140 -15.638  0.00  0.00    +0.213 C 
ATOM      7  O   UNL     1      -2.748   5.541 -16.655  0.00  0.00    -0.276 OA
ATOM      8  N   UNL     1      -3.311   5.458 -14.511  0.00  0.00    -0.297 N 
ATOM      9  C   UNL     1      -3.289   3.987 -14.483  0.00  0.00    +0.113 C 
ATOM     10  C   UNL     1      -2.184   3.509 -13.540  0.00  0.00    +0.056 C 
ATOM     11  C   UNL     1      -2.279   4.275 -12.227  0.00  0.00    -0.020 A 
ATOM     12  C   UNL     1      -2.940   5.451 -12.146  0.00  0.00    +0.013 A 
ATOM     13  S   UNL     1      -2.776   5.951 -10.457  0.00  0.00    -0.076 S 
ATOM     14  C   UNL     1      -1.842   4.619  -9.860  0.00  0.00    +0.085 A 
ATOM     15  C   UNL     1      -1.675   3.822 -10.984  0.00  0.00    +0.068 A 
ATOM     16  C   UNL     1      -3.654   6.158 -13.258  0.00  0.00    +0.150 C 
BRANCH  15  17
ATOM     17  C   UNL     1      -0.921   2.566 -10.920  0.00  0.00    +0.244 C 
ATOM     18  O   UNL     1      -1.494   1.525 -10.657  0.00  0.00    -0.270 OA
ATOM     19  N   UNL     1       0.406   2.565 -11.152  0.00  0.00    -0.325 N 
ATOM     20  H   UNL     1       0.863   3.394 -11.362  0.00  0.00    +0.145 HD
ATOM     21  H   UNL     1       0.905   1.734 -11.110  0.00  0.00    +0.145 HD
ENDBRANCH  15  17
ENDBRANCH   1  14
BRANCH   2  22
ATOM     22  C   UNL     1      -1.130   5.072  -6.232  0.00  0.00    +0.037 A 
ATOM     23  C   UNL     1      -1.397   5.999  -5.224  0.00  0.00    +0.015 A 
ATOM     24  C   UNL     1      -0.926   5.779  -3.946  0.00  0.00    +0.029 A 
ATOM     25  C   UNL     1      -0.190   4.642  -3.663  0.00  0.00    +0.106 A 
ATOM     26  C   UNL     1       0.083   3.721  -4.659  0.00  0.00    +0.029 A 
ATOM     27  C   UNL     1      -0.387   3.926  -5.940  0.00  0.00    +0.015 A 
BRANCH  25  28
ATOM     28  S   UNL     1       0.407   4.368  -2.028  0.00  0.00    +0.061 S 
ATOM     29  O   UNL     1       0.488   5.643  -1.407  0.00  0.00    -0.153 OA
ATOM     30  O   UNL     1       1.530   3.505  -2.146  0.00  0.00    -0.153 OA
BRANCH  28  31
ATOM     31  N   UNL     1      -0.759   3.519  -1.216  0.00  0.00    -0.177 NA
ATOM     32  C   UNL     1      -1.806   4.232  -0.480  0.00  0.00    +0.131 C 
BRANCH  31  33
ATOM     33  C   UNL     1      -0.745   2.054  -1.233  0.00  0.00    +0.140 C 
BRANCH  33  34
ATOM     34  C   UNL     1      -0.019   1.537   0.011  0.00  0.00    +0.134 C 
ATOM     35  C   UNL     1       0.002  -0.004   0.002  0.00  0.00    +0.035 C 
ATOM     36  C   UNL     1       1.508  -0.363   0.039  0.00  0.00    +0.031 C 
ATOM     37  C   UNL     1       2.138   0.935   0.603  0.00  0.00    +0.160 C 
ATOM     38  O   UNL     1       1.348   1.983  -0.000  0.00  0.00    -0.375 OA
ENDBRANCH  33  34
ENDBRANCH  31  33
ENDBRANCH  28  31
ENDBRANCH  25  28
ENDBRANCH   2  22
TORSDOF 7
