REMARK  Name = ZINC51327323
REMARK  6 active torsions:
REMARK  status: ('A' for Active; 'I' for Inactive)
REMARK    1  A    between atoms: C_4  and  C_7
REMARK    2  A    between atoms: N_10  and  C_12
REMARK    3  A    between atoms: C_12  and  C_13
REMARK    4  A    between atoms: C_13  and  C_15
REMARK    5  A    between atoms: C_13  and  O_22
REMARK    6  A    between atoms: C_20  and  N_21
REMARK                            x       y       z     vdW  Elec       q    Type
REMARK                         _______ _______ _______ _____ _____    ______ ____
ROOT
ATOM      1  C   UNL     1       5.762  -3.552  -0.084  0.00  0.00    +0.204 C 
ENDROOT
BRANCH   1   5
ATOM      2  C   UNL     1       3.699  -0.690  -0.038  0.00  0.00    +0.205 A 
ATOM      3  N   UNL     1       4.921  -0.140  -0.042  0.00  0.00    -0.108 NA
ATOM      4  N   UNL     1       5.776  -1.106  -0.059  0.00  0.00    -0.046 NA
ATOM      5  N   UNL     1       5.141  -2.225  -0.065  0.00  0.00    -0.160 N 
ATOM      6  N   UNL     1       3.873  -1.996  -0.047  0.00  0.00    -0.130 NA
BRANCH   2  10
ATOM      7  C   UNL     1      -0.017   1.379   0.010  0.00  0.00    +0.000 A 
ATOM      8  C   UNL     1       1.169   2.092   0.002  0.00  0.00    +0.001 A 
ATOM      9  C   UNL     1       2.377   1.425  -0.013  0.00  0.00    +0.012 A 
ATOM     10  C   UNL     1       2.402   0.033  -0.021  0.00  0.00    +0.023 A 
ATOM     11  C   UNL     1       1.205  -0.680  -0.013  0.00  0.00    +0.012 A 
ATOM     12  C   UNL     1       0.002  -0.004   0.002  0.00  0.00    +0.001 A 
ENDBRANCH   2  10
ENDBRANCH   1   5
BRANCH   1  13
ATOM     13  C   UNL     1       5.989  -4.029   1.352  0.00  0.00    +0.169 C 
BRANCH  13  14
ATOM     14  C   UNL     1       6.738  -5.337   1.334  0.00  0.00    +0.003 A 
ATOM     15  C   UNL     1       6.046  -6.530   1.392  0.00  0.00    +0.008 A 
ATOM     16  C   UNL     1       6.733  -7.731   1.376  0.00  0.00    +0.000 A 
ATOM     17  C   UNL     1       8.114  -7.740   1.302  0.00  0.00    +0.002 A 
ATOM     18  C   UNL     1       8.812  -6.550   1.244  0.00  0.00    +0.023 A 
ATOM     19  C   UNL     1       8.125  -5.342   1.255  0.00  0.00    +0.030 A 
BRANCH  19  20
ATOM     20  N   UNL     1       8.828  -4.137   1.191  0.00  0.00    -0.358 N 
ATOM     21  H   UNL     1       8.347  -3.294   1.202  0.00  0.00    +0.142 HD
ATOM     22  H   UNL     1       9.796  -4.142   1.135  0.00  0.00    +0.142 HD
ENDBRANCH  19  20
ENDBRANCH  13  14
BRANCH  13  23
ATOM     23  O   UNL     1       4.728  -4.211   1.999  0.00  0.00    -0.385 OA
ATOM     24  H   UNL     1       4.156  -4.862   1.569  0.00  0.00    +0.210 HD
ENDBRANCH  13  23
ENDBRANCH   1  13
TORSDOF 6
