REMARK  Name = ZINC09307230
REMARK  6 active torsions:
REMARK  status: ('A' for Active; 'I' for Inactive)
REMARK    1  A    between atoms: C_1  and  C_2
REMARK    2  A    between atoms: C_4  and  C_36
REMARK    3  A    between atoms: N_20  and  C_23
REMARK    4  A    between atoms: C_25  and  C_32
REMARK    5  A    between atoms: C_28  and  O_29
REMARK    6  A    between atoms: O_29  and  C_30
REMARK                            x       y       z     vdW  Elec       q    Type
REMARK                         _______ _______ _______ _____ _____    ______ ____
ROOT
ATOM      1  C   UNL     1       1.225   5.941  -3.155  0.00  0.00    +0.044 C 
ATOM      2  C   UNL     1       1.571   5.250  -1.861  0.00  0.00    -0.050 A 
ATOM      3  C   UNL     1       2.191   5.953  -0.844  0.00  0.00    +0.008 A 
ATOM      4  C   UNL     1       2.510   5.325   0.342  0.00  0.00    -0.029 A 
ATOM      5  C   UNL     1       2.210   3.977   0.525  0.00  0.00    +0.039 A 
ATOM      6  C   UNL     1       1.586   3.281  -0.505  0.00  0.00    -0.027 A 
ATOM      7  C   UNL     1       1.269   3.911  -1.688  0.00  0.00    +0.008 A 
ATOM      8  C   UNL     1       1.403   1.876  -0.001  0.00  0.00    +0.053 C 
ATOM      9  C   UNL     1       2.132   0.861  -0.864  0.00  0.00    +0.089 C 
ATOM     10  C   UNL     1       1.207  -0.387  -0.877  0.00  0.00    +0.074 C 
ATOM     11  C   UNL     1       0.002  -0.004   0.002  0.00  0.00    -0.054 C 
ATOM     12  C   UNL     1      -0.649   1.863  -1.278  0.00  0.00    -0.076 C 
ATOM     13  C   UNL     1      -1.748   0.808  -1.512  0.00  0.00    -0.020 C 
ATOM     14  C   UNL     1      -1.310  -0.419  -0.688  0.00  0.00    -0.016 C 
ATOM     15  C   UNL     1       0.765  -0.478  -2.320  0.00  0.00    +0.229 C 
ATOM     16  O   UNL     1       0.023  -1.323  -2.773  0.00  0.00    -0.275 OA
ATOM     17  N   UNL     1       1.321   0.518  -3.019  0.00  0.00    -0.206 N 
ATOM     18  C   UNL     1       2.108   1.329  -2.302  0.00  0.00    +0.230 C 
ATOM     19  O   UNL     1       2.706   2.289  -2.737  0.00  0.00    -0.275 OA
ATOM     20  C   UNL     1       1.983   1.883   1.387  0.00  0.00    +0.212 C 
ATOM     21  O   UNL     1       2.038   0.944   2.153  0.00  0.00    -0.277 OA
ATOM     22  N   UNL     1       2.429   3.133   1.615  0.00  0.00    -0.286 N 
ATOM     23  C   UNL     1       3.186   6.101   1.444  0.00  0.00    +0.045 C 
ATOM     24  H   UNL     1       2.852   3.414   2.441  0.00  0.00    +0.155 HD
ATOM     25  N   UNL     1       0.004   1.441  -0.022  0.00  0.00    +0.395 N 
ATOM     26  H   UNL     1      -0.500   1.822   0.787  0.00  0.00    -0.079 HD
ENDROOT
BRANCH  17  27
ATOM     27  C   UNL     1       1.098   0.698  -4.394  0.00  0.00    +0.086 A 
ATOM     28  C   UNL     1       0.043   1.486  -4.829  0.00  0.00    +0.032 A 
ATOM     29  C   UNL     1      -0.176   1.661  -6.182  0.00  0.00    -0.030 A 
ATOM     30  C   UNL     1       0.656   1.054  -7.105  0.00  0.00    +0.047 A 
ATOM     31  C   UNL     1       1.711   0.267  -6.678  0.00  0.00    +0.067 A 
ATOM     32  C   UNL     1       1.939   0.091  -5.323  0.00  0.00    +0.143 A 
ATOM     33 CL   UNL     1       0.377   1.279  -8.804  0.00  0.00    -0.083 Cl
ATOM     34  C   UNL     1      -1.324   2.517  -6.653  0.00  0.00    +0.045 C 
BRANCH  32  35
ATOM     35  O   UNL     1       2.978  -0.678  -4.901  0.00  0.00    -0.493 OA
ATOM     36  C   UNL     1       3.799  -1.270  -5.910  0.00  0.00    +0.277 C 
ENDBRANCH  32  35
ENDBRANCH  17  27
TORSDOF 2
