REMARK  Name = ZINC20323517
REMARK  6 active torsions:
REMARK  status: ('A' for Active; 'I' for Inactive)
REMARK    1  A    between atoms: C_1  and  C_2
REMARK    2  A    between atoms: C_6  and  N_8
REMARK    3  A    between atoms: C_9  and  C_11
REMARK    4  A    between atoms: N_21  and  N_22
REMARK    5  A    between atoms: N_22  and  S_23
REMARK    6  A    between atoms: S_23  and  C_26
REMARK                            x       y       z     vdW  Elec       q    Type
REMARK                         _______ _______ _______ _____ _____    ______ ____
ROOT
ATOM      1  C   UNL     1      -4.776   0.871   0.459  0.00  0.00    +0.099 A 
ATOM      2  C   UNL     1      -5.951   1.575   0.351  0.00  0.00    +0.030 A 
ATOM      3  C   UNL     1      -7.167   0.823   0.017  0.00  0.00    +0.018 A 
ATOM      4  C   UNL     1      -8.334   1.488  -0.372  0.00  0.00    +0.011 A 
ATOM      5  C   UNL     1      -9.461   0.759  -0.684  0.00  0.00    +0.001 A 
ATOM      6  C   UNL     1      -9.443  -0.625  -0.614  0.00  0.00    +0.004 A 
ATOM      7  C   UNL     1      -8.296  -1.295  -0.230  0.00  0.00    +0.047 A 
ATOM      8  C   UNL     1      -7.153  -0.581   0.089  0.00  0.00    +0.137 A 
ATOM      9  O   UNL     1      -6.021  -1.226   0.473  0.00  0.00    -0.437 OA
ATOM     10  C   UNL     1      -4.837  -0.590   0.222  0.00  0.00    +0.225 A 
ATOM     11  N   UNL     1      -3.796  -1.246  -0.206  0.00  0.00    -0.260 N 
ATOM     12  H   UNL     1      -2.830  -0.732  -0.317  0.00  0.00    +0.189 HD
ENDROOT
BRANCH   1  14
ATOM     13  N   UNL     1      -3.460   2.886   0.882  0.00  0.00    -0.281 N 
ATOM     14  C   UNL     1      -3.508   1.542   0.789  0.00  0.00    +0.253 C 
ATOM     15  O   UNL     1      -2.502   0.883   0.978  0.00  0.00    -0.270 OA
ATOM     16  H   UNL     1      -4.387   3.475   0.815  0.00  0.00    +0.155 HD
BRANCH  13  22
ATOM     17  C   UNL     1      -0.882   6.614   2.785  0.00  0.00    +0.044 C 
ATOM     18  C   UNL     1      -0.955   5.340   1.982  0.00  0.00    -0.049 A 
ATOM     19  C   UNL     1       0.195   4.805   1.431  0.00  0.00    +0.003 A 
ATOM     20  C   UNL     1       0.133   3.637   0.694  0.00  0.00    +0.002 A 
ATOM     21  C   UNL     1      -1.078   3.000   0.507  0.00  0.00    +0.023 A 
ATOM     22  C   UNL     1      -2.233   3.531   1.065  0.00  0.00    +0.034 A 
ATOM     23  C   UNL     1      -2.169   4.708   1.799  0.00  0.00    +0.026 A 
ENDBRANCH  13  22
ENDBRANCH   1  14
BRANCH  11  24
ATOM     24  N   UNL     1      -3.907  -2.605  -0.525  0.00  0.00    -0.157 N 
ATOM     25  H   UNL     1      -4.774  -3.041  -0.498  0.00  0.00    +0.194 HD
BRANCH  24  26
ATOM     26  S   UNL     1      -2.559  -3.469  -0.949  0.00  0.00    +0.085 S 
ATOM     27  O   UNL     1      -2.937  -4.839  -0.946  0.00  0.00    -0.149 OA
ATOM     28  O   UNL     1      -2.013  -2.832  -2.096  0.00  0.00    -0.149 OA
BRANCH  26  29
ATOM     29  C   UNL     1      -1.383  -3.269   0.347  0.00  0.00    +0.111 A 
ATOM     30  C   UNL     1      -0.541  -2.172   0.351  0.00  0.00    +0.032 A 
ATOM     31  C   UNL     1       0.379  -2.010   1.370  0.00  0.00    +0.042 A 
ATOM     32  C   UNL     1       0.464  -2.952   2.382  0.00  0.00    +0.142 A 
ATOM     33  C   UNL     1      -0.376  -4.053   2.373  0.00  0.00    +0.078 A 
ATOM     34  C   UNL     1      -1.299  -4.210   1.355  0.00  0.00    +0.051 A 
ATOM     35 CL   UNL     1      -0.272  -5.235   3.641  0.00  0.00    -0.081 Cl
ATOM     36  F   UNL     1       1.367  -2.797   3.375  0.00  0.00    -0.204 F 
ENDBRANCH  26  29
ENDBRANCH  24  26
ENDBRANCH  11  24
TORSDOF 5
