REMARK  Name = ZINC35290743
REMARK  9 active torsions:
REMARK  status: ('A' for Active; 'I' for Inactive)
REMARK    1  A    between atoms: C_1  and  C_2
REMARK    2  A    between atoms: C_2  and  C_3
REMARK    3  A    between atoms: C_3  and  C_4
REMARK    4  A    between atoms: C_3  and  C_5
REMARK    5  A    between atoms: C_3  and  N_6
REMARK    6  A    between atoms: C_7  and  C_11
REMARK    7  A    between atoms: C_11  and  C_13
REMARK    8  A    between atoms: C_11  and  N_20
REMARK    9  A    between atoms: C_23  and  C_26
REMARK                            x       y       z     vdW  Elec       q    Type
REMARK                         _______ _______ _______ _____ _____    ______ ____
ROOT
ATOM      1  C   UNL     1      -4.388  -2.607   0.719  0.00  0.00    +0.035 C 
ENDROOT
BRANCH   1   2
ATOM      2  C   UNL     1      -5.208  -3.049   1.904  0.00  0.00    -0.035 A 
ATOM      3  C   UNL     1      -5.859  -4.268   1.878  0.00  0.00    +0.004 A 
ATOM      4  C   UNL     1      -6.612  -4.673   2.964  0.00  0.00    +0.000 A 
ATOM      5  C   UNL     1      -6.713  -3.860   4.078  0.00  0.00    +0.001 A 
ATOM      6  C   UNL     1      -6.062  -2.641   4.105  0.00  0.00    +0.020 A 
ATOM      7  C   UNL     1      -5.305  -2.237   3.020  0.00  0.00    +0.043 A 
ATOM      8 CL   UNL     1      -4.482  -0.709   3.056  0.00  0.00    -0.083 Cl
ENDBRANCH   1   2
BRANCH   1   9
ATOM      9  N   UNL     1      -4.743  -3.419  -0.452  0.00  0.00    +0.389 N 
ATOM     10  C   UNL     1      -4.226  -2.776  -1.666  0.00  0.00    -0.077 C 
ATOM     11  C   UNL     1      -4.522  -3.658  -2.881  0.00  0.00    -0.006 C 
ATOM     12  C   UNL     1      -6.036  -3.850  -3.008  0.00  0.00    +0.071 C 
ATOM     13  C   UNL     1      -6.576  -4.453  -1.708  0.00  0.00    -0.006 C 
ATOM     14  C   UNL     1      -6.203  -3.541  -0.537  0.00  0.00    -0.077 C 
ATOM     15  H   UNL     1      -4.334  -4.337  -0.360  0.00  0.00    -0.080 HD
BRANCH  12  16
ATOM     16  C   UNL     1      -6.331  -4.782  -4.156  0.00  0.00    +0.213 C 
ATOM     17  O   UNL     1      -5.421  -5.247  -4.809  0.00  0.00    -0.276 OA
ATOM     18  N   UNL     1      -7.606  -5.098  -4.457  0.00  0.00    -0.329 N 
ATOM     19  H   UNL     1      -8.334  -4.726  -3.934  0.00  0.00    +0.145 HD
ATOM     20  H   UNL     1      -7.796  -5.697  -5.195  0.00  0.00    +0.145 HD
ENDBRANCH  12  16
ENDBRANCH   1   9
BRANCH   1  22
ATOM     21  N   UNL     1      -2.356  -3.826   1.663  0.00  0.00    -0.225 N 
ATOM     22  C   UNL     1      -2.924  -2.783   1.028  0.00  0.00    +0.143 A 
ATOM     23  N   UNL     1      -1.955  -1.952   0.729  0.00  0.00    -0.115 NA
ATOM     24  N   UNL     1      -0.851  -2.458   1.159  0.00  0.00    -0.023 NA
ATOM     25  N   UNL     1      -1.090  -3.587   1.729  0.00  0.00    -0.043 NA
BRANCH  21  26
ATOM     26  C   UNL     1      -3.048  -5.006   2.188  0.00  0.00    +0.061 C 
ATOM     27  C   UNL     1      -4.055  -5.509   1.152  0.00  0.00    +0.036 C 
ATOM     28  C   UNL     1      -3.784  -4.635   3.477  0.00  0.00    +0.036 C 
BRANCH  26  30
ATOM     29  C   UNL     1      -2.748  -7.339   3.030  0.00  0.00    +0.006 C 
ATOM     30  C   UNL     1      -2.026  -6.106   2.482  0.00  0.00    +0.026 C 
ENDBRANCH  26  30
ENDBRANCH  21  26
ENDBRANCH   1  22
TORSDOF 6
