REMARK  Name = ZINC38551045
REMARK  9 active torsions:
REMARK  status: ('A' for Active; 'I' for Inactive)
REMARK    1  A    between atoms: C_1  and  C_2
REMARK    2  A    between atoms: C_6  and  N_8
REMARK    3  A    between atoms: N_8  and  C_9
REMARK    4  A    between atoms: C_9  and  C_11
REMARK    5  A    between atoms: C_9  and  C_19
REMARK    6  A    between atoms: C_14  and  O_17
REMARK    7  A    between atoms: O_17  and  C_18
REMARK    8  A    between atoms: C_23  and  N_24
REMARK    9  A    between atoms: C_25  and  C_27
REMARK                            x       y       z     vdW  Elec       q    Type
REMARK                         _______ _______ _______ _____ _____    ______ ____
ROOT
ATOM      1  C   UNL     1       0.195  -4.070   2.333  0.00  0.00    +0.135 C 
ENDROOT
BRANCH   1   2
ATOM      2  C   UNL     1       1.489  -4.701   1.887  0.00  0.00    +0.009 A 
ATOM      3  C   UNL     1       2.110  -5.662   2.686  0.00  0.00    -0.030 A 
ATOM      4  C   UNL     1       3.275  -6.184   2.216  0.00  0.00    -0.005 A 
ATOM      5  S   UNL     1       3.520  -5.354   0.668  0.00  0.00    -0.078 S 
ATOM      6  C   UNL     1       2.051  -4.339   0.703  0.00  0.00    +0.078 A 
ATOM      7  C   UNL     1       4.137  -7.217   2.865  0.00  0.00    +0.043 C 
ATOM      8  C   UNL     1       3.708  -7.350   4.334  0.00  0.00    +0.005 C 
ATOM      9  C   UNL     1       2.183  -7.466   4.392  0.00  0.00    +0.005 C 
ATOM     10  C   UNL     1       1.542  -6.127   4.023  0.00  0.00    +0.036 C 
BRANCH   6  11
ATOM     11  N   UNL     1       1.599  -3.413  -0.239  0.00  0.00    -0.273 N 
ATOM     12  C   UNL     1       2.243  -3.279  -1.415  0.00  0.00    +0.284 C 
ATOM     13  O   UNL     1       3.171  -4.018  -1.689  0.00  0.00    -0.266 OA
ATOM     14  H   UNL     1       0.821  -2.866  -0.048  0.00  0.00    +0.156 HD
BRANCH  12  15
ATOM     15  C   UNL     1       1.827  -2.242  -2.365  0.00  0.00    +0.189 A 
ATOM     16  C   UNL     1       2.332  -2.054  -3.620  0.00  0.00    +0.054 A 
ATOM     17  C   UNL     1       1.648  -0.959  -4.170  0.00  0.00    +0.042 A 
ATOM     18  C   UNL     1       0.768  -0.531  -3.239  0.00  0.00    +0.196 A 
ATOM     19  O   UNL     1       0.875  -1.310  -2.155  0.00  0.00    -0.458 OA
ENDBRANCH  12  15
ENDBRANCH   6  11
ENDBRANCH   1   2
BRANCH   1  20
ATOM     20  C   UNL     1      -0.952  -4.687   1.575  0.00  0.00    -0.023 A 
ATOM     21  C   UNL     1      -1.306  -4.190   0.334  0.00  0.00    +0.009 A 
ATOM     22  C   UNL     1      -2.357  -4.754  -0.363  0.00  0.00    +0.046 A 
ATOM     23  C   UNL     1      -3.058  -5.820   0.183  0.00  0.00    +0.120 A 
ATOM     24  C   UNL     1      -2.700  -6.317   1.428  0.00  0.00    +0.046 A 
ATOM     25  C   UNL     1      -1.645  -5.753   2.118  0.00  0.00    +0.009 A 
BRANCH  23  26
ATOM     26  O   UNL     1      -4.092  -6.375  -0.500  0.00  0.00    -0.495 OA
ATOM     27  C   UNL     1      -4.768  -7.470   0.123  0.00  0.00    +0.277 C 
ENDBRANCH  23  26
ENDBRANCH   1  20
BRANCH   1  28
ATOM     28  N   UNL     1       0.237  -2.630   2.068  0.00  0.00    -0.320 N 
ATOM     29  H   UNL     1      -0.229  -2.264   1.299  0.00  0.00    +0.148 HD
BRANCH  28  35
ATOM     30  C   UNL     1       1.859   1.777   2.996  0.00  0.00    +0.063 C 
ATOM     31  C   UNL     1       1.739   0.328   3.390  0.00  0.00    +0.014 A 
ATOM     32  C   UNL     1       2.323  -0.111   4.561  0.00  0.00    +0.021 A 
ATOM     33  C   UNL     1       2.209  -1.448   4.919  0.00  0.00    +0.005 A 
ATOM     34  C   UNL     1       1.508  -2.297   4.082  0.00  0.00    +0.041 A 
ATOM     35  C   UNL     1       0.944  -1.787   2.918  0.00  0.00    +0.097 A 
ATOM     36  N   UNL     1       1.071  -0.504   2.614  0.00  0.00    -0.347 N 
ATOM     37  H   UNL     1       0.666  -0.169   1.798  0.00  0.00    +0.167 HD
ENDBRANCH  28  35
ENDBRANCH   1  28
TORSDOF 7
