REMARK  Name = ZINC39936308
REMARK  6 active torsions:
REMARK  status: ('A' for Active; 'I' for Inactive)
REMARK    1  A    between atoms: C_1  and  C_2
REMARK    2  A    between atoms: C_4  and  C_16
REMARK    3  A    between atoms: C_5  and  C_15
REMARK    4  A    between atoms: N_7  and  C_8
REMARK    5  A    between atoms: C_17  and  C_18
REMARK    6  A    between atoms: C_23  and  N_26
REMARK                            x       y       z     vdW  Elec       q    Type
REMARK                         _______ _______ _______ _____ _____    ______ ____
ROOT
ATOM      1  C   UNL     1      -3.273   0.622  -2.869  0.00  0.00    +0.239 C 
ATOM      2  O   UNL     1      -4.336   0.044  -2.729  0.00  0.00    -0.271 OA
ATOM      3  N   UNL     1      -3.091   1.455  -3.912  0.00  0.00    -0.298 N 
ATOM      4  C   UNL     1      -4.202   1.771  -4.820  0.00  0.00    +0.110 C 
ATOM      5  C   UNL     1      -3.761   1.480  -6.258  0.00  0.00    +0.044 C 
ATOM      6  C   UNL     1      -2.469   2.243  -6.557  0.00  0.00    +0.095 C 
ATOM      7  C   UNL     1      -1.365   1.770  -5.608  0.00  0.00    +0.044 C 
ATOM      8  C   UNL     1      -1.780   2.070  -4.159  0.00  0.00    +0.110 C 
ENDROOT
BRANCH   6   9
ATOM      9  N   UNL     1      -2.063   1.992  -7.942  0.00  0.00    -0.289 N 
ATOM     10  C   UNL     1      -1.905   2.958  -8.932  0.00  0.00    +0.070 A 
ATOM     11  C   UNL     1      -2.059   4.336  -8.951  0.00  0.00    +0.028 A 
ATOM     12  C   UNL     1      -1.823   5.039 -10.116  0.00  0.00    +0.002 A 
ATOM     13  C   UNL     1      -1.433   4.373 -11.266  0.00  0.00    +0.002 A 
ATOM     14  C   UNL     1      -1.277   3.001 -11.257  0.00  0.00    +0.028 A 
ATOM     15  C   UNL     1      -1.511   2.287 -10.092  0.00  0.00    +0.067 A 
ATOM     16  N   UNL     1      -1.442   0.934  -9.770  0.00  0.00    -0.306 N 
ATOM     17  H   UNL     1      -1.194   0.218 -10.375  0.00  0.00    +0.170 HD
ATOM     18  C   UNL     1      -1.773   0.789  -8.472  0.00  0.00    +0.328 A 
ATOM     19  O   UNL     1      -1.808  -0.269  -7.872  0.00  0.00    -0.247 OA
ENDBRANCH   6   9
BRANCH   1  21
ATOM     20  C   UNL     1      -2.448  -0.342  -0.831  0.00  0.00    +0.012 C 
ATOM     21  C   UNL     1      -2.232   0.419  -1.938  0.00  0.00    +0.068 C 
BRANCH  20  24
ATOM     22  C   UNL     1      -0.032   1.540   0.020  0.00  0.00    +0.035 C 
ATOM     23  C   UNL     1      -0.004   0.011   0.013  0.00  0.00    +0.122 C 
ATOM     24  C   UNL     1      -1.410  -0.544   0.097  0.00  0.00    -0.008 C 
ATOM     25  C   UNL     1      -1.478  -1.270   1.234  0.00  0.00    +0.024 C 
ATOM     26  N   UNL     1      -0.295  -1.261   1.904  0.00  0.00    -0.268 N 
ATOM     27  N   UNL     1       0.665  -0.499   1.221  0.00  0.00    -0.246 N 
ATOM     28  C   UNL     1      -2.711  -1.999   1.701  0.00  0.00    +0.062 C 
ATOM     29  H   UNL     1      -0.135  -1.722   2.743  0.00  0.00    +0.170 HD
BRANCH  27  30
ATOM     30  C   UNL     1       1.989  -0.268   1.608  0.00  0.00    +0.048 A 
ATOM     31  C   UNL     1       2.816   0.521   0.819  0.00  0.00    +0.027 A 
ATOM     32  C   UNL     1       4.124   0.747   1.203  0.00  0.00    +0.040 A 
ATOM     33  C   UNL     1       4.609   0.189   2.373  0.00  0.00    +0.124 A 
ATOM     34  C   UNL     1       3.786  -0.598   3.161  0.00  0.00    +0.040 A 
ATOM     35  C   UNL     1       2.476  -0.822   2.785  0.00  0.00    +0.027 A 
ATOM     36  F   UNL     1       5.888   0.412   2.747  0.00  0.00    -0.205 F 
ENDBRANCH  27  30
ENDBRANCH  20  24
ENDBRANCH   1  21
TORSDOF 4
