REMARK  Name = ZINC15124474
REMARK  13 active torsions:
REMARK  status: ('A' for Active; 'I' for Inactive)
REMARK    1  A    between atoms: C_1  and  C_2
REMARK    2  A    between atoms: C_2  and  C_3
REMARK    3  A    between atoms: C_3  and  C_4
REMARK    4  A    between atoms: C_4  and  N_5
REMARK    5  A    between atoms: N_5  and  C_6
REMARK    6  A    between atoms: C_7  and  N_22
REMARK    7  A    between atoms: N_8  and  C_15
REMARK    8  A    between atoms: C_15  and  C_16
REMARK    9  A    between atoms: C_23  and  C_25
REMARK   10  A    between atoms: C_25  and  N_26
REMARK   11  A    between atoms: N_26  and  C_27
REMARK   12  A    between atoms: C_31  and  N_34
REMARK   13  A    between atoms: C_32  and  C_33
REMARK                            x       y       z     vdW  Elec       q    Type
REMARK                         _______ _______ _______ _____ _____    ______ ____
ROOT
ATOM      1  N   UNL     1       2.548   4.050  -0.370  0.00  0.00    -0.263 N 
ATOM      2  C   UNL     1       2.790   5.375  -0.295  0.00  0.00    +0.237 C 
ATOM      3  O   UNL     1       1.868   6.163  -0.326  0.00  0.00    -0.274 OA
ENDROOT
BRANCH   1   4
ATOM      4  C   UNL     1       1.235   3.584  -0.594  0.00  0.00    +0.140 A 
ATOM      5  C   UNL     1       0.563   2.882   0.386  0.00  0.00    +0.128 A 
ATOM      6  N   UNL     1      -0.716   2.441   0.139  0.00  0.00    -0.276 N 
ATOM      7  C   UNL     1      -1.308   2.696  -1.043  0.00  0.00    +0.331 A 
ATOM      8  O   UNL     1      -2.441   2.302  -1.240  0.00  0.00    -0.246 OA
ATOM      9  N   UNL     1      -0.667   3.374  -2.011  0.00  0.00    -0.273 N 
ATOM     10  H   UNL     1      -1.126   3.544  -2.883  0.00  0.00    +0.173 HD
ATOM     11  C   UNL     1       0.588   3.828  -1.819  0.00  0.00    +0.277 A 
ATOM     12  O   UNL     1       1.158   4.446  -2.703  0.00  0.00    -0.266 OA
BRANCH   5  13
ATOM     13  N   UNL     1       1.165   2.625   1.594  0.00  0.00    -0.343 N 
ATOM     14  H   UNL     1       2.025   3.023   1.802  0.00  0.00    +0.144 HD
ATOM     15  H   UNL     1       0.731   2.046   2.240  0.00  0.00    +0.144 HD
ENDBRANCH   5  13
BRANCH   6  16
ATOM     16  C   UNL     1      -1.441   1.694   1.170  0.00  0.00    +0.163 C 
BRANCH  16  17
ATOM     17  C   UNL     1      -2.209   2.656   2.040  0.00  0.00    -0.028 A 
ATOM     18  C   UNL     1      -1.619   3.185   3.173  0.00  0.00    +0.005 A 
ATOM     19  C   UNL     1      -2.322   4.070   3.968  0.00  0.00    +0.000 A 
ATOM     20  C   UNL     1      -3.618   4.419   3.637  0.00  0.00    +0.000 A 
ATOM     21  C   UNL     1      -4.209   3.886   2.507  0.00  0.00    +0.000 A 
ATOM     22  C   UNL     1      -3.505   3.004   1.708  0.00  0.00    +0.005 A 
ENDBRANCH  16  17
ENDBRANCH   6  16
ENDBRANCH   1   4
BRANCH   1  23
ATOM     23  C   UNL     1       3.648   3.094  -0.220  0.00  0.00    +0.114 C 
BRANCH  23  24
ATOM     24  C   UNL     1       4.319   2.871  -1.577  0.00  0.00    +0.019 C 
BRANCH  24  26
ATOM     25  C   UNL     1       6.139   1.651  -2.776  0.00  0.00    +0.004 C 
ATOM     26  C   UNL     1       5.468   1.873  -1.420  0.00  0.00    -0.002 C 
ENDBRANCH  24  26
ENDBRANCH  23  24
ENDBRANCH   1  23
BRANCH   2  27
ATOM     27  C   UNL     1       4.206   5.876  -0.174  0.00  0.00    +0.198 C 
BRANCH  27  28
ATOM     28  N   UNL     1       4.202   7.340  -0.110  0.00  0.00    -0.335 N 
ATOM     29  H   UNL     1       3.363   7.825  -0.148  0.00  0.00    +0.147 HD
BRANCH  28  30
ATOM     30  C   UNL     1       5.407   8.037   0.005  0.00  0.00    +0.033 A 
ATOM     31  C   UNL     1       6.610   7.345   0.060  0.00  0.00    +0.023 A 
ATOM     32  C   UNL     1       7.799   8.037   0.174  0.00  0.00    +0.004 A 
ATOM     33  C   UNL     1       7.793   9.419   0.234  0.00  0.00    +0.033 A 
ATOM     34  C   UNL     1       6.598  10.111   0.180  0.00  0.00    +0.131 A 
ATOM     35  C   UNL     1       5.405   9.425   0.060  0.00  0.00    +0.001 A 
ATOM     36  C   UNL     1       4.103  10.181  -0.005  0.00  0.00    +0.048 C 
BRANCH  34  37
ATOM     37  N   UNL     1       6.596  11.590   0.245  0.00  0.00    +0.057 N 
ATOM     38  O   UNL     1       7.647  12.196   0.358  0.00  0.00    -0.126 OA
ATOM     39  O   UNL     1       5.544  12.201   0.186  0.00  0.00    -0.126 OA
ENDBRANCH  34  37
ENDBRANCH  28  30
ENDBRANCH  27  28
ENDBRANCH   2  27
TORSDOF 11
