REMARK  Name = ZINC19802029
REMARK  12 active torsions:
REMARK  status: ('A' for Active; 'I' for Inactive)
REMARK    1  A    between atoms: C_3  and  O_32
REMARK    2  A    between atoms: C_6  and  O_7
REMARK    3  A    between atoms: C_11  and  N_25
REMARK    4  A    between atoms: N_21  and  C_22
REMARK    5  A    between atoms: C_22  and  C_23
REMARK    6  A    between atoms: C_23  and  O_24
REMARK    7  A    between atoms: N_25  and  C_26
REMARK    8  A    between atoms: C_26  and  C_27
REMARK    9  A    between atoms: C_27  and  N_28
REMARK   10  A    between atoms: N_28  and  C_29
REMARK   11  A    between atoms: C_29  and  C_30
REMARK   12  A    between atoms: C_30  and  O_31
REMARK                            x       y       z     vdW  Elec       q    Type
REMARK                         _______ _______ _______ _____ _____    ______ ____
ROOT
ATOM      1  C   UNL     1      -2.902  10.045   2.457  0.00  0.00    +0.050 A 
ATOM      2  C   UNL     1      -4.006   9.363   2.921  0.00  0.00    +0.050 A 
ATOM      3  C   UNL     1      -4.043   7.972   2.883  0.00  0.00    +0.129 A 
ATOM      4  C   UNL     1      -2.955   7.260   2.371  0.00  0.00    +0.078 A 
ATOM      5  C   UNL     1      -1.827   7.958   1.897  0.00  0.00    +0.078 A 
ATOM      6  C   UNL     1      -1.808   9.354   1.943  0.00  0.00    +0.129 A 
ATOM      7  C   UNL     1      -0.674   7.216   1.354  0.00  0.00    +0.200 C 
ATOM      8  O   UNL     1       0.301   7.820   0.944  0.00  0.00    -0.286 OA
ATOM      9  C   UNL     1      -0.705   5.750   1.307  0.00  0.00    +0.056 A 
ATOM     10  C   UNL     1       0.384   5.035   0.789  0.00  0.00    +0.041 A 
ATOM     11  C   UNL     1       0.345   3.646   0.754  0.00  0.00    +0.048 A 
ATOM     12  C   UNL     1      -0.760   2.950   1.225  0.00  0.00    +0.053 A 
ATOM     13  C   UNL     1      -1.861   3.649   1.739  0.00  0.00    +0.060 A 
ATOM     14  C   UNL     1      -1.833   5.049   1.784  0.00  0.00    +0.058 A 
ATOM     15  C   UNL     1      -2.985   5.788   2.326  0.00  0.00    +0.200 C 
ATOM     16  O   UNL     1      -3.959   5.184   2.736  0.00  0.00    -0.286 OA
ATOM     17  N   UNL     1      -2.998   3.009   2.211  0.00  0.00    -0.340 N 
ATOM     18  C   UNL     1      -2.755   1.592   2.501  0.00  0.00    +0.120 C 
ATOM     19  C   UNL     1      -2.058   0.966   1.287  0.00  0.00    +0.124 C 
ATOM     20  N   UNL     1      -0.723   1.561   1.165  0.00  0.00    -0.325 N 
ATOM     21  H   UNL     1      -3.996   3.441   2.375  0.00  0.00    +0.146 HD
ENDROOT
BRANCH   6  22
ATOM     22  O   UNL     1      -0.726  10.034   1.489  0.00  0.00    -0.506 OA
ATOM     23  H   UNL     1       0.138   9.487   1.084  0.00  0.00    +0.292 HD
ENDBRANCH   6  22
BRANCH  10  24
ATOM     24  N   UNL     1       1.497   5.713   0.314  0.00  0.00    -0.345 N 
ATOM     25  H   UNL     1       1.486   6.810   0.246  0.00  0.00    +0.146 HD
BRANCH  24  26
ATOM     26  C   UNL     1       2.689   4.965  -0.098  0.00  0.00    +0.082 C 
BRANCH  26  27
ATOM     27  C   UNL     1       3.763   5.943  -0.577  0.00  0.00    -0.064 C 
BRANCH  27  28
ATOM     28  N   UNL     1       4.958   5.194  -0.990  0.00  0.00    +0.382 N 
ATOM     29  H   UNL     1       5.342   4.617  -0.136  0.00  0.00    -0.086 HD
ATOM     30  H   UNL     1       4.695   4.507  -1.808  0.00  0.00    -0.086 HD
BRANCH  28  31
ATOM     31  C   UNL     1       6.013   6.102  -1.458  0.00  0.00    -0.054 C 
BRANCH  31  32
ATOM     32  C   UNL     1       7.238   5.287  -1.878  0.00  0.00    +0.137 C 
BRANCH  32  33
ATOM     33  O   UNL     1       6.907   4.478  -3.008  0.00  0.00    -0.397 OA
ATOM     34  H   UNL     1       7.666   3.819  -3.454  0.00  0.00    +0.209 HD
ENDBRANCH  32  33
ENDBRANCH  31  32
ENDBRANCH  28  31
ENDBRANCH  27  28
ENDBRANCH  26  27
ENDBRANCH  24  26
ENDBRANCH  10  24
BRANCH   3  35
ATOM     35  O   UNL     1      -5.134   7.309   3.341  0.00  0.00    -0.506 OA
ATOM     36  H   UNL     1      -5.163   6.209   3.311  0.00  0.00    +0.292 HD
ENDBRANCH   3  35
BRANCH  20  37
ATOM     37  C   UNL     1      -0.053   1.104  -0.059  0.00  0.00    +0.133 C 
BRANCH  37  38
ATOM     38  C   UNL     1      -0.802   1.639  -1.281  0.00  0.00    +0.174 C 
BRANCH  38  39
ATOM     39  O   UNL     1      -0.711   3.065  -1.309  0.00  0.00    -0.393 OA
ATOM     40  H   UNL     1      -1.192   3.631  -2.120  0.00  0.00    +0.209 HD
ENDBRANCH  38  39
ENDBRANCH  37  38
ENDBRANCH  20  37
TORSDOF 12
