REMARK  Name = ZINC39670572
REMARK  5 active torsions:
REMARK  status: ('A' for Active; 'I' for Inactive)
REMARK    1  A    between atoms: C_1  and  C_2
REMARK    2  A    between atoms: C_7  and  C_11
REMARK    3  A    between atoms: C_11  and  N_12
REMARK    4  A    between atoms: C_13  and  C_15
REMARK    5  A    between atoms: C_26  and  C_28
REMARK                            x       y       z     vdW  Elec       q    Type
REMARK                         _______ _______ _______ _____ _____    ______ ____
ROOT
ATOM      1  C   UNL     1       3.905  -7.154   3.637  0.00  0.00    +0.100 C 
ATOM      2  C   UNL     1       3.998  -7.777   2.225  0.00  0.00    +0.121 C 
ATOM      3  N   UNL     1       4.816  -8.999   2.408  0.00  0.00    -0.300 N 
ATOM      4  C   UNL     1       4.356  -9.560   3.700  0.00  0.00    +0.115 C 
ATOM      5  C   UNL     1       4.141  -8.328   4.602  0.00  0.00    -0.004 C 
ATOM      6  C   UNL     1       5.381  -8.073   5.452  0.00  0.00    -0.010 C 
ATOM      7  C   UNL     1       5.562  -9.227   6.442  0.00  0.00    -0.082 C 
ATOM      8  N   UNL     1       4.372  -9.332   7.296  0.00  0.00    +0.379 N 
ATOM      9  C   UNL     1       3.199  -9.669   6.481  0.00  0.00    -0.082 C 
ATOM     10  C   UNL     1       2.919  -8.534   5.492  0.00  0.00    -0.010 C 
ATOM     11  C   UNL     1       5.763  -9.489   1.584  0.00  0.00    +0.219 C 
ATOM     12  O   UNL     1       6.085  -8.869   0.593  0.00  0.00    -0.275 OA
ATOM     13  H   UNL     1       4.519 -10.053   7.987  0.00  0.00    -0.086 HD
ATOM     14  H   UNL     1       4.215  -8.450   7.761  0.00  0.00    -0.086 HD
ENDROOT
BRANCH  11  15
ATOM     15  C   UNL     1       6.422 -10.809   1.895  0.00  0.00    +0.079 C 
ATOM     16  C   UNL     1       7.809 -10.858   1.242  0.00  0.00    +0.017 C 
ATOM     17  C   UNL     1       8.523 -12.125   1.719  0.00  0.00    +0.027 C 
ATOM     18  C   UNL     1       7.625 -13.316   1.558  0.00  0.00    -0.031 C 
ATOM     19  C   UNL     1       6.343 -13.241   1.391  0.00  0.00    -0.030 C 
ATOM     20  C   UNL     1       5.576 -11.952   1.330  0.00  0.00    +0.039 C 
ENDBRANCH  11  15
BRANCH   1  22
ATOM     21  N   UNL     1       2.386  -5.525   4.710  0.00  0.00    -0.309 N 
ATOM     22  C   UNL     1       2.539  -6.558   3.859  0.00  0.00    +0.219 C 
ATOM     23  O   UNL     1       1.578  -7.008   3.272  0.00  0.00    -0.275 OA
ATOM     24  H   UNL     1       3.154  -5.165   5.180  0.00  0.00    +0.149 HD
BRANCH  21  25
ATOM     25  C   UNL     1       1.058  -4.945   4.926  0.00  0.00    +0.159 C 
BRANCH  25  32
ATOM     26  C   UNL     1       1.206  -0.359  10.720  0.00  0.00    +0.045 C 
ATOM     27  C   UNL     1       1.300  -0.875   9.307  0.00  0.00    -0.034 A 
ATOM     28  C   UNL     1       1.641   0.002   8.264  0.00  0.00    +0.008 A 
ATOM     29  C   UNL     1       1.725  -0.468   6.990  0.00  0.00    +0.045 A 
ATOM     30  C   UNL     1       1.468  -1.831   6.738  0.00  0.00    +0.115 A 
ATOM     31  N   UNL     1       1.474  -2.549   5.624  0.00  0.00    -0.342 N 
ATOM     32  C   UNL     1       1.159  -3.813   5.916  0.00  0.00    +0.051 A 
ATOM     33  C   UNL     1       0.945  -3.908   7.247  0.00  0.00    +0.115 A 
ATOM     34  N   UNL     1       1.137  -2.661   7.777  0.00  0.00    -0.308 N 
ATOM     35  C   UNL     1       1.061  -2.178   9.051  0.00  0.00    +0.096 A 
ATOM     36  H   UNL     1       1.676  -2.210   4.738  0.00  0.00    +0.167 HD
ENDBRANCH  25  32
ENDBRANCH  21  25
ENDBRANCH   1  22
TORSDOF 4
