REMARK  Name = ZINC01735706
REMARK  4 active torsions:
REMARK  status: ('A' for Active; 'I' for Inactive)
REMARK    1  A    between atoms: C_4  and  C_7
REMARK    2  A    between atoms: C_8  and  C_9
REMARK    3  A    between atoms: C_12  and  C_13
REMARK    4  A    between atoms: C_18  and  O_19
REMARK                            x       y       z     vdW  Elec       q    Type
REMARK                         _______ _______ _______ _____ _____    ______ ____
ROOT
ATOM      1  C   UNL     1       2.559   7.646   0.307  0.00  0.00    +0.225 C 
ATOM      2  N   UNL     1       1.282   7.365   0.235  0.00  0.00    -0.206 NA
ATOM      3  C   UNL     1       1.130   6.016   0.127  0.00  0.00    +0.152 C 
ATOM      4  C   UNL     1      -0.055   5.314   0.031  0.00  0.00    +0.046 C 
ATOM      5  C   UNL     1       2.497   5.463   0.127  0.00  0.00    +0.364 C 
ATOM      6  O   UNL     1       2.819   4.293   0.043  0.00  0.00    -0.243 OA
ATOM      7  O   UNL     1       3.314   6.531   0.241  0.00  0.00    -0.403 OA
ENDROOT
BRANCH   4   8
ATOM      8  C   UNL     1      -0.046   3.852   0.078  0.00  0.00    +0.019 A 
ATOM      9  C   UNL     1       0.790   3.180   0.982  0.00  0.00    +0.011 A 
ATOM     10  C   UNL     1       0.793   1.804   1.019  0.00  0.00    +0.001 A 
ATOM     11  C   UNL     1      -0.026   1.078   0.168  0.00  0.00    +0.004 A 
ATOM     12  C   UNL     1      -0.851   1.725  -0.732  0.00  0.00    +0.046 A 
ATOM     13  C   UNL     1      -0.874   3.109  -0.783  0.00  0.00    +0.124 A 
BRANCH  13  14
ATOM     14  O   UNL     1      -1.688   3.746  -1.663  0.00  0.00    -0.506 OA
ATOM     15  H   UNL     1      -1.280   3.915  -2.524  0.00  0.00    +0.292 HD
ENDBRANCH  13  14
ENDBRANCH   4   8
BRANCH   1  17
ATOM     16  C   UNL     1       4.432   9.192   0.495  0.00  0.00    +0.013 C 
ATOM     17  C   UNL     1       3.098   9.000   0.434  0.00  0.00    +0.068 C 
BRANCH  16  21
ATOM     18  C   UNL     1       5.995  13.118   0.865  0.00  0.00    +0.000 A 
ATOM     19  C   UNL     1       6.857  12.036   0.806  0.00  0.00    +0.001 A 
ATOM     20  C   UNL     1       6.357  10.757   0.686  0.00  0.00    +0.008 A 
ATOM     21  C   UNL     1       4.974  10.554   0.623  0.00  0.00    -0.025 A 
ATOM     22  C   UNL     1       4.110  11.652   0.678  0.00  0.00    +0.008 A 
ATOM     23  C   UNL     1       4.626  12.925   0.803  0.00  0.00    +0.001 A 
ENDBRANCH  16  21
ENDBRANCH   1  17
TORSDOF 4
