REMARK  Name = ZINC08442585
REMARK  7 active torsions:
REMARK  status: ('A' for Active; 'I' for Inactive)
REMARK    1  A    between atoms: C_1  and  C_2
REMARK    2  A    between atoms: C_3  and  C_13
REMARK    3  A    between atoms: C_13  and  C_25
REMARK    4  A    between atoms: N_14  and  N_15
REMARK    5  A    between atoms: C_16  and  C_17
REMARK    6  A    between atoms: C_20  and  O_24
REMARK    7  A    between atoms: C_22  and  O_23
REMARK                            x       y       z     vdW  Elec       q    Type
REMARK                         _______ _______ _______ _____ _____    ______ ____
ROOT
ATOM      1  C   UNL     1       3.413   6.174   0.002  0.00  0.00    +0.089 C 
ATOM      2  N   UNL     1       2.287   5.509   0.009  0.00  0.00    -0.152 NA
ATOM      3  C   UNL     1       4.726   5.433  -0.014  0.00  0.00    +0.070 C 
ENDROOT
BRANCH   1   6
ATOM      4  C   UNL     1       0.841   7.976   0.034  0.00  0.00    +0.068 C 
ATOM      5  C   UNL     1       2.275   8.441   0.024  0.00  0.00    +0.073 A 
ATOM      6  C   UNL     1       3.399   7.644   0.009  0.00  0.00    +0.131 A 
ATOM      7  N   UNL     1       4.482   8.443   0.009  0.00  0.00    -0.128 NA
ATOM      8  N   UNL     1       4.111   9.676   0.014  0.00  0.00    -0.058 NA
ATOM      9  N   UNL     1       2.710   9.723   0.027  0.00  0.00    -0.192 N 
ATOM     10  C   UNL     1       1.915  10.874   0.039  0.00  0.00    +0.240 A 
ATOM     11  C   UNL     1       2.405  12.255   0.042  0.00  0.00    +0.206 A 
ATOM     12  N   UNL     1       1.375  13.056   0.055  0.00  0.00    -0.032 NA
ATOM     13  O   UNL     1       0.205  12.258   0.061  0.00  0.00    -0.239 OA
ATOM     14  N   UNL     1       0.612  10.901   0.045  0.00  0.00    -0.027 NA
ATOM     15  N   UNL     1       3.740  12.646   0.034  0.00  0.00    -0.337 N 
ATOM     16  H   UNL     1       4.441  11.976   0.025  0.00  0.00    +0.144 HD
ATOM     17  H   UNL     1       3.969  13.588   0.036  0.00  0.00    +0.144 HD
ENDBRANCH   1   6
BRANCH   2  18
ATOM     18  N   UNL     1       2.300   4.220   0.002  0.00  0.00    -0.157 NA
ATOM     19  C   UNL     1       1.173   3.554   0.009  0.00  0.00    +0.146 C 
BRANCH  19  20
ATOM     20  C   UNL     1       1.187   2.087   0.002  0.00  0.00    +0.036 A 
ATOM     21  C   UNL     1      -0.017   1.372   0.010  0.00  0.00    +0.016 A 
ATOM     22  C   UNL     1       0.002  -0.004   0.002  0.00  0.00    +0.046 A 
ATOM     23  C   UNL     1       1.213  -0.689  -0.014  0.00  0.00    +0.120 A 
ATOM     24  C   UNL     1       2.412   0.009  -0.021  0.00  0.00    +0.091 A 
ATOM     25  C   UNL     1       2.409   1.393  -0.013  0.00  0.00    +0.129 A 
BRANCH  25  26
ATOM     26  O   UNL     1       3.581   2.077  -0.021  0.00  0.00    -0.506 OA
ATOM     27  H   UNL     1       3.913   2.280  -0.906  0.00  0.00    +0.292 HD
ENDBRANCH  25  26
BRANCH  23  28
ATOM     28  O   UNL     1       1.222  -2.046  -0.022  0.00  0.00    -0.507 OA
ATOM     29  H   UNL     1       1.216  -2.434  -0.908  0.00  0.00    +0.292 HD
ENDBRANCH  23  28
ENDBRANCH  19  20
ENDBRANCH   2  18
TORSDOF 5
