REMARK  Name = ZINC24418262
REMARK  7 active torsions:
REMARK  status: ('A' for Active; 'I' for Inactive)
REMARK    1  A    between atoms: C_1  and  C_2
REMARK    2  A    between atoms: C_5  and  N_9
REMARK    3  A    between atoms: C_7  and  C_8
REMARK    4  A    between atoms: C_13  and  C_15
REMARK    5  A    between atoms: C_15  and  N_16
REMARK    6  A    between atoms: C_19  and  C_23
REMARK    7  A    between atoms: C_19  and  C_24
REMARK                            x       y       z     vdW  Elec       q    Type
REMARK                         _______ _______ _______ _____ _____    ______ ____
ROOT
ATOM      1  N   UNL     1       8.273   3.124   0.453  0.00  0.00    -0.215 N 
ATOM      2  C   UNL     1       8.773   2.640   1.606  0.00  0.00    +0.251 C 
ATOM      3  O   UNL     1       8.390   2.883   2.730  0.00  0.00    -0.272 OA
ATOM      4  C   UNL     1       9.915   1.726   1.206  0.00  0.00    +0.135 C 
ATOM      5  N   UNL     1       9.931   1.816  -0.264  0.00  0.00    -0.281 N 
ATOM      6  C   UNL     1       8.938   2.655  -0.609  0.00  0.00    +0.310 C 
ATOM      7  O   UNL     1       8.673   2.952  -1.758  0.00  0.00    -0.252 OA
ATOM      8  C   UNL     1       9.641   0.288   1.655  0.00  0.00    +0.047 C 
ATOM      9  H   UNL     1      10.674   1.247  -0.842  0.00  0.00    +0.152 HD
ENDROOT
BRANCH   4  10
ATOM     10  C   UNL     1      11.216   2.220   1.782  0.00  0.00    -0.015 A 
ATOM     11  C   UNL     1      11.236   2.833   3.022  0.00  0.00    +0.006 A 
ATOM     12  C   UNL     1      12.430   3.286   3.548  0.00  0.00    +0.004 A 
ATOM     13  C   UNL     1      13.608   3.128   2.838  0.00  0.00    -0.044 A 
ATOM     14  C   UNL     1      13.589   2.516   1.599  0.00  0.00    -0.044 A 
ATOM     15  C   UNL     1      12.391   2.058   1.075  0.00  0.00    +0.010 A 
ATOM     16  C   UNL     1      14.991   2.464   1.031  0.00  0.00    +0.036 C 
ATOM     17  C   UNL     1      15.797   3.494   1.851  0.00  0.00    +0.009 C 
ATOM     18  C   UNL     1      15.025   3.530   3.187  0.00  0.00    +0.036 C 
ENDBRANCH   4  10
BRANCH   1  19
ATOM     19  C   UNL     1       7.145   4.056   0.372  0.00  0.00    +0.214 C 
BRANCH  19  24
ATOM     20  N   UNL     1       2.355   3.889   0.000  0.00  0.00    -0.269 N 
ATOM     21  C   UNL     1       3.531   3.236   0.086  0.00  0.00    +0.310 C 
ATOM     22  O   UNL     1       3.554   2.021   0.080  0.00  0.00    -0.252 OA
ATOM     23  N   UNL     1       4.682   3.931   0.180  0.00  0.00    -0.239 N 
ATOM     24  C   UNL     1       5.859   3.279   0.267  0.00  0.00    +0.238 C 
ATOM     25  O   UNL     1       5.881   2.067   0.260  0.00  0.00    -0.274 OA
ATOM     26  H   UNL     1       2.340   4.986  -0.082  0.00  0.00    +0.156 HD
ATOM     27  H   UNL     1       4.662   5.031   0.186  0.00  0.00    +0.159 HD
BRANCH  20  32
ATOM     28  C   UNL     1      -2.510   0.971   0.049  0.00  0.00    +0.044 C 
ATOM     29  C   UNL     1      -1.218   1.748   0.039  0.00  0.00    -0.047 A 
ATOM     30  C   UNL     1      -0.136   1.297   0.772  0.00  0.00    +0.005 A 
ATOM     31  C   UNL     1       1.050   2.003   0.760  0.00  0.00    +0.023 A 
ATOM     32  C   UNL     1       1.154   3.171   0.015  0.00  0.00    +0.035 A 
ATOM     33  C   UNL     1       0.064   3.624  -0.716  0.00  0.00    +0.027 A 
ATOM     34  C   UNL     1      -1.120   2.913  -0.700  0.00  0.00    -0.046 A 
ATOM     35  C   UNL     1      -2.304   3.404  -1.492  0.00  0.00    +0.044 C 
ENDBRANCH  20  32
ENDBRANCH  19  24
ENDBRANCH   1  19
TORSDOF 4
