REMARK  Name = ZINC06076908
REMARK  15 active torsions:
REMARK  status: ('A' for Active; 'I' for Inactive)
REMARK    1  A    between atoms: C_1  and  C_2
REMARK    2  A    between atoms: C_2  and  C_3
REMARK    3  A    between atoms: C_2  and  C_4
REMARK    4  A    between atoms: C_4  and  C_5
REMARK    5  A    between atoms: C_5  and  N_6
REMARK    6  A    between atoms: C_7  and  C_9
REMARK    7  A    between atoms: C_9  and  C_11
REMARK    8  A    between atoms: C_9  and  N_20
REMARK    9  A    between atoms: C_14  and  N_17
REMARK   10  A    between atoms: N_17  and  C_18
REMARK   11  A    between atoms: N_17  and  C_19
REMARK   12  A    between atoms: N_20  and  C_21
REMARK   13  A    between atoms: C_28  and  C_30
REMARK   14  A    between atoms: C_31  and  N_38
REMARK   15  A    between atoms: C_32  and  C_35
REMARK                            x       y       z     vdW  Elec       q    Type
REMARK                         _______ _______ _______ _____ _____    ______ ____
ROOT
ATOM      1  N   UNL     1      -3.914   1.666  -0.382  0.00  0.00    -0.251 N 
ATOM      2  C   UNL     1      -3.999   2.050  -1.671  0.00  0.00    +0.262 C 
ATOM      3  O   UNL     1      -2.988   2.183  -2.335  0.00  0.00    -0.269 OA
ENDROOT
BRANCH   1   4
ATOM      4  C   UNL     1      -5.070   1.581   0.400  0.00  0.00    +0.040 A 
ATOM      5  C   UNL     1      -5.524   0.343   0.837  0.00  0.00    +0.024 A 
ATOM      6  C   UNL     1      -6.666   0.260   1.609  0.00  0.00    +0.005 A 
ATOM      7  C   UNL     1      -7.359   1.408   1.948  0.00  0.00    +0.038 A 
ATOM      8  C   UNL     1      -6.909   2.644   1.515  0.00  0.00    +0.125 A 
ATOM      9  C   UNL     1      -5.763   2.733   0.746  0.00  0.00    +0.062 A 
ATOM     10  F   UNL     1      -7.588   3.764   1.847  0.00  0.00    -0.205 F 
ENDBRANCH   1   4
BRANCH   2  11
ATOM     11  C   UNL     1      -5.309   2.307  -2.273  0.00  0.00    +0.116 A 
ATOM     12  C   UNL     1      -5.618   2.811  -3.538  0.00  0.00    +0.076 A 
ATOM     13  C   UNL     1      -6.992   2.914  -3.751  0.00  0.00    +0.155 A 
ATOM     14  N   UNL     1      -7.820   2.549  -2.797  0.00  0.00    -0.203 NA
ATOM     15  S   UNL     1      -6.934   2.053  -1.591  0.00  0.00    +0.019 S 
BRANCH  13  16
ATOM     16  C   UNL     1      -7.512   3.429  -5.031  0.00  0.00    +0.262 C 
ATOM     17  O   UNL     1      -6.740   3.765  -5.909  0.00  0.00    -0.269 OA
ATOM     18  N   UNL     1      -8.841   3.525  -5.229  0.00  0.00    -0.324 N 
ATOM     19  H   UNL     1      -9.457   3.256  -4.529  0.00  0.00    +0.145 HD
ATOM     20  H   UNL     1      -9.183   3.863  -6.071  0.00  0.00    +0.145 HD
ENDBRANCH  13  16
BRANCH  12  21
ATOM     21  N   UNL     1      -4.663   3.171  -4.479  0.00  0.00    -0.355 N 
ATOM     22  H   UNL     1      -3.719   3.077  -4.274  0.00  0.00    +0.142 HD
ATOM     23  H   UNL     1      -4.939   3.516  -5.343  0.00  0.00    +0.142 HD
ENDBRANCH  12  21
ENDBRANCH   2  11
BRANCH   1  24
ATOM     24  C   UNL     1      -2.610   1.339   0.200  0.00  0.00    +0.197 C 
BRANCH  24  25
ATOM     25  C   UNL     1      -2.805   0.767   1.580  0.00  0.00    -0.018 A 
ATOM     26  C   UNL     1      -3.533   1.470   2.522  0.00  0.00    +0.008 A 
ATOM     27  C   UNL     1      -3.719   0.946   3.786  0.00  0.00    +0.023 A 
ATOM     28  C   UNL     1      -3.164  -0.284   4.115  0.00  0.00    +0.029 A 
ATOM     29  C   UNL     1      -2.429  -0.986   3.168  0.00  0.00    +0.023 A 
ATOM     30  C   UNL     1      -2.252  -0.459   1.904  0.00  0.00    +0.008 A 
BRANCH  28  31
ATOM     31  N   UNL     1      -3.345  -0.815   5.394  0.00  0.00    -0.336 N 
ATOM     32  C   UNL     1      -2.692  -2.073   5.764  0.00  0.00    +0.129 C 
ATOM     33  C   UNL     1      -4.187  -0.113   6.366  0.00  0.00    +0.129 C 
ENDBRANCH  28  31
ENDBRANCH  24  25
BRANCH  24  35
ATOM     34  N   UNL     1      -0.524   2.528   0.795  0.00  0.00    -0.313 N 
ATOM     35  C   UNL     1      -1.771   2.588   0.288  0.00  0.00    +0.238 C 
ATOM     36  O   UNL     1      -2.219   3.647  -0.097  0.00  0.00    -0.273 OA
ATOM     37  H   UNL     1      -0.166   1.681   1.104  0.00  0.00    +0.149 HD
BRANCH  34  38
ATOM     38  C   UNL     1       0.293   3.741   0.876  0.00  0.00    +0.104 C 
BRANCH  38  39
ATOM     39  C   UNL     1       1.657   3.398   1.478  0.00  0.00    +0.022 C 
BRANCH  39  41
ATOM     40  C   UNL     1       3.825   4.348   2.278  0.00  0.00    +0.007 C 
ATOM     41  C   UNL     1       2.511   4.665   1.562  0.00  0.00    -0.016 C 
ATOM     42  C   UNL     1       2.808   5.174   0.150  0.00  0.00    +0.007 C 
ENDBRANCH  39  41
ENDBRANCH  38  39
ENDBRANCH  34  38
ENDBRANCH  24  35
ENDBRANCH   1  24
TORSDOF 11
