REMARK  Name = ZINC42027108
REMARK  4 active torsions:
REMARK  status: ('A' for Active; 'I' for Inactive)
REMARK    1  A    between atoms: C_1  and  C_2
REMARK    2  A    between atoms: C_5  and  C_9
REMARK    3  A    between atoms: C_7  and  N_8
REMARK    4  A    between atoms: N_13  and  C_14
REMARK                            x       y       z     vdW  Elec       q    Type
REMARK                         _______ _______ _______ _____ _____    ______ ____
ROOT
ATOM      1  C   UNL     1       0.079  -4.257  -0.025  0.00  0.00    +0.187 A 
ATOM      2  N   UNL     1      -0.104  -5.053   1.008  0.00  0.00    -0.108 NA
ATOM      3  N   UNL     1      -0.053  -6.283   0.642  0.00  0.00    -0.022 NA
ATOM      4  N   UNL     1       0.163  -6.371  -0.625  0.00  0.00    -0.039 NA
ATOM      5  N   UNL     1       0.252  -5.057  -1.117  0.00  0.00    -0.193 N 
ENDROOT
BRANCH   1  10
ATOM      6  C   UNL     1       0.110   1.503   0.035  0.00  0.00    +0.045 C 
ATOM      7  C   UNL     1       0.104  -0.004   0.021  0.00  0.00    -0.030 A 
ATOM      8  C   UNL     1      -0.344  -0.680  -1.099  0.00  0.00    +0.006 A 
ATOM      9  C   UNL     1      -0.353  -2.060  -1.119  0.00  0.00    +0.012 A 
ATOM     10  C   UNL     1       0.090  -2.777  -0.006  0.00  0.00    +0.023 A 
ATOM     11  C   UNL     1       0.541  -2.096   1.123  0.00  0.00    +0.034 A 
ATOM     12  C   UNL     1       0.552  -0.709   1.131  0.00  0.00    +0.028 A 
BRANCH  12  13
ATOM     13  N   UNL     1       1.008  -0.021   2.258  0.00  0.00    -0.358 N 
ATOM     14  H   UNL     1       1.012   0.949   2.266  0.00  0.00    +0.142 HD
ATOM     15  H   UNL     1       1.321  -0.514   3.033  0.00  0.00    +0.142 HD
ENDBRANCH  12  13
ENDBRANCH   1  10
BRANCH   5  16
ATOM     16  C   UNL     1       0.475  -4.655  -2.441  0.00  0.00    +0.069 A 
ATOM     17  C   UNL     1       1.377  -3.637  -2.716  0.00  0.00    +0.029 A 
ATOM     18  C   UNL     1       1.595  -3.243  -4.022  0.00  0.00    +0.017 A 
ATOM     19  C   UNL     1       0.913  -3.862  -5.055  0.00  0.00    +0.018 A 
ATOM     20  C   UNL     1       0.014  -4.878  -4.783  0.00  0.00    +0.017 A 
ATOM     21  C   UNL     1      -0.203  -5.279  -3.480  0.00  0.00    +0.029 A 
ATOM     22 BR   UNL     1       1.213  -3.320  -6.842  0.00  0.00    -0.050 Br
ENDBRANCH   5  16
TORSDOF 3
