REMARK  Name = ZINC42558431
REMARK  8 active torsions:
REMARK  status: ('A' for Active; 'I' for Inactive)
REMARK    1  A    between atoms: C_1  and  C_2
REMARK    2  A    between atoms: C_2  and  C_3
REMARK    3  A    between atoms: C_3  and  C_5
REMARK    4  A    between atoms: C_3  and  C_6
REMARK    5  A    between atoms: C_6  and  C_8
REMARK    6  A    between atoms: C_6  and  N_9
REMARK    7  A    between atoms: N_9  and  S_10
REMARK    8  A    between atoms: S_10  and  C_13
REMARK                            x       y       z     vdW  Elec       q    Type
REMARK                         _______ _______ _______ _____ _____    ______ ____
ROOT
ATOM      1  S   UNL     1      -3.123  -3.863  -1.189  0.00  0.00    +0.062 S 
ATOM      2  O   UNL     1      -4.517  -4.112  -1.066  0.00  0.00    -0.153 OA
ATOM      3  O   UNL     1      -2.501  -3.617  -2.443  0.00  0.00    -0.153 OA
ENDROOT
BRANCH   1   4
ATOM      4  C   UNL     1      -2.299  -5.250  -0.482  0.00  0.00    +0.141 A 
ATOM      5  C   UNL     1      -1.002  -5.569  -0.851  0.00  0.00    +0.144 A 
ATOM      6  N   UNL     1      -0.414  -6.618  -0.299  0.00  0.00    -0.224 NA
ATOM      7  C   UNL     1      -1.048  -7.356   0.592  0.00  0.00    +0.223 A 
ATOM      8  N   UNL     1      -2.283  -7.083   0.967  0.00  0.00    -0.224 NA
ATOM      9  C   UNL     1      -2.931  -6.045   0.461  0.00  0.00    +0.144 A 
ATOM     10 CL   UNL     1      -0.236  -8.724   1.288  0.00  0.00    -0.041 Cl
ENDBRANCH   1   4
BRANCH   1  11
ATOM     11  N   UNL     1      -2.790  -2.554  -0.231  0.00  0.00    -0.187 NA
ATOM     12  H   UNL     1      -3.504  -2.116   0.258  0.00  0.00    +0.148 HD
BRANCH  11  13
ATOM     13  C   UNL     1      -1.416  -2.058  -0.121  0.00  0.00    +0.076 C 
ATOM     14  C   UNL     1      -0.749  -2.670   1.112  0.00  0.00    +0.026 C 
BRANCH  13  15
ATOM     15  C   UNL     1      -1.433  -0.534   0.013  0.00  0.00    +0.004 C 
ATOM     16  C   UNL     1      -2.110  -0.145   1.329  0.00  0.00    +0.009 C 
BRANCH  15  18
ATOM     17  C   UNL     1      -0.019   1.526   0.010  0.00  0.00    +0.004 C 
ATOM     18  C   UNL     1       0.002  -0.004   0.002  0.00  0.00    +0.001 C 
ENDBRANCH  15  18
ENDBRANCH  13  15
ENDBRANCH  11  13
ENDBRANCH   1  11
TORSDOF 5
