REMARK  Name = ZINC36039440
REMARK  8 active torsions:
REMARK  status: ('A' for Active; 'I' for Inactive)
REMARK    1  A    between atoms: C_1  and  C_2
REMARK    2  A    between atoms: C_5  and  N_8
REMARK    3  A    between atoms: C_10  and  C_21
REMARK    4  A    between atoms: N_13  and  C_14
REMARK    5  A    between atoms: C_14  and  C_16
REMARK    6  A    between atoms: C_16  and  N_17
REMARK    7  A    between atoms: N_17  and  C_18
REMARK    8  A    between atoms: C_18  and  C_19
REMARK                            x       y       z     vdW  Elec       q    Type
REMARK                         _______ _______ _______ _____ _____    ______ ____
ROOT
ATOM      1  N   UNL     1       0.058  -4.171  -0.021  0.00  0.00    -0.287 N 
ATOM      2  C   UNL     1       0.069  -4.974  -1.143  0.00  0.00    +0.120 A 
ATOM      3  C   UNL     1       0.086  -6.256  -0.738  0.00  0.00    +0.066 A 
ATOM      4  N   UNL     1       0.086  -6.265   0.652  0.00  0.00    -0.326 N 
ATOM      5  C   UNL     1       0.074  -4.975   1.076  0.00  0.00    +0.205 A 
ATOM      6  N   UNL     1       0.075  -4.568   2.345  0.00  0.00    -0.148 NA
ATOM      7  H   UNL     1       0.095  -7.052   1.218  0.00  0.00    +0.169 HD
ENDROOT
BRANCH   1  12
ATOM      8  C   UNL     1      -0.018   1.503   0.010  0.00  0.00    +0.044 C 
ATOM      9  C   UNL     1       0.002  -0.004   0.002  0.00  0.00    -0.050 A 
ATOM     10  C   UNL     1       0.006  -0.687  -1.200  0.00  0.00    +0.005 A 
ATOM     11  C   UNL     1       0.024  -2.068  -1.211  0.00  0.00    +0.026 A 
ATOM     12  C   UNL     1       0.040  -2.771  -0.013  0.00  0.00    +0.049 A 
ATOM     13  C   UNL     1       0.036  -2.081   1.192  0.00  0.00    +0.026 A 
ATOM     14  C   UNL     1       0.023  -0.700   1.197  0.00  0.00    +0.005 A 
ENDBRANCH   1  12
BRANCH   3  15
ATOM     15  C   UNL     1       0.101  -7.447  -1.616  0.00  0.00    -0.000 A 
ATOM     16  C   UNL     1       0.105  -7.295  -3.003  0.00  0.00    +0.010 A 
ATOM     17  C   UNL     1       0.119  -8.409  -3.816  0.00  0.00    +0.001 A 
ATOM     18  C   UNL     1       0.130  -9.675  -3.259  0.00  0.00    +0.000 A 
ATOM     19  C   UNL     1       0.126  -9.833  -1.885  0.00  0.00    +0.001 A 
ATOM     20  C   UNL     1       0.118  -8.727  -1.061  0.00  0.00    +0.010 A 
ENDBRANCH   3  15
BRANCH   6  21
ATOM     21  C   UNL     1       0.092  -5.460   3.329  0.00  0.00    +0.222 C 
ATOM     22  O   UNL     1       0.106  -6.649   3.071  0.00  0.00    -0.276 OA
BRANCH  21  23
ATOM     23  C   UNL     1       0.093  -5.000   4.764  0.00  0.00    +0.017 C 
BRANCH  23  24
ATOM     24  N   UNL     1       0.113  -6.169   5.653  0.00  0.00    +0.387 N 
ATOM     25  H   UNL     1      -0.705  -6.736   5.482  0.00  0.00    -0.085 HD
ATOM     26  H   UNL     1       0.943  -6.714   5.474  0.00  0.00    -0.085 HD
BRANCH  24  27
ATOM     27  C   UNL     1       0.113  -5.721   7.052  0.00  0.00    -0.055 C 
BRANCH  27  28
ATOM     28  C   UNL     1       0.134  -6.920   7.964  0.00  0.00    -0.054 C 
ATOM     29  C   UNL     1       1.069  -7.035   8.874  0.00  0.00    +0.002 C 
ENDBRANCH  27  28
ENDBRANCH  24  27
ENDBRANCH  23  24
ENDBRANCH  21  23
ENDBRANCH   6  21
TORSDOF 7
