REMARK  Name = ZINC39289915
REMARK  4 active torsions:
REMARK  status: ('A' for Active; 'I' for Inactive)
REMARK    1  A    between atoms: C_6  and  N_7
REMARK    2  A    between atoms: C_11  and  C_12
REMARK    3  A    between atoms: C_15  and  S_17
REMARK    4  A    between atoms: S_17  and  C_18
REMARK                            x       y       z     vdW  Elec       q    Type
REMARK                         _______ _______ _______ _____ _____    ______ ____
ROOT
ATOM      1  N   UNL     1      -0.892  -1.266  -1.654  0.00  0.00    -0.216 N 
ATOM      2  C   UNL     1      -1.054  -2.313  -0.817  0.00  0.00    +0.262 C 
ATOM      3  O   UNL     1      -0.242  -2.545   0.061  0.00  0.00    -0.269 OA
ATOM      4  C   UNL     1      -2.238  -3.164  -0.997  0.00  0.00    +0.105 C 
ATOM      5  C   UNL     1      -2.473  -4.268  -0.167  0.00  0.00    +0.064 C 
ATOM      6  C   UNL     1      -3.136  -2.825  -2.044  0.00  0.00    +0.274 C 
ATOM      7  O   UNL     1      -4.244  -3.567  -2.262  0.00  0.00    -0.268 OA
ATOM      8  N   UNL     1      -2.874  -1.774  -2.803  0.00  0.00    -0.153 NA
ATOM      9  C   UNL     1      -1.798  -1.017  -2.615  0.00  0.00    +0.171 C 
ATOM     10  S   UNL     1      -1.550   0.327  -3.646  0.00  0.00    -0.016 S 
ENDROOT
BRANCH   1  16
ATOM     11  C   UNL     1       0.105   0.785  -0.855  0.00  0.00    +0.025 A 
ATOM     12  C   UNL     1       1.206   1.607  -0.720  0.00  0.00    +0.022 A 
ATOM     13  C   UNL     1       2.428   1.221  -1.244  0.00  0.00    +0.041 A 
ATOM     14  C   UNL     1       2.549   0.011  -1.904  0.00  0.00    +0.022 A 
ATOM     15  C   UNL     1       1.450  -0.815  -2.042  0.00  0.00    +0.025 A 
ATOM     16  C   UNL     1       0.224  -0.430  -1.516  0.00  0.00    +0.043 A 
ATOM     17 CL   UNL     1       3.810   2.257  -1.073  0.00  0.00    -0.084 Cl
ENDBRANCH   1  16
BRANCH   5  18
ATOM     18  C   UNL     1      -3.682  -4.954  -0.247  0.00  0.00    +0.130 A 
ATOM     19  C   UNL     1      -3.839  -6.340  -0.245  0.00  0.00    +0.050 A 
ATOM     20  C   UNL     1      -5.200  -6.589  -0.340  0.00  0.00    +0.057 A 
ATOM     21  C   UNL     1      -5.837  -5.362  -0.397  0.00  0.00    +0.165 A 
ATOM     22  O   UNL     1      -4.910  -4.393  -0.334  0.00  0.00    -0.449 OA
BRANCH  21  23
ATOM     23  S   UNL     1      -7.577  -5.112  -0.523  0.00  0.00    -0.046 S 
BRANCH  23  24
ATOM     24  C   UNL     1      -8.248  -6.787  -0.708  0.00  0.00    +0.240 C 
ATOM     25  N   UNL     1      -7.581  -7.487  -1.840  0.00  0.00    -0.275 NA
ATOM     26  C   UNL     1      -7.596  -8.878  -1.366  0.00  0.00    +0.128 C 
ATOM     27  C   UNL     1      -6.523  -9.691  -2.038  0.00  0.00    -0.002 C 
ATOM     28  C   UNL     1      -5.867 -10.576  -1.273  0.00  0.00    -0.002 C 
ATOM     29  C   UNL     1      -6.178 -10.738   0.143  0.00  0.00    +0.002 C 
ATOM     30  C   UNL     1      -6.960  -9.878   0.830  0.00  0.00    +0.025 C 
ATOM     31  C   UNL     1      -7.545  -8.768   0.148  0.00  0.00    +0.060 C 
ATOM     32  N   UNL     1      -7.949  -7.589   0.489  0.00  0.00    -0.256 NA
ATOM     33  H   UNL     1      -8.114  -7.388  -2.691  0.00  0.00    +0.126 HD
ENDBRANCH  23  24
ENDBRANCH  21  23
ENDBRANCH   5  18
TORSDOF 4
