REMARK  Name = ZINC50563706
REMARK  5 active torsions:
REMARK  status: ('A' for Active; 'I' for Inactive)
REMARK    1  A    between atoms: C_1  and  C_2
REMARK    2  A    between atoms: N_7  and  S_11
REMARK    3  A    between atoms: C_8  and  C_10
REMARK    4  A    between atoms: S_11  and  C_14
REMARK    5  A    between atoms: C_17  and  N_21
REMARK                            x       y       z     vdW  Elec       q    Type
REMARK                         _______ _______ _______ _____ _____    ______ ____
ROOT
ATOM      1  S   UNL     1       1.999  -2.914   1.419  0.00  0.00    +0.062 S 
ATOM      2  O   UNL     1       3.106  -2.213   1.969  0.00  0.00    -0.153 OA
ATOM      3  O   UNL     1       1.446  -4.068   2.036  0.00  0.00    -0.153 OA
ENDROOT
BRANCH   1   9
ATOM      4  C   UNL     1       0.439   1.554  -0.416  0.00  0.00    +0.009 C 
ATOM      5  C   UNL     1       0.259   0.049  -0.212  0.00  0.00    +0.005 C 
ATOM      6  C   UNL     1      -1.224  -0.265   0.001  0.00  0.00    +0.006 C 
ATOM      7  C   UNL     1      -1.408  -1.774   0.172  0.00  0.00    +0.017 C 
ATOM      8  C   UNL     1      -0.634  -2.242   1.408  0.00  0.00    +0.110 C 
ATOM      9  N   UNL     1       0.766  -1.817   1.278  0.00  0.00    -0.174 NA
ATOM     10  C   UNL     1       1.053  -0.399   1.020  0.00  0.00    +0.080 C 
ATOM     11  C   UNL     1       0.636   0.437   2.231  0.00  0.00    +0.026 C 
ENDBRANCH   1   9
BRANCH   1  12
ATOM     12  C   UNL     1       2.463  -3.389  -0.213  0.00  0.00    +0.124 A 
ATOM     13  C   UNL     1       3.704  -3.031  -0.709  0.00  0.00    +0.032 A 
ATOM     14  C   UNL     1       4.071  -3.401  -1.987  0.00  0.00    +0.025 A 
ATOM     15  C   UNL     1       3.194  -4.135  -2.776  0.00  0.00    +0.026 A 
ATOM     16  C   UNL     1       1.949  -4.494  -2.276  0.00  0.00    +0.044 A 
ATOM     17  C   UNL     1       1.589  -4.124  -0.993  0.00  0.00    +0.069 A 
ATOM     18 CL   UNL     1       0.036  -4.577  -0.364  0.00  0.00    -0.081 Cl
BRANCH  15  19
ATOM     19  N   UNL     1       3.563  -4.511  -4.070  0.00  0.00    -0.358 N 
ATOM     20  H   UNL     1       4.432  -4.259  -4.418  0.00  0.00    +0.142 HD
ATOM     21  H   UNL     1       2.949  -5.023  -4.619  0.00  0.00    +0.142 HD
ENDBRANCH  15  19
ENDBRANCH   1  12
TORSDOF 3
