REMARK  Name = ZINC38657528
REMARK  6 active torsions:
REMARK  status: ('A' for Active; 'I' for Inactive)
REMARK    1  A    between atoms: C_5  and  C_7
REMARK    2  A    between atoms: C_7  and  O_9
REMARK    3  A    between atoms: O_9  and  C_10
REMARK    4  A    between atoms: C_17  and  N_28
REMARK    5  A    between atoms: C_18  and  C_26
REMARK    6  A    between atoms: C_19  and  C_21
REMARK                            x       y       z     vdW  Elec       q    Type
REMARK                         _______ _______ _______ _____ _____    ______ ____
ROOT
ATOM      1  C   UNL     1       0.070  -4.213  -0.056  0.00  0.00    +0.135 A 
ATOM      2  C   UNL     1       1.257  -4.932  -0.029  0.00  0.00    +0.047 A 
ATOM      3  C   UNL     1       1.228  -6.312  -0.071  0.00  0.00    +0.012 A 
ATOM      4  C   UNL     1       0.020  -6.982  -0.140  0.00  0.00    +0.011 A 
ATOM      5  C   UNL     1      -1.168  -6.269  -0.167  0.00  0.00    +0.138 A 
ATOM      6  C   UNL     1      -1.141  -4.881  -0.120  0.00  0.00    +0.093 A 
ATOM      7  O   UNL     1      -2.362  -6.908  -0.235  0.00  0.00    -0.441 OA
ATOM      8  C   UNL     1      -2.448  -8.205   0.106  0.00  0.00    +0.199 C 
ATOM      9  C   UNL     1      -1.359  -9.008   0.150  0.00  0.00    +0.101 C 
ATOM     10  C   UNL     1       0.010  -8.488  -0.185  0.00  0.00    +0.134 C 
ENDROOT
BRANCH  10  11
ATOM     11  C   UNL     1       0.396  -8.948  -1.567  0.00  0.00    +0.117 A 
ATOM     12  C   UNL     1       1.450  -9.726  -1.871  0.00  0.00    +0.045 A 
ATOM     13  C   UNL     1       1.433  -9.908  -3.273  0.00  0.00    +0.041 A 
ATOM     14  C   UNL     1       0.370  -9.231  -3.742  0.00  0.00    +0.195 A 
ATOM     15  O   UNL     1      -0.258  -8.656  -2.703  0.00  0.00    -0.467 OA
ENDBRANCH  10  11
BRANCH   8  16
ATOM     16  N   UNL     1      -3.677  -8.731   0.420  0.00  0.00    -0.328 N 
ATOM     17  H   UNL     1      -4.466  -8.168   0.394  0.00  0.00    +0.145 HD
ATOM     18  H   UNL     1      -3.755  -9.665   0.668  0.00  0.00    +0.145 HD
ENDBRANCH   8  16
BRANCH   9  19
ATOM     19  C   UNL     1      -1.515 -10.382   0.523  0.00  0.00    +0.101 C 
ATOM     20  N   UNL     1      -1.639 -11.472   0.818  0.00  0.00    -0.191 NA
ENDBRANCH   9  19
BRANCH   1  21
ATOM     21  O   UNL     1       0.097  -2.854  -0.015  0.00  0.00    -0.422 OA
BRANCH  21  22
ATOM     22  C   UNL     1       0.420  -2.193  -1.143  0.00  0.00    +0.347 C 
ATOM     23  O   UNL     1       0.764  -2.811  -2.132  0.00  0.00    -0.244 OA
BRANCH  22  28
ATOM     24  C   UNL     1      -0.096   1.371  -0.086  0.00  0.00    +0.001 A 
ATOM     25  C   UNL     1       0.237   2.049  -1.246  0.00  0.00    +0.003 A 
ATOM     26  C   UNL     1       0.629   1.352  -2.374  0.00  0.00    +0.039 A 
ATOM     27  C   UNL     1       0.692  -0.030  -2.349  0.00  0.00    +0.137 A 
ATOM     28  C   UNL     1       0.357  -0.720  -1.179  0.00  0.00    +0.094 A 
ATOM     29  C   UNL     1      -0.038  -0.006  -0.045  0.00  0.00    +0.018 A 
ATOM     30  F   UNL     1       1.075  -0.711  -3.451  0.00  0.00    -0.205 F 
ENDBRANCH  22  28
ENDBRANCH  21  22
ENDBRANCH   1  21
TORSDOF 6
