REMARK  Name = ZINC59152736
REMARK  14 active torsions:
REMARK  status: ('A' for Active; 'I' for Inactive)
REMARK    1  A    between atoms: C_1  and  C_2
REMARK    2  A    between atoms: C_4  and  O_23
REMARK    3  A    between atoms: C_5  and  C_20
REMARK    4  A    between atoms: C_7  and  C_8
REMARK    5  A    between atoms: N_9  and  N_10
REMARK    6  A    between atoms: C_11  and  C_13
REMARK    7  A    between atoms: C_13  and  C_15
REMARK    8  A    between atoms: C_13  and  N_19
REMARK    9  A    between atoms: C_15  and  C_16
REMARK   10  A    between atoms: C_16  and  C_17
REMARK   11  A    between atoms: C_16  and  C_18
REMARK   12  A    between atoms: C_20  and  C_21
REMARK   13  A    between atoms: C_20  and  C_22
REMARK   14  A    between atoms: O_23  and  C_24
REMARK                            x       y       z     vdW  Elec       q    Type
REMARK                         _______ _______ _______ _____ _____    ______ ____
ROOT
ATOM      1  C   UNL     1       0.242   0.020   2.479  0.00  0.00    +0.138 C 
ATOM      2  N   UNL     1       0.133   1.313   2.500  0.00  0.00    -0.188 NA
ENDROOT
BRANCH   1   9
ATOM      3  C   UNL     1      -0.477   1.459   0.076  0.00  0.00    +0.044 C 
ATOM      4  C   UNL     1      -0.218  -0.025   0.034  0.00  0.00    -0.038 A 
ATOM      5  C   UNL     1      -0.318  -0.709  -1.159  0.00  0.00    +0.050 A 
ATOM      6  C   UNL     1      -0.080  -2.077  -1.199  0.00  0.00    +0.124 A 
ATOM      7  C   UNL     1       0.260  -2.762  -0.039  0.00  0.00    -0.003 A 
ATOM      8  C   UNL     1       0.361  -2.086   1.158  0.00  0.00    +0.017 A 
ATOM      9  C   UNL     1       0.129  -0.709   1.202  0.00  0.00    -0.002 A 
BRANCH   7  10
ATOM     10  C   UNL     1       0.516  -4.246  -0.089  0.00  0.00    +0.016 C 
ATOM     11  C   UNL     1       1.945  -4.532   0.377  0.00  0.00    +0.012 C 
ATOM     12  C   UNL     1      -0.473  -4.966   0.829  0.00  0.00    +0.012 C 
ENDBRANCH   7  10
BRANCH   6  13
ATOM     13  O   UNL     1      -0.180  -2.747  -2.376  0.00  0.00    -0.495 OA
ATOM     14  C   UNL     1      -0.534  -1.982  -3.530  0.00  0.00    +0.277 C 
ENDBRANCH   6  13
ENDBRANCH   1   9
BRANCH   2  15
ATOM     15  N   UNL     1       0.241   2.005   3.713  0.00  0.00    -0.208 N 
ATOM     16  C   UNL     1       0.129   3.348   3.735  0.00  0.00    +0.218 C 
ATOM     17  O   UNL     1      -0.067   3.957   2.705  0.00  0.00    -0.276 OA
ATOM     18  H   UNL     1       0.398   1.518   4.537  0.00  0.00    +0.177 HD
BRANCH  16  19
ATOM     19  C   UNL     1       0.245   4.092   5.040  0.00  0.00    +0.015 C 
BRANCH  19  20
ATOM     20  N   UNL     1      -0.369   5.420   4.903  0.00  0.00    +0.386 N 
ATOM     21  H   UNL     1      -1.343   5.317   4.660  0.00  0.00    -0.089 HD
ATOM     22  H   UNL     1      -0.291   5.918   5.777  0.00  0.00    -0.089 HD
ATOM     23  H   UNL     1       0.106   5.936   4.178  0.00  0.00    -0.089 HD
ENDBRANCH  19  20
BRANCH  19  24
ATOM     24  C   UNL     1       1.722   4.249   5.409  0.00  0.00    -0.004 C 
BRANCH  24  25
ATOM     25  C   UNL     1       1.837   4.893   6.792  0.00  0.00    -0.018 C 
ATOM     26  C   UNL     1       1.255   3.948   7.845  0.00  0.00    +0.007 C 
ATOM     27  C   UNL     1       3.309   5.163   7.107  0.00  0.00    +0.007 C 
ENDBRANCH  24  25
ENDBRANCH  19  24
ENDBRANCH  16  19
ENDBRANCH   2  15
TORSDOF 8
