REMARK  Name = ZINC08299069
REMARK  10 active torsions:
REMARK  status: ('A' for Active; 'I' for Inactive)
REMARK    1  A    between atoms: C_1  and  C_2
REMARK    2  A    between atoms: N_4  and  C_5
REMARK    3  A    between atoms: C_5  and  C_6
REMARK    4  A    between atoms: C_6  and  N_7
REMARK    5  A    between atoms: C_8  and  C_10
REMARK    6  A    between atoms: C_18  and  C_20
REMARK    7  A    between atoms: C_20  and  N_21
REMARK    8  A    between atoms: C_23  and  C_26
REMARK    9  A    between atoms: C_26  and  O_27
REMARK   10  A    between atoms: O_27  and  C_28
REMARK                            x       y       z     vdW  Elec       q    Type
REMARK                         _______ _______ _______ _____ _____    ______ ____
ROOT
ATOM      1  C   UNL     1      -1.331   2.079   0.020  0.00  0.00    +0.061 C 
ATOM      2  C   UNL     1      -2.123   1.698   1.274  0.00  0.00    -0.065 C 
ATOM      3  C   UNL     1      -1.110   3.514   2.525  0.00  0.00    -0.078 C 
ATOM      4  C   UNL     1      -0.291   3.943   1.304  0.00  0.00    -0.015 C 
ATOM      5  C   UNL     1      -1.074   3.591   0.033  0.00  0.00    -0.004 C 
ATOM      6  C   UNL     1      -2.425   4.317   0.075  0.00  0.00    -0.010 C 
ATOM      7  C   UNL     1      -3.185   3.877   1.329  0.00  0.00    -0.046 C 
ATOM      8  N   UNL     1      -2.387   2.900   2.100  0.00  0.00    +0.383 N 
ATOM      9  H   UNL     1      -2.916   2.621   2.934  0.00  0.00    -0.081 HD
ENDROOT
BRANCH   1  11
ATOM     10  N   UNL     1       0.002  -0.004   0.002  0.00  0.00    -0.314 N 
ATOM     11  C   UNL     1      -0.016   1.344   0.009  0.00  0.00    +0.215 C 
ATOM     12  O   UNL     1       1.026   1.964   0.003  0.00  0.00    -0.276 OA
ATOM     13  H   UNL     1      -0.831  -0.500   0.007  0.00  0.00    +0.149 HD
BRANCH  10  14
ATOM     14  C   UNL     1       1.281  -0.719  -0.014  0.00  0.00    +0.123 C 
BRANCH  14  15
ATOM     15  C   UNL     1       1.021  -2.227  -0.020  0.00  0.00    +0.123 C 
BRANCH  15  19
ATOM     16  C   UNL     1       3.633  -5.026  -0.060  0.00  0.00    +0.109 C 
ATOM     17  C   UNL     1       2.318  -4.290  -0.043  0.00  0.00    +0.210 C 
ATOM     18  O   UNL     1       1.276  -4.910  -0.036  0.00  0.00    -0.276 OA
ATOM     19  N   UNL     1       2.300  -2.942  -0.036  0.00  0.00    -0.314 N 
ATOM     20  H   UNL     1       3.133  -2.446  -0.041  0.00  0.00    +0.149 HD
ENDBRANCH  15  19
ENDBRANCH  14  15
ENDBRANCH  10  14
ENDBRANCH   1  11
BRANCH   7  21
ATOM     21  C   UNL     1      -3.463   5.096   2.211  0.00  0.00    +0.130 C 
BRANCH  21  22
ATOM     22  N   UNL     1      -4.292   4.695   3.351  0.00  0.00    -0.253 N 
ATOM     23  C   UNL     1      -3.993   4.890   4.656  0.00  0.00    +0.137 A 
ATOM     24  C   UNL     1      -5.025   4.372   5.361  0.00  0.00    +0.120 A 
ATOM     25  N   UNL     1      -5.891   3.885   4.465  0.00  0.00    -0.131 NA
ATOM     26  N   UNL     1      -5.427   4.092   3.283  0.00  0.00    -0.065 NA
BRANCH  24  27
ATOM     27  C   UNL     1      -5.169   4.344   6.861  0.00  0.00    +0.287 C 
BRANCH  27  28
ATOM     28  O   UNL     1      -4.031   4.967   7.460  0.00  0.00    -0.486 OA
BRANCH  28  29
ATOM     29  C   UNL     1      -4.004   5.026   8.818  0.00  0.00    +0.121 A 
ATOM     30  C   UNL     1      -5.053   4.500   9.557  0.00  0.00    +0.045 A 
ATOM     31  C   UNL     1      -5.020   4.556  10.938  0.00  0.00    +0.004 A 
ATOM     32  C   UNL     1      -3.947   5.145  11.581  0.00  0.00    +0.000 A 
ATOM     33  C   UNL     1      -2.903   5.675  10.846  0.00  0.00    +0.004 A 
ATOM     34  C   UNL     1      -2.929   5.616   9.466  0.00  0.00    +0.045 A 
ENDBRANCH  28  29
ENDBRANCH  27  28
ENDBRANCH  24  27
ENDBRANCH  21  22
ENDBRANCH   7  21
TORSDOF 9
