REMARK  Name = ZINC42609786
REMARK  5 active torsions:
REMARK  status: ('A' for Active; 'I' for Inactive)
REMARK    1  A    between atoms: C_1  and  C_2
REMARK    2  A    between atoms: C_8  and  N_10
REMARK    3  A    between atoms: N_10  and  C_11
REMARK    4  A    between atoms: C_15  and  C_18
REMARK    5  A    between atoms: C_18  and  O_19
REMARK                            x       y       z     vdW  Elec       q    Type
REMARK                         _______ _______ _______ _____ _____    ______ ____
ROOT
ATOM      1  N   UNL     1       0.056  -0.038   2.447  0.00  0.00    -0.314 N 
ATOM      2  C   UNL     1      -1.247  -0.665   2.683  0.00  0.00    +0.131 C 
ATOM      3  C   UNL     1       0.632   0.759   3.429  0.00  0.00    +0.140 A 
ATOM      4  C   UNL     1       1.374   0.170   4.450  0.00  0.00    +0.081 A 
ATOM      5  C   UNL     1       1.942   0.976   5.421  0.00  0.00    +0.030 A 
ATOM      6  C   UNL     1       1.748   2.349   5.338  0.00  0.00    -0.003 A 
ATOM      7  C   UNL     1       1.001   2.865   4.299  0.00  0.00    +0.118 A 
ATOM      8  N   UNL     1       0.475   2.073   3.384  0.00  0.00    -0.238 NA
ATOM      9 CL   UNL     1       1.583  -1.552   4.504  0.00  0.00    -0.080 Cl
ENDROOT
BRANCH   1  16
ATOM     10  C   UNL     1      -0.385   1.753   0.214  0.00  0.00    +0.009 C 
ATOM     11  C   UNL     1      -0.117   0.259   0.025  0.00  0.00    +0.006 C 
ATOM     12  C   UNL     1       0.611   0.035  -1.302  0.00  0.00    +0.005 C 
ATOM     13  C   UNL     1       0.879  -1.460  -1.491  0.00  0.00    +0.000 C 
ATOM     14  C   UNL     1       1.748  -1.971  -0.340  0.00  0.00    +0.002 C 
ATOM     15  C   UNL     1       1.021  -1.747   0.987  0.00  0.00    +0.023 C 
ATOM     16  C   UNL     1       0.753  -0.253   1.176  0.00  0.00    +0.077 C 
ENDBRANCH   1  16
BRANCH   6  17
ATOM     17  C   UNL     1       2.347   3.266   6.373  0.00  0.00    +0.192 C 
BRANCH  17  18
ATOM     18  O   UNL     1       3.653   3.668   5.955  0.00  0.00    -0.390 OA
ATOM     19  H   UNL     1       4.100   4.261   6.574  0.00  0.00    +0.210 HD
ENDBRANCH  17  18
ENDBRANCH   6  17
TORSDOF 3
