REMARK  Name = ZINC06849455
REMARK  4 active torsions:
REMARK  status: ('A' for Active; 'I' for Inactive)
REMARK    1  A    between atoms: C_1  and  C_2
REMARK    2  A    between atoms: N_4  and  C_20
REMARK    3  A    between atoms: N_11  and  C_14
REMARK    4  A    between atoms: C_23  and  N_26
REMARK                            x       y       z     vdW  Elec       q    Type
REMARK                         _______ _______ _______ _____ _____    ______ ____
ROOT
ATOM      1  C   UNL     1       0.285   0.811  -0.278  0.00  0.00    +0.062 C 
ATOM      2  C   UNL     1      -0.574   1.457  -1.334  0.00  0.00    +0.029 C 
ATOM      3  N   UNL     1      -0.168   1.730  -2.621  0.00  0.00    -0.267 N 
ATOM      4  N   UNL     1      -1.009   2.783  -3.095  0.00  0.00    -0.237 N 
ATOM      5  C   UNL     1      -2.299   2.331  -2.544  0.00  0.00    +0.217 C 
ATOM      6  C   UNL     1      -1.846   1.845  -1.157  0.00  0.00    +0.064 C 
ATOM      7  H   UNL     1       0.547   1.294  -3.109  0.00  0.00    +0.170 HD
ATOM      8  C   UNL     1      -2.963   2.145  -0.359  0.00  0.00    +0.257 C 
ATOM      9  O   UNL     1      -3.284   1.556   0.657  0.00  0.00    -0.269 OA
ATOM     10  N   UNL     1      -3.623   3.190  -0.899  0.00  0.00    -0.205 N 
ATOM     11  C   UNL     1      -3.255   3.438  -2.194  0.00  0.00    +0.253 C 
ATOM     12  O   UNL     1      -3.618   4.344  -2.913  0.00  0.00    -0.272 OA
ENDROOT
BRANCH  10  13
ATOM     13  C   UNL     1      -4.584   3.943  -0.211  0.00  0.00    +0.044 A 
ATOM     14  C   UNL     1      -5.222   5.001  -0.844  0.00  0.00    +0.024 A 
ATOM     15  C   UNL     1      -6.169   5.741  -0.164  0.00  0.00    +0.002 A 
ATOM     16  C   UNL     1      -6.482   5.429   1.146  0.00  0.00    +0.000 A 
ATOM     17  C   UNL     1      -5.849   4.375   1.779  0.00  0.00    +0.002 A 
ATOM     18  C   UNL     1      -4.905   3.628   1.102  0.00  0.00    +0.024 A 
ENDBRANCH  10  13
BRANCH   4  19
ATOM     19  C   UNL     1      -0.699   3.911  -3.857  0.00  0.00    +0.049 A 
ATOM     20  C   UNL     1       0.397   4.696  -3.525  0.00  0.00    +0.027 A 
ATOM     21  C   UNL     1       0.701   5.811  -4.281  0.00  0.00    +0.034 A 
ATOM     22  C   UNL     1      -0.085   6.145  -5.369  0.00  0.00    +0.126 A 
ATOM     23  C   UNL     1      -1.176   5.365  -5.703  0.00  0.00    +0.034 A 
ATOM     24  C   UNL     1      -1.483   4.246  -4.954  0.00  0.00    +0.027 A 
BRANCH  22  25
ATOM     25  N   UNL     1       0.244   7.341  -6.178  0.00  0.00    +0.056 N 
ATOM     26  O   UNL     1       1.198   8.024  -5.886  0.00  0.00    -0.126 OA
ATOM     27  O   UNL     1      -0.442   7.635  -7.129  0.00  0.00    -0.126 OA
ENDBRANCH  22  25
ENDBRANCH   4  19
TORSDOF 3
