REMARK  Name = ZINC05045398
REMARK  10 active torsions:
REMARK  status: ('A' for Active; 'I' for Inactive)
REMARK    1  A    between atoms: C_1  and  C_2
REMARK    2  A    between atoms: C_5  and  C_31
REMARK    3  A    between atoms: C_6  and  C_8
REMARK    4  A    between atoms: C_8  and  C_10
REMARK    5  A    between atoms: C_11  and  O_30
REMARK    6  A    between atoms: N_14  and  C_23
REMARK    7  A    between atoms: C_15  and  C_17
REMARK    8  A    between atoms: C_20  and  C_22
REMARK    9  A    between atoms: C_23  and  C_24
REMARK   10  A    between atoms: C_24  and  N_59
REMARK                            x       y       z     vdW  Elec       q    Type
REMARK                         _______ _______ _______ _____ _____    ______ ____
ROOT
ATOM      1  C   UNL     1       1.082   2.584   0.033  0.00  0.00    +0.074 C 
ATOM      2  C   UNL     1       0.929   1.267  -0.240  0.00  0.00    +0.188 C 
ATOM      3  C   UNL     1       2.261   0.638  -0.358  0.00  0.00    +0.282 C 
ATOM      4  O   UNL     1       2.459  -0.537  -0.594  0.00  0.00    -0.267 OA
ATOM      5  N   UNL     1       3.223   1.560  -0.169  0.00  0.00    -0.282 N 
ATOM      6  C   UNL     1       2.568   2.847   0.094  0.00  0.00    +0.180 C 
ENDROOT
BRANCH   6   7
ATOM      7  C   UNL     1       2.950   3.352   1.462  0.00  0.00    +0.130 A 
ATOM      8  C   UNL     1       3.306   4.613   1.764  0.00  0.00    +0.047 A 
ATOM      9  C   UNL     1       3.578   4.641   3.151  0.00  0.00    +0.045 A 
ATOM     10  C   UNL     1       3.372   3.395   3.614  0.00  0.00    +0.102 A 
ATOM     11  O   UNL     1       2.986   2.619   2.588  0.00  0.00    -0.463 OA
ATOM     12  C   UNL     1       3.540   2.946   5.043  0.00  0.00    +0.086 C 
ENDBRANCH   6   7
BRANCH   1  13
ATOM     13  C   UNL     1       0.011   3.566   0.232  0.00  0.00    +0.195 C 
ATOM     14  O   UNL     1      -1.149   3.202   0.264  0.00  0.00    -0.287 OA
BRANCH  13  20
ATOM     15  C   UNL     1       0.503   7.584   3.151  0.00  0.00    +0.044 C 
ATOM     16  C   UNL     1       0.580   6.935   1.793  0.00  0.00    -0.050 A 
ATOM     17  C   UNL     1       0.962   7.681   0.691  0.00  0.00    +0.003 A 
ATOM     18  C   UNL     1       1.036   7.092  -0.559  0.00  0.00    +0.004 A 
ATOM     19  C   UNL     1       0.734   5.755  -0.714  0.00  0.00    -0.040 A 
ATOM     20  C   UNL     1       0.342   4.998   0.392  0.00  0.00    +0.025 A 
ATOM     21  C   UNL     1       0.270   5.598   1.651  0.00  0.00    +0.015 A 
ATOM     22  C   UNL     1       0.821   5.115  -2.076  0.00  0.00    +0.044 C 
ENDBRANCH  13  20
ENDBRANCH   1  13
BRANCH   2  23
ATOM     23  O   UNL     1      -0.255   0.628  -0.378  0.00  0.00    -0.502 OA
ATOM     24  H   UNL     1      -0.091  -0.339  -0.577  0.00  0.00    +0.292 HD
ENDBRANCH   2  23
BRANCH   5  25
ATOM     25  C   UNL     1       4.668   1.321  -0.213  0.00  0.00    +0.091 C 
BRANCH  25  26
ATOM     26  C   UNL     1       5.164   0.945   1.185  0.00  0.00    -0.059 C 
BRANCH  26  32
ATOM     27  C   UNL     1       6.926  -0.484   0.335  0.00  0.00    -0.050 C 
ATOM     28  C   UNL     1       8.445  -0.662   0.267  0.00  0.00    +0.141 C 
ATOM     29  O   UNL     1       8.969  -0.756   1.594  0.00  0.00    -0.383 OA
ATOM     30  C   UNL     1       8.683   0.386   2.408  0.00  0.00    +0.141 C 
ATOM     31  C   UNL     1       7.166   0.575   2.497  0.00  0.00    -0.050 C 
ATOM     32  N   UNL     1       6.626   0.726   1.130  0.00  0.00    +0.384 N 
ATOM     33  H   UNL     1       7.069   1.537   0.684  0.00  0.00    -0.082 HD
ENDBRANCH  26  32
ENDBRANCH  25  26
ENDBRANCH   5  25
TORSDOF 7
