REMARK  Name = ZINC08636345
REMARK  9 active torsions:
REMARK  status: ('A' for Active; 'I' for Inactive)
REMARK    1  A    between atoms: C_1  and  C_2
REMARK    2  A    between atoms: C_4  and  C_35
REMARK    3  A    between atoms: C_6  and  N_8
REMARK    4  A    between atoms: C_11  and  C_25
REMARK    5  A    between atoms: C_14  and  O_24
REMARK    6  A    between atoms: C_16  and  O_23
REMARK    7  A    between atoms: N_27  and  C_28
REMARK    8  A    between atoms: C_28  and  C_29
REMARK    9  A    between atoms: C_29  and  N_63
REMARK                            x       y       z     vdW  Elec       q    Type
REMARK                         _______ _______ _______ _____ _____    ______ ____
ROOT
ATOM      1  N   UNL     1      -3.518  -0.925   1.556  0.00  0.00    -0.277 N 
ATOM      2  C   UNL     1      -2.143  -1.439   1.509  0.00  0.00    +0.115 C 
ATOM      3  C   UNL     1      -1.219  -0.861   2.521  0.00  0.00    +0.100 C 
ATOM      4  C   UNL     1      -0.358   0.284   2.043  0.00  0.00    +0.048 C 
ATOM      5  C   UNL     1       0.255   0.004   0.697  0.00  0.00    +0.146 C 
ATOM      6  C   UNL     1      -0.768  -0.343  -0.354  0.00  0.00    +0.165 C 
ATOM      7  C   UNL     1      -1.759  -1.410   0.047  0.00  0.00    +0.124 C 
ATOM      8  N   UNL     1      -3.044  -1.121  -0.634  0.00  0.00    -0.319 N 
ATOM      9  C   UNL     1      -3.964  -0.815   0.292  0.00  0.00    +0.138 C 
ATOM     10  S   UNL     1      -5.559  -0.328  -0.098  0.00  0.00    -0.018 S 
ATOM     11  H   UNL     1      -3.195  -1.149  -1.592  0.00  0.00    +0.148 HD
ENDROOT
BRANCH   1  17
ATOM     12  C   UNL     1      -5.646  -2.369   5.745  0.00  0.00    +0.044 C 
ATOM     13  C   UNL     1      -5.283  -1.288   4.761  0.00  0.00    -0.048 A 
ATOM     14  C   UNL     1      -5.661   0.020   5.001  0.00  0.00    +0.006 A 
ATOM     15  C   UNL     1      -5.329   1.016   4.100  0.00  0.00    -0.048 A 
ATOM     16  C   UNL     1      -4.619   0.706   2.957  0.00  0.00    +0.027 A 
ATOM     17  C   UNL     1      -4.237  -0.607   2.713  0.00  0.00    +0.036 A 
ATOM     18  C   UNL     1      -4.576  -1.605   3.617  0.00  0.00    +0.027 A 
ATOM     19  C   UNL     1      -5.743   2.440   4.365  0.00  0.00    +0.044 C 
ENDBRANCH   1  17
BRANCH   3  20
ATOM     20  C   UNL     1      -2.042  -0.375   3.687  0.00  0.00    +0.218 C 
ATOM     21  O   UNL     1      -2.580   0.711   3.637  0.00  0.00    -0.275 OA
ATOM     22  N   UNL     1      -2.179  -1.146   4.783  0.00  0.00    -0.317 N 
ATOM     23  H   UNL     1      -1.827  -2.050   4.788  0.00  0.00    +0.149 HD
BRANCH  22  24
ATOM     24  C   UNL     1      -2.860  -0.619   5.969  0.00  0.00    +0.085 C 
BRANCH  24  25
ATOM     25  C   UNL     1      -2.924  -1.704   7.045  0.00  0.00    -0.060 C 
BRANCH  25  31
ATOM     26  C   UNL     1      -2.814  -0.112   8.866  0.00  0.00    -0.050 C 
ATOM     27  C   UNL     1      -3.588   0.450  10.062  0.00  0.00    +0.141 C 
ATOM     28  O   UNL     1      -3.889  -0.613  10.970  0.00  0.00    -0.383 OA
ATOM     29  C   UNL     1      -4.660  -1.667  10.387  0.00  0.00    +0.141 C 
ATOM     30  C   UNL     1      -3.898  -2.250   9.194  0.00  0.00    -0.050 C 
ATOM     31  N   UNL     1      -3.630  -1.165   8.227  0.00  0.00    +0.384 N 
ATOM     32  H   UNL     1      -4.523  -0.758   7.925  0.00  0.00    -0.082 HD
ENDBRANCH  25  31
ENDBRANCH  24  25
ENDBRANCH  22  24
ENDBRANCH   3  20
BRANCH   6  33
ATOM     33  O   UNL     1      -1.494   0.844  -0.683  0.00  0.00    -0.387 OA
ATOM     34  H   UNL     1      -0.938   1.572  -0.992  0.00  0.00    +0.210 HD
ENDBRANCH   6  33
BRANCH   5  35
ATOM     35  O   UNL     1       1.165  -1.089   0.834  0.00  0.00    -0.389 OA
ATOM     36  H   UNL     1       1.858  -0.945   1.493  0.00  0.00    +0.210 HD
ENDBRANCH   5  35
TORSDOF 7
