REMARK  Name = ZINC67117619
REMARK  4 active torsions:
REMARK  status: ('A' for Active; 'I' for Inactive)
REMARK    1  A    between atoms: C_3  and  C_21
REMARK    2  A    between atoms: N_5  and  C_7
REMARK    3  A    between atoms: C_7  and  C_8
REMARK    4  A    between atoms: N_10  and  C_11
REMARK                            x       y       z     vdW  Elec       q    Type
REMARK                         _______ _______ _______ _____ _____    ______ ____
ROOT
ATOM      1  C   UNL     1       1.813  -1.582   0.370  0.00  0.00    +0.020 C 
ENDROOT
BRANCH   1   5
ATOM      2  C   UNL     1       0.197   1.645   0.075  0.00  0.00    -0.020 C 
ATOM      3  C   UNL     1       1.726   1.884   0.190  0.00  0.00    -0.008 C 
ATOM      4  C   UNL     1       2.200   0.693   1.049  0.00  0.00    +0.020 C 
ATOM      5  N   UNL     1       1.188  -0.371   0.918  0.00  0.00    +0.393 N 
ATOM      6  C   UNL     1       0.127   0.099   0.002  0.00  0.00    -0.077 C 
ATOM      7  H   UNL     1       0.790  -0.574   1.822  0.00  0.00    -0.080 HD
BRANCH   4   8
ATOM      8  C   UNL     1       3.534   0.201   0.550  0.00  0.00    +0.202 C 
ATOM      9  O   UNL     1       3.632  -0.257  -0.569  0.00  0.00    -0.277 OA
ATOM     10  N   UNL     1       4.619   0.269   1.347  0.00  0.00    -0.301 N 
ATOM     11  C   UNL     1       4.470   0.709   2.735  0.00  0.00    +0.118 C 
ATOM     12  C   UNL     1       4.803  -0.453   3.678  0.00  0.00    +0.088 C 
ATOM     13  S   UNL     1       6.488  -1.030   3.317  0.00  0.00    -0.158 S 
ATOM     14  C   UNL     1       6.439  -1.356   1.529  0.00  0.00    +0.088 C 
ATOM     15  C   UNL     1       5.931  -0.103   0.816  0.00  0.00    +0.118 C 
ENDBRANCH   4   8
ENDBRANCH   1   5
BRANCH   1  16
ATOM     16  C   UNL     1       0.823  -2.718   0.406  0.00  0.00    +0.197 C 
ATOM     17  O   UNL     1      -0.293  -2.536   0.843  0.00  0.00    -0.278 OA
ATOM     18  N   UNL     1       1.178  -3.936  -0.050  0.00  0.00    -0.314 N 
ATOM     19  H   UNL     1       2.071  -4.082  -0.400  0.00  0.00    +0.149 HD
BRANCH  18  20
ATOM     20  C   UNL     1       0.215  -5.040  -0.015  0.00  0.00    +0.073 C 
ATOM     21  C   UNL     1       0.250  -5.704   1.362  0.00  0.00    +0.027 C 
ATOM     22  C   UNL     1      -0.758  -6.855   1.399  0.00  0.00    +0.067 C 
ATOM     23  C   UNL     1      -0.399  -7.881   0.323  0.00  0.00    +0.170 C 
ATOM     24  C   UNL     1      -0.428  -7.219  -1.055  0.00  0.00    +0.067 C 
ATOM     25  C   UNL     1       0.580  -6.067  -1.089  0.00  0.00    +0.027 C 
ATOM     26  O   UNL     1       0.918  -8.397   0.577  0.00  0.00    -0.346 OA
ATOM     27  C   UNL     1       0.699  -9.622   1.317  0.00  0.00    +0.191 C 
ATOM     28  C   UNL     1      -0.592 -10.164   0.653  0.00  0.00    +0.191 C 
ATOM     29  O   UNL     1      -1.336  -8.964   0.358  0.00  0.00    -0.346 OA
ENDBRANCH  18  20
ENDBRANCH   1  16
TORSDOF 4
