REMARK  Name = ZINC49563875
REMARK  4 active torsions:
REMARK  status: ('A' for Active; 'I' for Inactive)
REMARK    1  A    between atoms: C_3  and  S_9
REMARK    2  A    between atoms: C_4  and  N_8
REMARK    3  A    between atoms: S_9  and  N_12
REMARK    4  A    between atoms: N_12  and  C_13
REMARK                            x       y       z     vdW  Elec       q    Type
REMARK                         _______ _______ _______ _____ _____    ______ ____
ROOT
ATOM      1  S   UNL     1       3.711   2.366   0.094  0.00  0.00    +0.060 S 
ATOM      2  O   UNL     1       4.474   1.871  -0.999  0.00  0.00    -0.153 OA
ATOM      3  O   UNL     1       3.260   3.712   0.160  0.00  0.00    -0.153 OA
ENDROOT
BRANCH   1   6
ATOM      4  C   UNL     1       0.950  -0.465  -0.618  0.00  0.00    +0.017 A 
ATOM      5  C   UNL     1       2.074   0.335  -0.707  0.00  0.00    +0.031 A 
ATOM      6  C   UNL     1       2.277   1.348   0.208  0.00  0.00    +0.126 A 
ATOM      7  C   UNL     1       1.350   1.565   1.220  0.00  0.00    +0.052 A 
ATOM      8  C   UNL     1       0.222   0.760   1.308  0.00  0.00    +0.040 A 
ATOM      9  C   UNL     1       0.024  -0.253   0.389  0.00  0.00    +0.020 A 
ATOM     10 BR   UNL     1      -1.512  -1.349   0.506  0.00  0.00    -0.050 Br
BRANCH   7  11
ATOM     11  N   UNL     1       1.553   2.589   2.148  0.00  0.00    -0.356 N 
ATOM     12  H   UNL     1       2.308   3.190   2.050  0.00  0.00    +0.142 HD
ATOM     13  H   UNL     1       0.939   2.699   2.891  0.00  0.00    +0.142 HD
ENDBRANCH   7  11
ENDBRANCH   1   6
BRANCH   1  14
ATOM     14  N   UNL     1       4.610   2.100   1.458  0.00  0.00    -0.188 NA
ATOM     15  H   UNL     1       4.770   2.825   2.083  0.00  0.00    +0.148 HD
BRANCH  14  16
ATOM     16  C   UNL     1       5.165   0.770   1.723  0.00  0.00    +0.061 C 
ATOM     17  C   UNL     1       6.678   0.728   1.381  0.00  0.00    +0.000 C 
ATOM     18  C   UNL     1       7.175  -0.413   2.302  0.00  0.00    -0.077 C 
ATOM     19  N   UNL     1       6.390  -0.269   3.548  0.00  0.00    +0.383 N 
ATOM     20  C   UNL     1       5.139   0.459   3.232  0.00  0.00    -0.050 C 
ATOM     21  C   UNL     1       3.963  -0.491   3.535  0.00  0.00    -0.016 C 
ATOM     22  C   UNL     1       4.573  -1.481   4.562  0.00  0.00    -0.020 C 
ATOM     23  C   UNL     1       6.030  -1.616   4.041  0.00  0.00    -0.078 C 
ATOM     24  H   UNL     1       6.926   0.228   4.244  0.00  0.00    -0.081 HD
ENDBRANCH  14  16
ENDBRANCH   1  14
TORSDOF 4
