REMARK  Name = ZINC15957737
REMARK  4 active torsions:
REMARK  status: ('A' for Active; 'I' for Inactive)
REMARK    1  A    between atoms: C_12  and  C_15
REMARK    2  A    between atoms: C_15  and  C_16
REMARK    3  A    between atoms: C_16  and  C_17
REMARK    4  A    between atoms: N_22  and  C_25
REMARK                            x       y       z     vdW  Elec       q    Type
REMARK                         _______ _______ _______ _____ _____    ______ ____
ROOT
ATOM      1  C   UNL     1      -0.850   0.303  -3.178  0.00  0.00    +0.000 A 
ATOM      2  C   UNL     1       0.159   0.847  -3.950  0.00  0.00    +0.002 A 
ATOM      3  C   UNL     1       1.445   0.354  -3.865  0.00  0.00    +0.023 A 
ATOM      4  C   UNL     1       1.736  -0.698  -2.999  0.00  0.00    +0.039 A 
ATOM      5  C   UNL     1       0.712  -1.238  -2.227  0.00  0.00    +0.003 A 
ATOM      6  C   UNL     1      -0.570  -0.742  -2.315  0.00  0.00    +0.008 A 
ATOM      7  C   UNL     1       1.343  -2.336  -1.419  0.00  0.00    +0.136 C 
ATOM      8  C   UNL     1       1.180  -2.096   0.087  0.00  0.00    +0.123 C 
ATOM      9  C   UNL     1       0.996  -3.517   0.691  0.00  0.00    +0.107 C 
ATOM     10  C   UNL     1       1.093  -4.476  -0.514  0.00  0.00    +0.068 C 
ATOM     11  N   UNL     1       0.710  -3.640  -1.691  0.00  0.00    -0.295 NA
ATOM     12  C   UNL     1      -0.421  -3.492   1.216  0.00  0.00    +0.232 C 
ATOM     13  O   UNL     1      -0.982  -4.416   1.765  0.00  0.00    -0.274 OA
ATOM     14  N   UNL     1      -0.962  -2.291   0.980  0.00  0.00    -0.210 N 
ATOM     15  C   UNL     1      -0.144  -1.415   0.353  0.00  0.00    +0.233 C 
ATOM     16  O   UNL     1      -0.418  -0.274   0.049  0.00  0.00    -0.274 OA
ATOM     17  C   UNL     1       2.792  -2.335  -1.822  0.00  0.00    +0.243 C 
ATOM     18  O   UNL     1       3.661  -3.071  -1.403  0.00  0.00    -0.273 OA
ATOM     19  N   UNL     1       2.938  -1.359  -2.738  0.00  0.00    -0.283 N 
ATOM     20  H   UNL     1      -0.291  -3.547  -1.770  0.00  0.00    +0.123 HD
ATOM     21  H   UNL     1       3.780  -1.141  -3.168  0.00  0.00    +0.155 HD
ENDROOT
BRANCH  14  22
ATOM     22  C   UNL     1      -2.272  -1.961   1.359  0.00  0.00    +0.048 A 
ATOM     23  C   UNL     1      -3.349  -2.588   0.748  0.00  0.00    +0.028 A 
ATOM     24  C   UNL     1      -4.640  -2.265   1.120  0.00  0.00    +0.051 A 
ATOM     25  C   UNL     1      -4.863  -1.315   2.103  0.00  0.00    +0.166 A 
ATOM     26  C   UNL     1      -3.784  -0.684   2.717  0.00  0.00    +0.168 A 
ATOM     27  C   UNL     1      -2.491  -1.013   2.348  0.00  0.00    +0.073 A 
ATOM     28  O   UNL     1      -4.263   0.200   3.640  0.00  0.00    -0.453 OA
ATOM     29  C   UNL     1      -5.647   0.401   3.298  0.00  0.00    +0.466 C 
ATOM     30  O   UNL     1      -6.019  -0.825   2.642  0.00  0.00    -0.453 OA
ENDBRANCH  14  22
BRANCH  10  31
ATOM     31  C   UNL     1       2.518  -5.014  -0.652  0.00  0.00    +0.028 C 
BRANCH  31  32
ATOM     32  C   UNL     1       2.645  -6.328   0.121  0.00  0.00    +0.097 C 
BRANCH  32  33
ATOM     33  C   UNL     1       4.049  -6.858  -0.015  0.00  0.00    +0.211 C 
ATOM     34  O   UNL     1       4.868  -6.245  -0.667  0.00  0.00    -0.276 OA
ATOM     35  N   UNL     1       4.394  -8.013   0.587  0.00  0.00    -0.329 N 
ATOM     36  H   UNL     1       3.739  -8.503   1.108  0.00  0.00    +0.145 HD
ATOM     37  H   UNL     1       5.298  -8.355   0.499  0.00  0.00    +0.145 HD
ENDBRANCH  32  33
ENDBRANCH  31  32
ENDBRANCH  10  31
TORSDOF 4
