REMARK  Name = ZINC33628497
REMARK  5 active torsions:
REMARK  status: ('A' for Active; 'I' for Inactive)
REMARK    1  A    between atoms: C_1  and  N_2
REMARK    2  A    between atoms: C_5  and  C_10
REMARK    3  A    between atoms: N_19  and  C_21
REMARK    4  A    between atoms: N_24  and  C_27
REMARK    5  A    between atoms: C_27  and  C_28
REMARK                            x       y       z     vdW  Elec       q    Type
REMARK                         _______ _______ _______ _____ _____    ______ ____
ROOT
ATOM      1  C   UNL     1      -2.414   1.911   0.046  0.00  0.00    +0.139 C 
ATOM      2  N   UNL     1      -1.039   2.416   0.030  0.00  0.00    -0.260 N 
ATOM      3  C   UNL     1      -0.018   1.508   0.010  0.00  0.00    +0.042 C 
ATOM      4  C   UNL     1       1.270   1.905   0.000  0.00  0.00    +0.058 C 
ATOM      5  C   UNL     1       1.548   3.395   0.006  0.00  0.00    +0.144 C 
ATOM      6  N   UNL     1       0.380   4.291   0.023  0.00  0.00    -0.288 N 
ATOM      7  C   UNL     1      -0.851   3.742   0.032  0.00  0.00    +0.307 C 
ATOM      8  O   UNL     1      -1.821   4.474   0.046  0.00  0.00    -0.252 OA
ATOM      9  C   UNL     1       2.128   0.786  -0.014  0.00  0.00    +0.247 C 
ATOM     10  O   UNL     1       3.344   0.851  -0.025  0.00  0.00    -0.270 OA
ATOM     11  N   UNL     1       1.428  -0.363  -0.013  0.00  0.00    -0.289 N 
ATOM     12  C   UNL     1       0.002  -0.004   0.002  0.00  0.00    +0.159 C 
ATOM     13  H   UNL     1       0.524   5.382   0.028  0.00  0.00    +0.151 HD
ENDROOT
BRANCH   5  14
ATOM     14  C   UNL     1       2.390   3.705   1.217  0.00  0.00    +0.013 A 
ATOM     15  C   UNL     1       1.788   4.131   2.387  0.00  0.00    +0.008 A 
ATOM     16  C   UNL     1       2.559   4.415   3.498  0.00  0.00    +0.001 A 
ATOM     17  C   UNL     1       3.934   4.274   3.441  0.00  0.00    +0.003 A 
ATOM     18  C   UNL     1       4.538   3.849   2.273  0.00  0.00    +0.039 A 
ATOM     19  C   UNL     1       3.765   3.559   1.161  0.00  0.00    +0.129 A 
ATOM     20  F   UNL     1       4.354   3.138   0.020  0.00  0.00    -0.205 F 
ENDBRANCH   5  14
BRANCH  11  21
ATOM     21  C   UNL     1       1.983  -1.718  -0.026  0.00  0.00    +0.073 C 
ATOM     22  C   UNL     1       2.859  -1.925   1.212  0.00  0.00    +0.004 C 
ATOM     23  C   UNL     1       3.486  -3.320   1.161  0.00  0.00    -0.077 C 
ATOM     24  N   UNL     1       4.291  -3.453  -0.059  0.00  0.00    +0.382 N 
ATOM     25  C   UNL     1       3.462  -3.307  -1.262  0.00  0.00    -0.077 C 
ATOM     26  C   UNL     1       2.835  -1.910  -1.284  0.00  0.00    +0.004 C 
ATOM     27  H   UNL     1       5.032  -2.640  -0.062  0.00  0.00    -0.081 HD
BRANCH  24  28
ATOM     28  C   UNL     1       5.018  -4.730  -0.073  0.00  0.00    -0.043 C 
BRANCH  28  29
ATOM     29  C   UNL     1       6.036  -4.741   1.038  0.00  0.00    -0.064 A 
ATOM     30  C   UNL     1       7.318  -4.280   0.805  0.00  0.00    +0.002 A 
ATOM     31  C   UNL     1       8.251  -4.285   1.825  0.00  0.00    +0.000 A 
ATOM     32  C   UNL     1       7.904  -4.762   3.076  0.00  0.00    +0.000 A 
ATOM     33  C   UNL     1       6.623  -5.228   3.307  0.00  0.00    +0.000 A 
ATOM     34  C   UNL     1       5.689  -5.217   2.288  0.00  0.00    +0.002 A 
ENDBRANCH  28  29
ENDBRANCH  24  28
ENDBRANCH  11  21
TORSDOF 4
