REMARK  Name = ZINC40031171
REMARK  4 active torsions:
REMARK  status: ('A' for Active; 'I' for Inactive)
REMARK    1  A    between atoms: C_2  and  C_3
REMARK    2  A    between atoms: C_3  and  N_4
REMARK    3  A    between atoms: C_5  and  C_20
REMARK    4  A    between atoms: C_24  and  O_26
REMARK                            x       y       z     vdW  Elec       q    Type
REMARK                         _______ _______ _______ _____ _____    ______ ____
ROOT
ATOM      1  N   UNL     1       1.367  -1.676   1.111  0.00  0.00    -0.280 N 
ATOM      2  C   UNL     1       1.875  -1.379   2.461  0.00  0.00    +0.145 C 
ATOM      3  C   UNL     1       1.718  -2.642   3.242  0.00  0.00    +0.072 A 
ATOM      4  C   UNL     1       2.054  -2.966   4.633  0.00  0.00    +0.199 A 
ATOM      5  O   UNL     1       2.386  -2.127   5.452  0.00  0.00    -0.287 OA
ATOM      6  C   UNL     1       1.949  -4.413   4.947  0.00  0.00    +0.064 A 
ATOM      7  C   UNL     1       2.423  -4.908   6.162  0.00  0.00    +0.015 A 
ATOM      8  C   UNL     1       2.324  -6.244   6.435  0.00  0.00    +0.001 A 
ATOM      9  C   UNL     1       1.756  -7.106   5.508  0.00  0.00    +0.004 A 
ATOM     10  C   UNL     1       1.282  -6.635   4.304  0.00  0.00    +0.047 A 
ATOM     11  C   UNL     1       1.369  -5.275   4.003  0.00  0.00    +0.139 A 
ATOM     12  O   UNL     1       0.888  -4.832   2.819  0.00  0.00    -0.450 OA
ATOM     13  C   UNL     1       1.165  -3.577   2.415  0.00  0.00    +0.199 A 
ATOM     14  C   UNL     1       0.952  -2.958   1.095  0.00  0.00    +0.283 C 
ATOM     15  O   UNL     1       0.473  -3.522   0.131  0.00  0.00    -0.267 OA
ENDROOT
BRANCH   2  16
ATOM     16  C   UNL     1       1.065  -0.274   3.089  0.00  0.00    -0.019 A 
ATOM     17  C   UNL     1      -0.308  -0.242   2.922  0.00  0.00    +0.006 A 
ATOM     18  C   UNL     1      -1.054   0.770   3.497  0.00  0.00    +0.004 A 
ATOM     19  C   UNL     1      -0.429   1.753   4.240  0.00  0.00    +0.045 A 
ATOM     20  C   UNL     1       0.948   1.724   4.409  0.00  0.00    +0.117 A 
ATOM     21  C   UNL     1       1.693   0.704   3.836  0.00  0.00    +0.051 A 
BRANCH  20  22
ATOM     22  O   UNL     1       1.564   2.690   5.139  0.00  0.00    -0.507 OA
ATOM     23  H   UNL     1       1.643   2.482   6.080  0.00  0.00    +0.292 HD
ENDBRANCH  20  22
ENDBRANCH   2  16
BRANCH   1  24
ATOM     24  C   UNL     1       1.317  -0.740  -0.015  0.00  0.00    +0.136 C 
BRANCH  24  26
ATOM     25  C   UNL     1      -0.016   1.306   0.009  0.00  0.00    +0.005 C 
ATOM     26  C   UNL     1       0.002  -0.004   0.002  0.00  0.00    -0.016 C 
ENDBRANCH  24  26
ENDBRANCH   1  24
TORSDOF 4
