REMARK  Name = ZINC03325167
REMARK  6 active torsions:
REMARK  status: ('A' for Active; 'I' for Inactive)
REMARK    1  A    between atoms: C_3  and  N_8
REMARK    2  A    between atoms: C_9  and  C_11
REMARK    3  A    between atoms: C_11  and  O_12
REMARK    4  A    between atoms: O_12  and  C_13
REMARK    5  A    between atoms: C_13  and  C_15
REMARK    6  A    between atoms: C_18  and  N_21
REMARK                            x       y       z     vdW  Elec       q    Type
REMARK                         _______ _______ _______ _____ _____    ______ ____
ROOT
ATOM      1  C   UNL     1      -5.063   3.507   0.308  0.00  0.00    +0.340 C 
ATOM      2  O   UNL     1      -6.056   2.810   0.239  0.00  0.00    -0.245 OA
ENDROOT
BRANCH   1   3
ATOM      3  C   UNL     1      -3.744   2.891   0.544  0.00  0.00    +0.059 A 
ATOM      4  C   UNL     1      -3.635   1.505   0.689  0.00  0.00    +0.017 A 
ATOM      5  C   UNL     1      -2.402   0.933   0.909  0.00  0.00    +0.024 A 
ATOM      6  C   UNL     1      -1.266   1.733   0.987  0.00  0.00    +0.035 A 
ATOM      7  C   UNL     1      -1.372   3.114   0.849  0.00  0.00    +0.024 A 
ATOM      8  C   UNL     1      -2.601   3.692   0.624  0.00  0.00    +0.017 A 
BRANCH   6   9
ATOM      9  N   UNL     1      -0.019   1.151   1.209  0.00  0.00    -0.270 N 
ATOM     10  C   UNL     1       0.896   1.786   1.968  0.00  0.00    +0.301 C 
ATOM     11  O   UNL     1       0.664   2.900   2.394  0.00  0.00    -0.253 OA
ATOM     12  N   UNL     1       2.068   1.185   2.254  0.00  0.00    -0.313 N 
ATOM     13  H   UNL     1       0.191   0.290   0.814  0.00  0.00    +0.156 HD
ATOM     14  H   UNL     1       2.253   0.296   1.914  0.00  0.00    +0.146 HD
ATOM     15  H   UNL     1       2.726   1.642   2.801  0.00  0.00    +0.146 HD
ENDBRANCH   6   9
ENDBRANCH   1   3
BRANCH   1  16
ATOM     16  O   UNL     1      -5.167   4.844   0.169  0.00  0.00    -0.452 OA
BRANCH  16  17
ATOM     17  C   UNL     1      -6.496   5.381  -0.061  0.00  0.00    +0.328 C 
BRANCH  17  19
ATOM     18  N   UNL     1      -7.536   7.598  -0.409  0.00  0.00    -0.283 N 
ATOM     19  C   UNL     1      -6.417   6.880  -0.191  0.00  0.00    +0.255 C 
ATOM     20  O   UNL     1      -5.345   7.441  -0.098  0.00  0.00    -0.272 OA
ATOM     21  H   UNL     1      -8.401   7.159  -0.410  0.00  0.00    +0.155 HD
BRANCH  18  24
ATOM     22  C   UNL     1      -8.375  11.178  -0.417  0.00  0.00    +0.003 A 
ATOM     23  C   UNL     1      -8.464   9.818  -0.196  0.00  0.00    +0.023 A 
ATOM     24  C   UNL     1      -7.450   8.976  -0.635  0.00  0.00    +0.034 A 
ATOM     25  C   UNL     1      -6.354   9.505  -1.304  0.00  0.00    +0.037 A 
ATOM     26  C   UNL     1      -6.273  10.866  -1.526  0.00  0.00    +0.015 A 
ATOM     27  C   UNL     1      -7.282  11.702  -1.083  0.00  0.00    +0.014 A 
ATOM     28  I   UNL     1      -4.620  11.665  -2.536  0.00  0.00    -0.044 I 
ENDBRANCH  18  24
ENDBRANCH  17  19
ENDBRANCH  16  17
ENDBRANCH   1  16
TORSDOF 6
