REMARK  Name = ZINC19526699
REMARK  8 active torsions:
REMARK  status: ('A' for Active; 'I' for Inactive)
REMARK    1  A    between atoms: C_1  and  C_2
REMARK    2  A    between atoms: C_2  and  N_3
REMARK    3  A    between atoms: N_15  and  C_16
REMARK    4  A    between atoms: C_17  and  C_19
REMARK    5  A    between atoms: C_19  and  N_20
REMARK    6  A    between atoms: C_21  and  C_23
REMARK    7  A    between atoms: C_25  and  C_29
REMARK    8  A    between atoms: C_27  and  C_28
REMARK                            x       y       z     vdW  Elec       q    Type
REMARK                         _______ _______ _______ _____ _____    ______ ____
ROOT
ATOM      1  N   UNL     1       7.611   3.310  -0.052  0.00  0.00    -0.249 N 
ATOM      2  C   UNL     1       8.105   4.609  -0.050  0.00  0.00    +0.168 A 
ATOM      3  N   UNL     1       9.360   5.016  -0.053  0.00  0.00    -0.224 NA
ATOM      4  C   UNL     1       9.677   6.301  -0.051  0.00  0.00    +0.087 A 
ATOM      5  C   UNL     1       8.621   7.191  -0.045  0.00  0.00    +0.019 A 
ATOM      6  S   UNL     1       7.223   6.109  -0.034  0.00  0.00    -0.056 S 
ATOM      7  C   UNL     1       8.717   8.674  -0.058  0.00  0.00    +0.051 C 
ATOM      8  C   UNL     1      10.004   9.154   0.622  0.00  0.00    +0.061 C 
ATOM      9  C   UNL     1      11.163   8.263   0.267  0.00  0.00    +0.048 A 
ATOM     10  C   UNL     1      11.036   6.925  -0.029  0.00  0.00    +0.042 A 
ATOM     11  C   UNL     1      12.299   6.401  -0.265  0.00  0.00    +0.144 A 
ATOM     12  N   UNL     1      13.166   7.379  -0.136  0.00  0.00    -0.179 NA
ATOM     13  N   UNL     1      12.471   8.554   0.191  0.00  0.00    -0.271 N 
ATOM     14  C   UNL     1      13.070   9.872   0.411  0.00  0.00    +0.172 C 
ATOM     15  C   UNL     1       6.281   3.095  -0.041  0.00  0.00    +0.238 C 
ATOM     16  O   UNL     1       5.514   4.035  -0.029  0.00  0.00    -0.273 OA
ENDROOT
BRANCH   1  18
ATOM     17  C   UNL     1       8.846   1.787  -1.514  0.00  0.00    +0.025 C 
ATOM     18  C   UNL     1       8.537   2.175  -0.066  0.00  0.00    +0.112 C 
ENDBRANCH   1  18
BRANCH  15  19
ATOM     19  C   UNL     1       5.745   1.686  -0.043  0.00  0.00    +0.201 C 
BRANCH  19  20
ATOM     20  N   UNL     1       4.281   1.720  -0.029  0.00  0.00    -0.303 N 
ATOM     21  C   UNL     1       3.580   0.569  -0.029  0.00  0.00    +0.248 C 
ATOM     22  O   UNL     1       4.163  -0.498  -0.040  0.00  0.00    -0.270 OA
ATOM     23  H   UNL     1       3.753   2.685  -0.019  0.00  0.00    +0.150 HD
BRANCH  21  24
ATOM     24  C   UNL     1       2.107   0.603  -0.015  0.00  0.00    +0.077 A 
ATOM     25  C   UNL     1       1.246   1.795  -0.000  0.00  0.00    +0.057 A 
ATOM     26  C   UNL     1      -0.016   1.338   0.009  0.00  0.00    +0.103 A 
ATOM     27  O   UNL     1       0.002  -0.004   0.002  0.00  0.00    -0.464 OA
ATOM     28  C   UNL     1       1.257  -0.464  -0.012  0.00  0.00    +0.114 A 
ATOM     29  C   UNL     1       1.664  -1.915  -0.024  0.00  0.00    +0.087 C 
ATOM     30  C   UNL     1      -1.256   2.195   0.020  0.00  0.00    +0.086 C 
ENDBRANCH  21  24
ENDBRANCH  19  20
ENDBRANCH  15  19
TORSDOF 4
