REMARK  Name = ZINC39663299
REMARK  4 active torsions:
REMARK  status: ('A' for Active; 'I' for Inactive)
REMARK    1  A    between atoms: C_4  and  C_7
REMARK    2  A    between atoms: C_10  and  C_12
REMARK    3  A    between atoms: C_16  and  C_25
REMARK    4  A    between atoms: N_27  and  C_28
REMARK                            x       y       z     vdW  Elec       q    Type
REMARK                         _______ _______ _______ _____ _____    ______ ____
ROOT
ATOM      1  C   UNL     1       7.466  -0.860  -0.104  0.00  0.00    +0.282 C 
ATOM      2  O   UNL     1       8.250  -1.790  -0.064  0.00  0.00    -0.267 OA
ATOM      3  N   UNL     1       7.922   0.408  -0.060  0.00  0.00    -0.294 N 
ATOM      4  C   UNL     1       7.130   1.659  -0.091  0.00  0.00    +0.121 C 
ATOM      5  C   UNL     1       7.840   2.596   0.912  0.00  0.00    +0.100 C 
ATOM      6  C   UNL     1       9.284   2.070   0.985  0.00  0.00    -0.004 C 
ATOM      7  C   UNL     1       9.329   0.864   0.035  0.00  0.00    +0.115 C 
ATOM      8  C   UNL     1       9.613   1.627   2.407  0.00  0.00    -0.010 C 
ATOM      9  C   UNL     1      11.071   1.162   2.467  0.00  0.00    -0.082 C 
ATOM     10  N   UNL     1      11.954   2.261   2.058  0.00  0.00    +0.379 N 
ATOM     11  C   UNL     1      11.694   2.619   0.659  0.00  0.00    -0.082 C 
ATOM     12  C   UNL     1      10.262   3.146   0.523  0.00  0.00    -0.010 C 
ATOM     13  H   UNL     1      11.785   3.063   2.647  0.00  0.00    -0.086 HD
ATOM     14  H   UNL     1      12.916   1.972   2.157  0.00  0.00    -0.086 HD
ENDROOT
BRANCH   1  18
ATOM     15  C   UNL     1       3.859  -0.786  -0.334  0.00  0.00    +0.136 A 
ATOM     16  C   UNL     1       4.051  -2.138  -0.337  0.00  0.00    +0.050 A 
ATOM     17  C   UNL     1       5.429  -2.358  -0.252  0.00  0.00    +0.055 A 
ATOM     18  C   UNL     1       6.027  -1.118  -0.200  0.00  0.00    +0.190 A 
ATOM     19  O   UNL     1       5.056  -0.182  -0.257  0.00  0.00    -0.450 OA
BRANCH  15  23
ATOM     20  C   UNL     1       0.102   1.181  -0.553  0.00  0.00    +0.000 A 
ATOM     21  C   UNL     1       1.266   1.926  -0.476  0.00  0.00    +0.001 A 
ATOM     22  C   UNL     1       2.490   1.293  -0.404  0.00  0.00    +0.011 A 
ATOM     23  C   UNL     1       2.552  -0.102  -0.410  0.00  0.00    +0.017 A 
ATOM     24  C   UNL     1       1.374  -0.847  -0.488  0.00  0.00    +0.011 A 
ATOM     25  C   UNL     1       0.157  -0.201  -0.560  0.00  0.00    +0.001 A 
ENDBRANCH  15  23
ENDBRANCH   1  18
BRANCH   5  26
ATOM     26  C   UNL     1       7.821   4.016   0.408  0.00  0.00    +0.218 C 
ATOM     27  O   UNL     1       7.831   4.236  -0.785  0.00  0.00    -0.275 OA
ATOM     28  N   UNL     1       7.794   5.041   1.282  0.00  0.00    -0.314 N 
ATOM     29  H   UNL     1       7.786   4.865   2.236  0.00  0.00    +0.149 HD
BRANCH  28  30
ATOM     30  C   UNL     1       7.775   6.422   0.792  0.00  0.00    +0.059 C 
ATOM     31  C   UNL     1       6.334   6.840   0.492  0.00  0.00    -0.056 C 
ATOM     32  N   UNL     1       5.964   7.991   1.319  0.00  0.00    +0.381 N 
ATOM     33  C   UNL     1       6.034   7.649   2.742  0.00  0.00    -0.078 C 
ATOM     34  C   UNL     1       7.465   7.257   3.116  0.00  0.00    -0.014 C 
ATOM     35  C   UNL     1       8.352   7.355   1.865  0.00  0.00    +0.004 C 
ATOM     36  C   UNL     1       8.286   8.795   1.339  0.00  0.00    -0.014 C 
ATOM     37  C   UNL     1       6.825   9.138   1.022  0.00  0.00    -0.078 C 
ATOM     38  H   UNL     1       5.011   8.244   1.106  0.00  0.00    -0.082 HD
ENDBRANCH  28  30
ENDBRANCH   5  26
TORSDOF 4
