REMARK  Name = ZINC15070978
REMARK  8 active torsions:
REMARK  status: ('A' for Active; 'I' for Inactive)
REMARK    1  A    between atoms: C_1  and  C_2
REMARK    2  A    between atoms: C_5  and  N_8
REMARK    3  A    between atoms: C_13  and  N_20
REMARK    4  A    between atoms: C_16  and  C_18
REMARK    5  A    between atoms: C_16  and  C_19
REMARK    6  A    between atoms: C_21  and  C_23
REMARK    7  A    between atoms: C_26  and  C_29
REMARK    8  A    between atoms: C_29  and  N_30
REMARK                            x       y       z     vdW  Elec       q    Type
REMARK                         _______ _______ _______ _____ _____    ______ ____
ROOT
ATOM      1  N   UNL     1       2.866   2.366   3.193  0.00  0.00    -0.236 N 
ATOM      2  C   UNL     1       2.893   1.962   1.909  0.00  0.00    +0.050 A 
ATOM      3  C   UNL     1       1.634   2.074   1.413  0.00  0.00    +0.014 A 
ATOM      4  C   UNL     1       0.814   2.565   2.426  0.00  0.00    +0.140 A 
ATOM      5  N   UNL     1       1.549   2.741   3.497  0.00  0.00    -0.174 NA
ATOM      6  C   UNL     1       1.248   1.716  -0.001  0.00  0.00    +0.107 C 
ATOM      7  C   UNL     1       2.361   0.849  -0.602  0.00  0.00    +0.034 C 
ATOM      8  C   UNL     1       3.715   1.527  -0.375  0.00  0.00    -0.027 C 
ATOM      9  C   UNL     1       4.075   1.468   1.114  0.00  0.00    +0.062 C 
ATOM     10  C   UNL     1       3.635   2.988  -0.823  0.00  0.00    +0.011 C 
ATOM     11  C   UNL     1       4.790   0.803  -1.189  0.00  0.00    +0.011 C 
ENDROOT
BRANCH   1  16
ATOM     12  C   UNL     1       7.292   2.519   6.742  0.00  0.00    +0.044 C 
ATOM     13  C   UNL     1       6.117   2.478   5.800  0.00  0.00    -0.050 A 
ATOM     14  C   UNL     1       5.135   3.448   5.880  0.00  0.00    +0.005 A 
ATOM     15  C   UNL     1       4.056   3.413   5.018  0.00  0.00    +0.028 A 
ATOM     16  C   UNL     1       3.960   2.403   4.070  0.00  0.00    +0.066 A 
ATOM     17  C   UNL     1       4.945   1.428   3.995  0.00  0.00    +0.028 A 
ATOM     18  C   UNL     1       6.024   1.471   4.857  0.00  0.00    +0.005 A 
ENDBRANCH   1  16
BRANCH   6  19
ATOM     19  N   UNL     1      -0.011   0.966   0.007  0.00  0.00    -0.304 N 
ATOM     20  C   UNL     1      -1.187   1.624   0.017  0.00  0.00    +0.245 C 
ATOM     21  O   UNL     1      -1.204   2.839   0.023  0.00  0.00    -0.270 OA
ATOM     22  H   UNL     1       0.002  -0.004   0.002  0.00  0.00    +0.150 HD
BRANCH  20  23
ATOM     23  C   UNL     1      -2.458   0.867   0.018  0.00  0.00    +0.037 A 
ATOM     24  C   UNL     1      -2.442  -0.528   0.005  0.00  0.00    +0.013 A 
ATOM     25  C   UNL     1      -3.631  -1.228   0.012  0.00  0.00    +0.006 A 
ATOM     26  C   UNL     1      -4.837  -0.550   0.021  0.00  0.00    -0.026 A 
ATOM     27  C   UNL     1      -4.859   0.834   0.029  0.00  0.00    +0.006 A 
ATOM     28  C   UNL     1      -3.677   1.546   0.028  0.00  0.00    +0.013 A 
BRANCH  26  29
ATOM     29  C   UNL     1      -6.131  -1.321   0.023  0.00  0.00    +0.182 C 
BRANCH  29  30
ATOM     30  N   UNL     1      -6.557  -1.563  -1.358  0.00  0.00    -0.228 N 
ATOM     31  C   UNL     1      -6.838  -2.758  -1.910  0.00  0.00    +0.245 A 
ATOM     32  N   UNL     1      -7.176  -2.528  -3.155  0.00  0.00    -0.117 NA
ATOM     33  N   UNL     1      -7.107  -1.257  -3.357  0.00  0.00    -0.023 NA
ATOM     34  N   UNL     1      -6.739  -0.671  -2.272  0.00  0.00    -0.044 NA
ENDBRANCH  29  30
ENDBRANCH  26  29
ENDBRANCH  20  23
ENDBRANCH   6  19
TORSDOF 5
