REMARK  Name = ZINC50057062
REMARK  11 active torsions:
REMARK  status: ('A' for Active; 'I' for Inactive)
REMARK    1  A    between atoms: C_1  and  C_2
REMARK    2  A    between atoms: C_2  and  C_3
REMARK    3  A    between atoms: C_2  and  C_4
REMARK    4  A    between atoms: C_4  and  N_5
REMARK    5  A    between atoms: C_6  and  C_8
REMARK    6  A    between atoms: C_8  and  N_9
REMARK    7  A    between atoms: N_12  and  C_13
REMARK    8  A    between atoms: C_17  and  C_19
REMARK    9  A    between atoms: C_19  and  O_20
REMARK   10  A    between atoms: O_20  and  C_21
REMARK   11  A    between atoms: C_21  and  C_22
REMARK                            x       y       z     vdW  Elec       q    Type
REMARK                         _______ _______ _______ _____ _____    ______ ____
ROOT
ATOM      1  N   UNL     1      -5.451  -0.624  -2.714  0.00  0.00    -0.291 N 
ATOM      2  C   UNL     1      -6.266  -0.382  -3.760  0.00  0.00    +0.304 C 
ATOM      3  O   UNL     1      -5.861   0.258  -4.711  0.00  0.00    -0.252 OA
ATOM      4  N   UNL     1      -7.530  -0.850  -3.751  0.00  0.00    -0.269 N 
ATOM      5  H   UNL     1      -5.774  -1.135  -1.956  0.00  0.00    +0.151 HD
ATOM      6  H   UNL     1      -7.832  -1.417  -3.025  0.00  0.00    +0.156 HD
ENDROOT
BRANCH   4   7
ATOM      7  C   UNL     1      -8.406  -0.518  -4.791  0.00  0.00    +0.035 A 
ATOM      8  C   UNL     1      -9.755  -0.318  -4.527  0.00  0.00    +0.023 A 
ATOM      9  C   UNL     1     -10.617   0.010  -5.555  0.00  0.00    +0.002 A 
ATOM     10  C   UNL     1     -10.138   0.139  -6.846  0.00  0.00    +0.006 A 
ATOM     11  C   UNL     1      -8.796  -0.061  -7.112  0.00  0.00    -0.020 A 
ATOM     12  C   UNL     1      -7.928  -0.383  -6.087  0.00  0.00    +0.029 A 
BRANCH  11  13
ATOM     13  C   UNL     1      -8.280   0.079  -8.521  0.00  0.00    +0.195 C 
BRANCH  13  14
ATOM     14  O   UNL     1      -7.878   1.431  -8.749  0.00  0.00    -0.368 OA
BRANCH  14  15
ATOM     15  C   UNL     1      -7.370   1.673 -10.062  0.00  0.00    +0.234 C 
BRANCH  15  16
ATOM     16  C   UNL     1      -6.980   3.123 -10.191  0.00  0.00    +0.130 A 
ATOM     17  C   UNL     1      -5.768   3.639  -9.918  0.00  0.00    +0.047 A 
ATOM     18  C   UNL     1      -5.846   5.027 -10.175  0.00  0.00    +0.041 A 
ATOM     19  C   UNL     1      -7.101   5.276 -10.591  0.00  0.00    +0.195 A 
ATOM     20  O   UNL     1      -7.782   4.118 -10.604  0.00  0.00    -0.465 OA
ENDBRANCH  15  16
ENDBRANCH  14  15
ENDBRANCH  13  14
ENDBRANCH  11  13
ENDBRANCH   4   7
BRANCH   1  21
ATOM     21  C   UNL     1      -4.077  -0.115  -2.724  0.00  0.00    +0.201 C 
BRANCH  21  23
ATOM     22  N   UNL     1      -2.101  -0.160  -1.236  0.00  0.00    -0.314 N 
ATOM     23  C   UNL     1      -3.383  -0.520  -1.449  0.00  0.00    +0.230 C 
ATOM     24  O   UNL     1      -3.977  -1.169  -0.615  0.00  0.00    -0.274 OA
ATOM     25  H   UNL     1      -1.626   0.359  -1.903  0.00  0.00    +0.149 HD
BRANCH  22  26
ATOM     26  C   UNL     1      -1.426  -0.554   0.003  0.00  0.00    +0.107 C 
BRANCH  26  28
ATOM     27  C   UNL     1      -0.014   1.507   0.013  0.00  0.00    +0.009 C 
ATOM     28  C   UNL     1       0.008  -0.023  -0.006  0.00  0.00    -0.000 C 
ATOM     29  C   UNL     1       0.751  -0.537   1.228  0.00  0.00    +0.009 C 
ENDBRANCH  26  28
ENDBRANCH  22  26
ENDBRANCH  21  23
ENDBRANCH   1  21
TORSDOF 9
