REMARK  Name = ZINC44728080
REMARK  4 active torsions:
REMARK  status: ('A' for Active; 'I' for Inactive)
REMARK    1  A    between atoms: C_1  and  C_2
REMARK    2  A    between atoms: C_4  and  C_7
REMARK    3  A    between atoms: C_7  and  N_8
REMARK    4  A    between atoms: C_12  and  C_15
REMARK                            x       y       z     vdW  Elec       q    Type
REMARK                         _______ _______ _______ _____ _____    ______ ____
ROOT
ATOM      1  N   UNL     1      -1.691  -3.832  -1.387  0.00  0.00    -0.322 N 
ATOM      2  C   UNL     1      -2.462  -4.952  -1.642  0.00  0.00    +0.138 A 
ATOM      3  C   UNL     1      -2.634  -5.385  -2.957  0.00  0.00    +0.081 A 
ATOM      4  C   UNL     1      -3.397  -6.494  -3.205  0.00  0.00    +0.040 A 
ATOM      5  C   UNL     1      -3.984  -7.160  -2.116  0.00  0.00    +0.083 A 
ATOM      6  C   UNL     1      -3.769  -6.670  -0.825  0.00  0.00    +0.128 A 
ATOM      7  N   UNL     1      -3.023  -5.603  -0.631  0.00  0.00    -0.238 NA
ATOM      8 CL   UNL     1      -1.886  -4.525  -4.267  0.00  0.00    -0.080 Cl
ATOM      9  H   UNL     1      -1.278  -3.351  -2.121  0.00  0.00    +0.148 HD
ENDROOT
BRANCH   5  10
ATOM     10  C   UNL     1      -4.814  -8.356  -2.331  0.00  0.00    +0.388 C 
ATOM     11  O   UNL     1      -4.997  -8.778  -3.465  0.00  0.00    -0.241 OA
ATOM     12  O   UNL     1      -5.321  -8.929  -1.377  0.00  0.00    -0.241 OA
ENDBRANCH   5  10
BRANCH   1  13
ATOM     13  C   UNL     1      -1.500  -3.372  -0.010  0.00  0.00    +0.162 C 
BRANCH  13  17
ATOM     14  C   UNL     1      -0.018   1.503   0.010  0.00  0.00    +0.089 C 
ATOM     15  C   UNL     1       0.002  -0.004   0.002  0.00  0.00    +0.135 A 
ATOM     16  C   UNL     1      -1.077  -0.810   0.003  0.00  0.00    +0.072 A 
ATOM     17  C   UNL     1      -0.627  -2.143  -0.007  0.00  0.00    +0.101 A 
ATOM     18  N   UNL     1       0.676  -2.130  -0.013  0.00  0.00    -0.081 NA
ATOM     19  O   UNL     1       1.098  -0.778  -0.013  0.00  0.00    -0.360 OA
ENDBRANCH  13  17
ENDBRANCH   1  13
TORSDOF 3
