REMARK  Name = ZINC67128759
REMARK  8 active torsions:
REMARK  status: ('A' for Active; 'I' for Inactive)
REMARK    1  A    between atoms: C_1  and  N_2
REMARK    2  A    between atoms: N_2  and  C_3
REMARK    3  A    between atoms: C_3  and  C_4
REMARK    4  A    between atoms: C_3  and  C_10
REMARK    5  A    between atoms: C_16  and  C_18
REMARK    6  A    between atoms: C_18  and  N_19
REMARK    7  A    between atoms: C_21  and  O_29
REMARK    8  A    between atoms: C_24  and  C_26
REMARK                            x       y       z     vdW  Elec       q    Type
REMARK                         _______ _______ _______ _____ _____    ______ ____
ROOT
ATOM      1  C   UNL     1      -0.671   1.294  -0.021  0.00  0.00    +0.133 C 
ATOM      2  N   UNL     1      -0.213  -0.097  -0.008  0.00  0.00    -0.295 N 
ATOM      3  C   UNL     1      -0.110  -0.784  -1.163  0.00  0.00    +0.200 C 
ATOM      4  O   UNL     1       0.270  -1.936  -1.152  0.00  0.00    -0.278 OA
ENDROOT
BRANCH   2   5
ATOM      5  C   UNL     1       0.135  -0.742   1.261  0.00  0.00    +0.136 C 
BRANCH   5   6
ATOM      6  C   UNL     1       1.601  -1.092   1.262  0.00  0.00    -0.023 A 
ATOM      7  C   UNL     1       2.530  -0.176   0.805  0.00  0.00    +0.006 A 
ATOM      8  C   UNL     1       3.874  -0.497   0.806  0.00  0.00    +0.000 A 
ATOM      9  C   UNL     1       4.290  -1.733   1.264  0.00  0.00    +0.000 A 
ATOM     10  C   UNL     1       3.360  -2.648   1.722  0.00  0.00    +0.000 A 
ATOM     11  C   UNL     1       2.016  -2.326   1.725  0.00  0.00    +0.006 A 
ENDBRANCH   5   6
BRANCH   5  12
ATOM     12  C   UNL     1      -0.158   0.201   2.400  0.00  0.00    -0.023 A 
ATOM     13  C   UNL     1       0.419   1.457   2.423  0.00  0.00    +0.006 A 
ATOM     14  C   UNL     1       0.151   2.322   3.467  0.00  0.00    +0.000 A 
ATOM     15  C   UNL     1      -0.694   1.931   4.489  0.00  0.00    +0.000 A 
ATOM     16  C   UNL     1      -1.272   0.675   4.465  0.00  0.00    +0.000 A 
ATOM     17  C   UNL     1      -1.007  -0.188   3.418  0.00  0.00    +0.006 A 
ENDBRANCH   5  12
ENDBRANCH   2   5
BRANCH   3  18
ATOM     18  C   UNL     1      -0.467  -0.121  -2.469  0.00  0.00    +0.020 C 
BRANCH  18  19
ATOM     19  N   UNL     1      -0.272  -1.072  -3.571  0.00  0.00    +0.395 N 
ATOM     20  C   UNL     1      -1.279  -2.161  -3.492  0.00  0.00    -0.045 C 
ATOM     21  C   UNL     1      -1.319  -2.712  -4.939  0.00  0.00    +0.097 C 
ATOM     22  C   UNL     1      -1.164  -1.437  -5.799  0.00  0.00    +0.023 C 
ATOM     23  C   UNL     1      -0.502  -0.403  -4.869  0.00  0.00    +0.022 C 
ATOM     24  H   UNL     1       0.661  -1.457  -3.538  0.00  0.00    -0.080 HD
BRANCH  23  25
ATOM     25  C   UNL     1       0.811   0.048  -5.455  0.00  0.00    +0.197 C 
ATOM     26  O   UNL     1       1.845  -0.162  -4.857  0.00  0.00    -0.278 OA
ATOM     27  N   UNL     1       0.836   0.685  -6.642  0.00  0.00    -0.331 N 
ATOM     28  H   UNL     1       0.009   0.853  -7.120  0.00  0.00    +0.145 HD
ATOM     29  H   UNL     1       1.682   0.975  -7.019  0.00  0.00    +0.145 HD
ENDBRANCH  23  25
BRANCH  21  30
ATOM     30  O   UNL     1      -2.569  -3.354  -5.202  0.00  0.00    -0.394 OA
ATOM     31  H   UNL     1      -2.645  -3.716  -6.095  0.00  0.00    +0.210 HD
ENDBRANCH  21  30
ENDBRANCH  18  19
ENDBRANCH   3  18
TORSDOF 7
