REMARK  Name = ZINC66759710
REMARK  7 active torsions:
REMARK  status: ('A' for Active; 'I' for Inactive)
REMARK    1  A    between atoms: C_1  and  C_2
REMARK    2  A    between atoms: C_2  and  C_28
REMARK    3  A    between atoms: C_5  and  C_22
REMARK    4  A    between atoms: C_9  and  C_11
REMARK    5  A    between atoms: C_11  and  N_12
REMARK    6  A    between atoms: N_15  and  C_16
REMARK    7  A    between atoms: C_16  and  C_17
REMARK                            x       y       z     vdW  Elec       q    Type
REMARK                         _______ _______ _______ _____ _____    ______ ____
ROOT
ATOM      1  C   UNL     1      -0.027   1.526   0.018  0.00  0.00    +0.034 C 
ATOM      2  C   UNL     1      -0.002  -0.003   0.006  0.00  0.00    +0.055 C 
ATOM      3  C   UNL     1      -1.427  -0.544   0.172  0.00  0.00    +0.186 C 
ATOM      4  O   UNL     1      -1.375  -1.962   0.345  0.00  0.00    -0.368 OA
ATOM      5  C   UNL     1      -0.676  -2.383   1.519  0.00  0.00    +0.166 C 
ATOM      6  C   UNL     1       0.787  -1.936   1.422  0.00  0.00    +0.144 C 
ATOM      7  N   UNL     1       0.814  -0.495   1.127  0.00  0.00    -0.290 N 
ATOM      8  C   UNL     1       1.565   0.350   1.861  0.00  0.00    +0.233 C 
ATOM      9  O   UNL     1       1.508   1.544   1.658  0.00  0.00    -0.274 OA
ATOM     10  C   UNL     1       0.587  -0.498  -1.317  0.00  0.00    +0.034 C 
ENDROOT
BRANCH   5  11
ATOM     11  C   UNL     1      -0.739  -3.884   1.631  0.00  0.00    -0.017 A 
ATOM     12  C   UNL     1      -0.602  -4.668   0.501  0.00  0.00    +0.006 A 
ATOM     13  C   UNL     1      -0.659  -6.045   0.604  0.00  0.00    +0.000 A 
ATOM     14  C   UNL     1      -0.854  -6.639   1.838  0.00  0.00    +0.000 A 
ATOM     15  C   UNL     1      -0.990  -5.855   2.968  0.00  0.00    +0.000 A 
ATOM     16  C   UNL     1      -0.928  -4.478   2.866  0.00  0.00    +0.006 A 
ENDBRANCH   5  11
BRANCH   8  17
ATOM     17  C   UNL     1       2.474  -0.189   2.935  0.00  0.00    +0.201 C 
BRANCH  17  18
ATOM     18  N   UNL     1       3.176   0.921   3.584  0.00  0.00    -0.291 N 
ATOM     19  C   UNL     1       4.048   0.676   4.582  0.00  0.00    +0.300 C 
ATOM     20  O   UNL     1       4.253  -0.467   4.943  0.00  0.00    -0.253 OA
ATOM     21  N   UNL     1       4.693   1.697   5.179  0.00  0.00    -0.292 N 
ATOM     22  H   UNL     1       3.012   1.833   3.296  0.00  0.00    +0.151 HD
ATOM     23  H   UNL     1       4.530   2.609   4.891  0.00  0.00    +0.151 HD
BRANCH  21  24
ATOM     24  C   UNL     1       5.641   1.431   6.263  0.00  0.00    +0.180 C 
BRANCH  24  25
ATOM     25  C   UNL     1       6.221   2.732   6.755  0.00  0.00    +0.122 A 
ATOM     26  C   UNL     1       5.718   3.494   7.743  0.00  0.00    +0.046 A 
ATOM     27  C   UNL     1       6.572   4.614   7.871  0.00  0.00    +0.041 A 
ATOM     28  C   UNL     1       7.545   4.470   6.954  0.00  0.00    +0.195 A 
ATOM     29  O   UNL     1       7.331   3.325   6.285  0.00  0.00    -0.466 OA
ENDBRANCH  24  25
ENDBRANCH  21  24
ENDBRANCH  17  18
ENDBRANCH   8  17
TORSDOF 5
