REMARK  Name = ZINC62833698
REMARK  6 active torsions:
REMARK  status: ('A' for Active; 'I' for Inactive)
REMARK    1  A    between atoms: C_1  and  N_2
REMARK    2  A    between atoms: C_3  and  C_5
REMARK    3  A    between atoms: C_5  and  N_6
REMARK    4  A    between atoms: N_6  and  C_7
REMARK    5  A    between atoms: C_8  and  C_10
REMARK    6  A    between atoms: C_16  and  N_20
REMARK                            x       y       z     vdW  Elec       q    Type
REMARK                         _______ _______ _______ _____ _____    ______ ____
ROOT
ATOM      1  C   UNL     1      -4.315  -4.082   1.150  0.00  0.00    +0.103 A 
ATOM      2  C   UNL     1      -5.020  -4.526   2.223  0.00  0.00    +0.041 A 
ATOM      3  C   UNL     1      -6.075  -5.337   1.740  0.00  0.00    +0.002 A 
ATOM      4  C   UNL     1      -7.105  -6.052   2.369  0.00  0.00    +0.010 A 
ATOM      5  C   UNL     1      -7.997  -6.762   1.621  0.00  0.00    +0.002 A 
ATOM      6  C   UNL     1      -7.899  -6.788   0.235  0.00  0.00    +0.025 A 
ATOM      7  C   UNL     1      -6.893  -6.092  -0.411  0.00  0.00    +0.049 A 
ATOM      8  C   UNL     1      -5.968  -5.357   0.338  0.00  0.00    +0.068 A 
ATOM      9  N   UNL     1      -4.887  -4.578  -0.004  0.00  0.00    -0.349 N 
ATOM     10  H   UNL     1      -4.576  -4.407  -0.907  0.00  0.00    +0.166 HD
ENDROOT
BRANCH   1  13
ATOM     11  N   UNL     1      -2.618  -2.694   0.074  0.00  0.00    -0.291 N 
ATOM     12  C   UNL     1      -3.311  -2.894  -1.201  0.00  0.00    +0.133 C 
ATOM     13  C   UNL     1      -3.134  -3.207   1.209  0.00  0.00    +0.263 C 
ATOM     14  O   UNL     1      -2.623  -2.946   2.281  0.00  0.00    -0.268 OA
BRANCH  11  15
ATOM     15  C   UNL     1      -1.365  -1.937   0.116  0.00  0.00    +0.203 C 
BRANCH  15  18
ATOM     16  C   UNL     1      -0.954   1.834   0.631  0.00  0.00    +0.128 C 
ATOM     17  N   UNL     1      -0.660   0.415   0.414  0.00  0.00    -0.317 N 
ATOM     18  C   UNL     1      -1.667  -0.477   0.340  0.00  0.00    +0.230 C 
ATOM     19  O   UNL     1      -2.816  -0.106   0.453  0.00  0.00    -0.274 OA
ATOM     20  H   UNL     1       0.259   0.119   0.323  0.00  0.00    +0.148 HD
ENDBRANCH  15  18
ENDBRANCH  11  15
ENDBRANCH   1  13
BRANCH   7  21
ATOM     21  N   UNL     1      -6.801  -6.125  -1.806  0.00  0.00    -0.356 N 
ATOM     22  H   UNL     1      -7.443  -6.636  -2.323  0.00  0.00    +0.142 HD
ATOM     23  H   UNL     1      -6.094  -5.636  -2.256  0.00  0.00    +0.142 HD
ENDBRANCH   7  21
TORSDOF 4
