REMARK  Name = ZINC44737505
REMARK  7 active torsions:
REMARK  status: ('A' for Active; 'I' for Inactive)
REMARK    1  A    between atoms: C_1  and  C_2
REMARK    2  A    between atoms: C_9  and  C_11
REMARK    3  A    between atoms: C_11  and  C_13
REMARK    4  A    between atoms: C_11  and  N_14
REMARK    5  A    between atoms: C_15  and  C_17
REMARK    6  A    between atoms: C_28  and  C_30
REMARK    7  A    between atoms: C_33  and  C_35
REMARK                            x       y       z     vdW  Elec       q    Type
REMARK                         _______ _______ _______ _____ _____    ______ ____
ROOT
ATOM      1  C   UNL     1       1.878  -8.733   0.984  0.00  0.00    +0.100 C 
ATOM      2  C   UNL     1       2.964  -8.094   0.090  0.00  0.00    +0.121 C 
ATOM      3  N   UNL     1       4.235  -8.340   0.812  0.00  0.00    -0.294 N 
ATOM      4  C   UNL     1       4.091  -9.712   1.354  0.00  0.00    +0.115 C 
ATOM      5  C   UNL     1       2.621  -9.797   1.809  0.00  0.00    -0.004 C 
ATOM      6  C   UNL     1       2.512  -9.482   3.298  0.00  0.00    -0.010 C 
ATOM      7  C   UNL     1       3.210 -10.584   4.101  0.00  0.00    -0.082 C 
ATOM      8  N   UNL     1       2.583 -11.878   3.806  0.00  0.00    +0.379 N 
ATOM      9  C   UNL     1       2.773 -12.217   2.391  0.00  0.00    -0.082 C 
ATOM     10  C   UNL     1       2.057 -11.184   1.516  0.00  0.00    -0.010 C 
ATOM     11  C   UNL     1       5.284  -7.504   0.945  0.00  0.00    +0.282 C 
ATOM     12  O   UNL     1       6.266  -7.855   1.574  0.00  0.00    -0.267 OA
ATOM     13  H   UNL     1       3.003 -12.593   4.381  0.00  0.00    -0.086 HD
ATOM     14  H   UNL     1       1.595 -11.826   4.008  0.00  0.00    -0.086 HD
ENDROOT
BRANCH  11  15
ATOM     15  C   UNL     1       5.243  -6.174   0.334  0.00  0.00    +0.190 A 
ATOM     16  C   UNL     1       6.243  -5.228   0.387  0.00  0.00    +0.055 A 
ATOM     17  C   UNL     1       5.785  -4.115  -0.326  0.00  0.00    +0.051 A 
ATOM     18  C   UNL     1       4.535  -4.419  -0.784  0.00  0.00    +0.139 A 
ATOM     19  O   UNL     1       4.221  -5.663  -0.386  0.00  0.00    -0.450 OA
BRANCH  18  20
ATOM     20  C   UNL     1       3.674  -3.530  -1.589  0.00  0.00    +0.052 A 
ATOM     21  C   UNL     1       3.451  -2.213  -1.183  0.00  0.00    +0.014 A 
ATOM     22  C   UNL     1       2.646  -1.388  -1.940  0.00  0.00    +0.001 A 
ATOM     23  C   UNL     1       2.058  -1.861  -3.100  0.00  0.00    +0.003 A 
ATOM     24  C   UNL     1       2.273  -3.164  -3.510  0.00  0.00    +0.039 A 
ATOM     25  C   UNL     1       3.083  -4.002  -2.766  0.00  0.00    +0.134 A 
ATOM     26  F   UNL     1       3.298  -5.272  -3.170  0.00  0.00    -0.205 F 
ENDBRANCH  18  20
ENDBRANCH  11  15
BRANCH   1  28
ATOM     27  N   UNL     1      -0.004  -7.836   2.315  0.00  0.00    -0.305 N 
ATOM     28  C   UNL     1       1.268  -7.697   1.892  0.00  0.00    +0.219 C 
ATOM     29  O   UNL     1       1.922  -6.737   2.242  0.00  0.00    -0.275 OA
ATOM     30  H   UNL     1      -0.527  -8.603   2.035  0.00  0.00    +0.149 HD
BRANCH  27  31
ATOM     31  C   UNL     1      -0.597  -6.828   3.197  0.00  0.00    +0.136 C 
ATOM     32  C   UNL     1      -0.235  -7.145   4.649  0.00  0.00    +0.036 C 
BRANCH  31  41
ATOM     33  C   UNL     1      -7.933  -5.625   2.834  0.00  0.00    +0.044 C 
ATOM     34  C   UNL     1      -6.582  -6.290   2.757  0.00  0.00    -0.048 A 
ATOM     35  C   UNL     1      -6.486  -7.609   2.339  0.00  0.00    +0.005 A 
ATOM     36  C   UNL     1      -5.272  -8.230   2.262  0.00  0.00    +0.030 A 
ATOM     37  C   UNL     1      -4.111  -7.533   2.608  0.00  0.00    +0.089 A 
ATOM     38  C   UNL     1      -4.207  -6.197   3.031  0.00  0.00    +0.067 A 
ATOM     39  C   UNL     1      -5.450  -5.581   3.098  0.00  0.00    +0.031 A 
ATOM     40  N   UNL     1      -2.916  -5.787   3.297  0.00  0.00    -0.340 N 
ATOM     41  C   UNL     1      -2.096  -6.841   3.039  0.00  0.00    +0.128 A 
ATOM     42  N   UNL     1      -2.794  -7.862   2.636  0.00  0.00    -0.231 NA
ATOM     43  H   UNL     1      -2.644  -4.910   3.609  0.00  0.00    +0.167 HD
ENDBRANCH  31  41
ENDBRANCH  27  31
ENDBRANCH   1  28
TORSDOF 5
