REMARK  Name = ZINC42414149
REMARK  3 active torsions:
REMARK  status: ('A' for Active; 'I' for Inactive)
REMARK    1  A    between atoms: C_1  and  C_2
REMARK    2  A    between atoms: C_5  and  C_9
REMARK    3  A    between atoms: C_10  and  C_11
REMARK                            x       y       z     vdW  Elec       q    Type
REMARK                         _______ _______ _______ _____ _____    ______ ____
ROOT
ATOM      1  C   UNL     1       0.058  -4.247  -0.023  0.00  0.00    +0.013 C 
ATOM      2  C   UNL     1       0.073  -4.928   1.141  0.00  0.00    +0.068 C 
ENDROOT
BRANCH   2   3
ATOM      3  C   UNL     1       0.092  -6.392   1.131  0.00  0.00    +0.242 C 
ATOM      4  O   UNL     1       0.094  -6.994   0.074  0.00  0.00    -0.270 OA
ATOM      5  N   UNL     1       0.107  -7.073   2.295  0.00  0.00    -0.265 N 
ATOM      6  C   UNL     1       0.125  -8.473   2.286  0.00  0.00    +0.147 A 
ATOM      7  C   UNL     1       0.135  -9.291   1.144  0.00  0.00    +0.064 A 
ATOM      8  C   UNL     1       0.152 -10.579   1.557  0.00  0.00    +0.107 A 
ATOM      9  N   UNL     1       0.152 -10.581   2.906  0.00  0.00    -0.283 N 
ATOM     10  H   UNL     1       0.162 -11.367   3.474  0.00  0.00    +0.188 HD
ATOM     11  N   UNL     1       0.141  -9.250   3.343  0.00  0.00    -0.159 NA
ATOM     12  H   UNL     1       0.105  -6.593   3.138  0.00  0.00    +0.157 HD
ENDBRANCH   2   3
BRANCH   1  17
ATOM     13  C   UNL     1      -0.018   1.503   0.010  0.00  0.00    +0.045 C 
ATOM     14  C   UNL     1       0.002  -0.004   0.002  0.00  0.00    -0.032 A 
ATOM     15  C   UNL     1       0.006  -0.686  -1.202  0.00  0.00    +0.005 A 
ATOM     16  C   UNL     1       0.024  -2.064  -1.218  0.00  0.00    +0.008 A 
ATOM     17  C   UNL     1       0.039  -2.775  -0.014  0.00  0.00    -0.023 A 
ATOM     18  C   UNL     1       0.036  -2.080   1.200  0.00  0.00    +0.028 A 
ATOM     19  C   UNL     1       0.023  -0.699   1.200  0.00  0.00    +0.044 A 
ATOM     20 CL   UNL     1       0.026   0.167   2.704  0.00  0.00    -0.083 Cl
ENDBRANCH   1  17
TORSDOF 2
