REMARK  Name = ZINC66402959
REMARK  8 active torsions:
REMARK  status: ('A' for Active; 'I' for Inactive)
REMARK    1  A    between atoms: C_1  and  N_2
REMARK    2  A    between atoms: N_2  and  C_3
REMARK    3  A    between atoms: N_2  and  C_4
REMARK    4  A    between atoms: C_4  and  C_6
REMARK    5  A    between atoms: C_4  and  C_23
REMARK    6  A    between atoms: C_6  and  N_7
REMARK    7  A    between atoms: N_10  and  C_11
REMARK    8  A    between atoms: C_13  and  C_19
REMARK                            x       y       z     vdW  Elec       q    Type
REMARK                         _______ _______ _______ _____ _____    ______ ____
ROOT
ATOM      1  N   UNL     1      -1.881   1.582  -1.061  0.00  0.00    -0.300 N 
ATOM      2  C   UNL     1      -2.382   2.302  -2.084  0.00  0.00    +0.304 C 
ATOM      3  O   UNL     1      -3.175   1.795  -2.854  0.00  0.00    -0.253 OA
ATOM      4  N   UNL     1      -2.004   3.585  -2.254  0.00  0.00    -0.265 N 
ATOM      5  H   UNL     1      -1.249   1.987  -0.447  0.00  0.00    +0.150 HD
ATOM      6  H   UNL     1      -1.318   3.967  -1.685  0.00  0.00    +0.157 HD
ENDROOT
BRANCH   4   7
ATOM      7  C   UNL     1      -2.603   4.365  -3.253  0.00  0.00    +0.100 A 
ATOM      8  C   UNL     1      -3.246   5.529  -2.930  0.00  0.00    +0.042 A 
ATOM      9  C   UNL     1      -3.836   6.291  -3.948  0.00  0.00    +0.073 A 
ATOM     10  C   UNL     1      -3.765   5.874  -5.233  0.00  0.00    +0.098 A 
ATOM     11  N   UNL     1      -3.127   4.718  -5.556  0.00  0.00    -0.327 N 
ATOM     12  H   UNL     1      -3.087   4.435  -6.483  0.00  0.00    +0.168 HD
ATOM     13  C   UNL     1      -2.544   3.963  -4.605  0.00  0.00    +0.270 A 
ATOM     14  O   UNL     1      -1.970   2.931  -4.911  0.00  0.00    -0.266 OA
BRANCH   9  15
ATOM     15  C   UNL     1      -4.549   7.575  -3.611  0.00  0.00    +0.419 C 
ATOM     16  F   UNL     1      -5.050   8.152  -4.783  0.00  0.00    -0.166 F 
ATOM     17  F   UNL     1      -5.606   7.306  -2.735  0.00  0.00    -0.166 F 
ATOM     18  F   UNL     1      -3.652   8.460  -3.002  0.00  0.00    -0.166 F 
ENDBRANCH   9  15
ENDBRANCH   4   7
BRANCH   1  19
ATOM     19  C   UNL     1      -2.292   0.188  -0.876  0.00  0.00    +0.095 C 
BRANCH  19  20
ATOM     20  C   UNL     1      -1.493  -0.432   0.272  0.00  0.00    -0.021 C 
BRANCH  20  21
ATOM     21  C   UNL     1      -1.806   0.298   1.553  0.00  0.00    -0.057 A 
ATOM     22  C   UNL     1      -2.963   0.002   2.251  0.00  0.00    +0.002 A 
ATOM     23  C   UNL     1      -3.252   0.670   3.426  0.00  0.00    +0.003 A 
ATOM     24  C   UNL     1      -2.385   1.635   3.904  0.00  0.00    +0.038 A 
ATOM     25  C   UNL     1      -1.227   1.932   3.206  0.00  0.00    +0.124 A 
ATOM     26  C   UNL     1      -0.935   1.257   2.032  0.00  0.00    +0.040 A 
ATOM     27  F   UNL     1      -0.379   2.875   3.672  0.00  0.00    -0.205 F 
ENDBRANCH  20  21
BRANCH  20  29
ATOM     28  C   UNL     1      -1.468  -2.577  -0.802  0.00  0.00    -0.096 C 
ATOM     29  N   UNL     1      -1.856  -1.848   0.413  0.00  0.00    +0.382 N 
ATOM     30  C   UNL     1      -1.157  -2.420   1.572  0.00  0.00    -0.096 C 
ATOM     31  H   UNL     1      -2.853  -1.927   0.549  0.00  0.00    -0.082 HD
ENDBRANCH  20  29
ENDBRANCH  19  20
ENDBRANCH   1  19
TORSDOF 6
