REMARK  Name = ZINC58948544
REMARK  11 active torsions:
REMARK  status: ('A' for Active; 'I' for Inactive)
REMARK    1  A    between atoms: C_1  and  C_2
REMARK    2  A    between atoms: C_2  and  O_3
REMARK    3  A    between atoms: O_3  and  C_4
REMARK    4  A    between atoms: C_4  and  C_6
REMARK    5  A    between atoms: C_7  and  C_26
REMARK    6  A    between atoms: C_9  and  N_25
REMARK    7  A    between atoms: C_10  and  C_22
REMARK    8  A    between atoms: C_11  and  C_13
REMARK    9  A    between atoms: C_16  and  N_19
REMARK   10  A    between atoms: N_19  and  C_20
REMARK   11  A    between atoms: N_19  and  C_21
REMARK                            x       y       z     vdW  Elec       q    Type
REMARK                         _______ _______ _______ _____ _____    ______ ____
ROOT
ATOM      1  C   UNL     1      -2.792  -2.421   0.113  0.00  0.00    +0.086 C 
ATOM      2  C   UNL     1      -2.952  -3.731  -0.117  0.00  0.00    +0.115 C 
ATOM      3  O   UNL     1      -4.168  -4.292  -0.211  0.00  0.00    -0.446 OA
ATOM      4  C   UNL     1      -5.242  -3.652   0.282  0.00  0.00    +0.193 C 
ATOM      5  C   UNL     1      -5.217  -2.320   0.539  0.00  0.00    +0.083 C 
ATOM      6  C   UNL     1      -3.977  -1.510   0.282  0.00  0.00    +0.099 C 
ATOM      7  C   UNL     1      -1.731  -4.599  -0.273  0.00  0.00    +0.087 C 
ENDROOT
BRANCH   6   8
ATOM      8  C   UNL     1      -4.167  -0.697  -0.973  0.00  0.00    -0.035 A 
ATOM      9  C   UNL     1      -4.408  -1.334  -2.177  0.00  0.00    +0.006 A 
ATOM     10  C   UNL     1      -4.583  -0.592  -3.329  0.00  0.00    +0.023 A 
ATOM     11  C   UNL     1      -4.516   0.794  -3.277  0.00  0.00    +0.029 A 
ATOM     12  C   UNL     1      -4.274   1.431  -2.066  0.00  0.00    +0.023 A 
ATOM     13  C   UNL     1      -4.106   0.683  -0.917  0.00  0.00    +0.006 A 
BRANCH  11  14
ATOM     14  N   UNL     1      -4.692   1.548  -4.440  0.00  0.00    -0.336 N 
ATOM     15  C   UNL     1      -4.947   0.875  -5.716  0.00  0.00    +0.129 C 
ATOM     16  C   UNL     1      -4.622   3.010  -4.384  0.00  0.00    +0.129 C 
ENDBRANCH  11  14
ENDBRANCH   6   8
BRANCH   5  17
ATOM     17  C   UNL     1      -6.363  -1.690   1.055  0.00  0.00    +0.243 C 
ATOM     18  O   UNL     1      -6.425  -1.414   2.240  0.00  0.00    -0.271 OA
ATOM     19  N   UNL     1      -7.394  -1.391   0.239  0.00  0.00    -0.325 N 
ATOM     20  H   UNL     1      -7.344  -1.611  -0.705  0.00  0.00    +0.145 HD
ATOM     21  H   UNL     1      -8.184  -0.957   0.595  0.00  0.00    +0.145 HD
ENDBRANCH   5  17
BRANCH   4  22
ATOM     22  N   UNL     1      -6.388  -4.361   0.532  0.00  0.00    -0.329 N 
ATOM     23  H   UNL     1      -6.394  -5.325   0.427  0.00  0.00    +0.145 HD
ATOM     24  H   UNL     1      -7.193  -3.898   0.814  0.00  0.00    +0.145 HD
ENDBRANCH   4  22
BRANCH   1  25
ATOM     25  C   UNL     1      -1.484  -1.885   0.203  0.00  0.00    +0.339 C 
ATOM     26  O   UNL     1      -0.985  -1.679   1.293  0.00  0.00    -0.245 OA
BRANCH  25  27
ATOM     27  O   UNL     1      -0.792  -1.603  -0.921  0.00  0.00    -0.462 OA
BRANCH  27  29
ATOM     28  C   UNL     1       1.145  -0.811  -2.129  0.00  0.00    +0.048 C 
ATOM     29  C   UNL     1       0.521  -1.064  -0.755  0.00  0.00    +0.229 C 
ENDBRANCH  27  29
ENDBRANCH  25  27
ENDBRANCH   1  25
TORSDOF 7
