REMARK  Name = ZINC08868742
REMARK  9 active torsions:
REMARK  status: ('A' for Active; 'I' for Inactive)
REMARK    1  A    between atoms: C_1  and  C_2
REMARK    2  A    between atoms: C_5  and  S_8
REMARK    3  A    between atoms: S_8  and  N_11
REMARK    4  A    between atoms: C_15  and  C_17
REMARK    5  A    between atoms: N_19  and  C_20
REMARK    6  A    between atoms: C_21  and  C_31
REMARK    7  A    between atoms: C_28  and  C_29
REMARK    8  A    between atoms: C_28  and  C_30
REMARK    9  A    between atoms: C_28  and  N_63
REMARK                            x       y       z     vdW  Elec       q    Type
REMARK                         _______ _______ _______ _____ _____    ______ ____
ROOT
ATOM      1  C   UNL     1      -2.301   1.836   8.096  0.00  0.00    +0.236 C 
ATOM      2  O   UNL     1      -1.234   1.484   7.640  0.00  0.00    -0.274 OA
ATOM      3  N   UNL     1      -3.389   1.886   7.302  0.00  0.00    -0.278 N 
ATOM      4  H   UNL     1      -4.243   2.167   7.667  0.00  0.00    +0.155 HD
ENDROOT
BRANCH   3   5
ATOM      5  C   UNL     1      -3.288   1.535   5.965  0.00  0.00    +0.084 A 
ATOM      6  C   UNL     1      -4.286   1.522   4.998  0.00  0.00    +0.068 A 
ATOM      7  C   UNL     1      -3.913   1.110   3.658  0.00  0.00    -0.027 A 
ATOM      8  C   UNL     1      -2.612   0.777   3.497  0.00  0.00    -0.021 A 
ATOM      9  S   UNL     1      -1.886   1.006   5.093  0.00  0.00    -0.079 S 
ATOM     10  C   UNL     1      -1.964   0.318   2.228  0.00  0.00    -0.035 C 
ATOM     11  C   UNL     1      -4.045   0.998   1.190  0.00  0.00    -0.073 C 
ATOM     12  C   UNL     1      -4.873   1.038   2.477  0.00  0.00    +0.018 C 
ATOM     13  N   UNL     1      -3.039  -0.080   1.287  0.00  0.00    +0.384 N 
ATOM     14  H   UNL     1      -3.494  -0.930   1.639  0.00  0.00    -0.081 HD
BRANCH   6  15
ATOM     15  C   UNL     1      -5.662   1.909   5.321  0.00  0.00    +0.244 C 
ATOM     16  O   UNL     1      -6.458   1.070   5.699  0.00  0.00    -0.270 OA
ATOM     17  N   UNL     1      -6.047   3.195   5.197  0.00  0.00    -0.325 N 
ATOM     18  H   UNL     1      -5.413   3.864   4.895  0.00  0.00    +0.145 HD
ATOM     19  H   UNL     1      -6.958   3.452   5.410  0.00  0.00    +0.145 HD
ENDBRANCH   6  15
BRANCH  13  20
ATOM     20  C   UNL     1      -2.466  -0.359  -0.047  0.00  0.00    -0.074 C 
ATOM     21  C   UNL     1      -1.412  -1.460   0.084  0.00  0.00    -0.014 C 
ATOM     22  C   UNL     1      -1.817   0.901  -0.625  0.00  0.00    -0.014 C 
ENDBRANCH  13  20
ENDBRANCH   3   5
BRANCH   1  27
ATOM     23  N   UNL     1      -1.532   1.366  10.371  0.00  0.00    -0.165 NA
ATOM     24  C   UNL     1      -0.957   2.187  11.450  0.00  0.00    +0.110 C 
ATOM     25  C   UNL     1      -1.493   3.622  11.269  0.00  0.00    +0.019 C 
ATOM     26  C   UNL     1      -1.888   3.660   9.769  0.00  0.00    +0.031 C 
ATOM     27  C   UNL     1      -2.411   2.218   9.550  0.00  0.00    +0.166 C 
BRANCH  23  28
ATOM     28  S   UNL     1      -1.240  -0.244  10.121  0.00  0.00    +0.062 S 
ATOM     29  O   UNL     1      -1.657  -0.531   8.793  0.00  0.00    -0.153 OA
ATOM     30  O   UNL     1       0.085  -0.492  10.573  0.00  0.00    -0.153 OA
BRANCH  28  35
ATOM     31  C   UNL     1      -4.918  -3.316  13.788  0.00  0.00    +0.044 C 
ATOM     32  C   UNL     1      -3.999  -2.549  12.871  0.00  0.00    -0.050 A 
ATOM     33  C   UNL     1      -4.452  -2.122  11.637  0.00  0.00    +0.005 A 
ATOM     34  C   UNL     1      -3.609  -1.419  10.797  0.00  0.00    +0.029 A 
ATOM     35  C   UNL     1      -2.313  -1.142  11.192  0.00  0.00    +0.106 A 
ATOM     36  C   UNL     1      -1.859  -1.573  12.424  0.00  0.00    +0.029 A 
ATOM     37  C   UNL     1      -2.703  -2.273  13.265  0.00  0.00    +0.005 A 
ENDBRANCH  28  35
ENDBRANCH  23  28
ENDBRANCH   1  27
TORSDOF 6
