REMARK  Name = ZINC00277075
REMARK  3 active torsions:
REMARK  status: ('A' for Active; 'I' for Inactive)
REMARK    1  A    between atoms: C_12  and  N_25
REMARK    2  A    between atoms: C_13  and  C_23
REMARK    3  A    between atoms: C_14  and  C_16
REMARK                            x       y       z     vdW  Elec       q    Type
REMARK                         _______ _______ _______ _____ _____    ______ ____
ROOT
ATOM      1  C   UNL     1      -1.198   1.744   0.017  0.00  0.00    +0.001 A 
ATOM      2  C   UNL     1      -1.236   3.137   0.030  0.00  0.00    +0.001 A 
ATOM      3  C   UNL     1      -0.089   3.870   0.023  0.00  0.00    +0.012 A 
ATOM      4  C   UNL     1       1.153   3.215   0.009  0.00  0.00    +0.025 A 
ATOM      5  C   UNL     1       1.193   1.799   0.000  0.00  0.00    -0.014 A 
ATOM      6  C   UNL     1      -0.013   1.076   0.008  0.00  0.00    +0.008 A 
ATOM      7  C   UNL     1       2.436   1.145  -0.015  0.00  0.00    +0.009 A 
ATOM      8  C   UNL     1       3.585   1.873  -0.020  0.00  0.00    +0.009 A 
ATOM      9  C   UNL     1       3.559   3.268  -0.010  0.00  0.00    +0.008 A 
ATOM     10  C   UNL     1       2.362   3.944   0.004  0.00  0.00    +0.142 A 
ATOM     11  O   UNL     1       2.322   5.298   0.013  0.00  0.00    -0.440 OA
ATOM     12  C   UNL     1       3.396   6.003  -0.381  0.00  0.00    +0.199 C 
ATOM     13  C   UNL     1       4.634   5.455  -0.416  0.00  0.00    +0.098 C 
ATOM     14  C   UNL     1       4.863   4.025  -0.015  0.00  0.00    +0.099 C 
ENDROOT
BRANCH  14  15
ATOM     15  C   UNL     1       5.465   3.988   1.366  0.00  0.00    -0.016 A 
ATOM     16  C   UNL     1       4.772   4.519   2.438  0.00  0.00    +0.006 A 
ATOM     17  C   UNL     1       5.325   4.486   3.704  0.00  0.00    +0.000 A 
ATOM     18  C   UNL     1       6.572   3.920   3.900  0.00  0.00    +0.001 A 
ATOM     19  C   UNL     1       7.266   3.389   2.829  0.00  0.00    +0.020 A 
ATOM     20  C   UNL     1       6.710   3.417   1.562  0.00  0.00    +0.045 A 
ATOM     21 CL   UNL     1       7.578   2.743   0.219  0.00  0.00    -0.083 Cl
ENDBRANCH  14  15
BRANCH  12  22
ATOM     22  N   UNL     1       3.234   7.314  -0.756  0.00  0.00    -0.328 N 
ATOM     23  H   UNL     1       4.001   7.835  -1.041  0.00  0.00    +0.145 HD
ATOM     24  H   UNL     1       2.353   7.719  -0.735  0.00  0.00    +0.145 HD
ENDBRANCH  12  22
BRANCH  13  25
ATOM     25  C   UNL     1       5.744   6.251  -0.843  0.00  0.00    +0.101 C 
ATOM     26  N   UNL     1       6.625   6.883  -1.182  0.00  0.00    -0.191 NA
ENDBRANCH  13  25
TORSDOF 3
