REMARK  Name = ZINC41497693
REMARK  3 active torsions:
REMARK  status: ('A' for Active; 'I' for Inactive)
REMARK    1  A    between atoms: C_9  and  O_11
REMARK    2  A    between atoms: O_11  and  C_12
REMARK    3  A    between atoms: C_12  and  C_13
REMARK                            x       y       z     vdW  Elec       q    Type
REMARK                         _______ _______ _______ _____ _____    ______ ____
ROOT
ATOM      1  O   UNL     1       1.181  -2.050  -0.021  0.00  0.00    -0.483 OA
ENDROOT
BRANCH   1  10
ATOM      2  C   UNL     1      -0.017   1.388   0.010  0.00  0.00    +0.004 A 
ATOM      3  C   UNL     1       1.142   2.104   0.003  0.00  0.00    +0.010 A 
ATOM      4  C   UNL     1       2.375   1.433  -0.013  0.00  0.00    +0.004 A 
ATOM      5  C   UNL     1       3.593   2.138  -0.020  0.00  0.00    +0.011 A 
ATOM      6  C   UNL     1       4.754   1.419  -0.035  0.00  0.00    +0.020 A 
ATOM      7  C   UNL     1       4.709   0.027  -0.042  0.00  0.00    +0.111 A 
ATOM      8  N   UNL     1       3.573  -0.627  -0.036  0.00  0.00    -0.251 NA
ATOM      9  C   UNL     1       2.402   0.017  -0.021  0.00  0.00    +0.112 A 
ATOM     10  C   UNL     1       1.182  -0.692  -0.013  0.00  0.00    +0.147 A 
ATOM     11  C   UNL     1       0.002  -0.004   0.002  0.00  0.00    +0.048 A 
ENDBRANCH   1  10
BRANCH   1  12
ATOM     12  C   UNL     1      -0.092  -2.698  -0.013  0.00  0.00    +0.292 C 
BRANCH  12  13
ATOM     13  C   UNL     1       0.104  -4.192  -0.023  0.00  0.00    +0.118 A 
ATOM     14  N   UNL     1       0.214  -5.005   1.001  0.00  0.00    -0.226 NA
ATOM     15  C   UNL     1       0.384  -6.309   0.842  0.00  0.00    +0.130 A 
ATOM     16  C   UNL     1       0.438  -6.732  -0.457  0.00  0.00    +0.031 A 
ATOM     17  S   UNL     1       0.228  -5.221  -1.353  0.00  0.00    -0.072 S 
ATOM     18  C   UNL     1       0.625  -8.129  -0.936  0.00  0.00    +0.047 C 
ATOM     19  C   UNL     1       1.171  -8.970   0.231  0.00  0.00    +0.024 C 
ATOM     20  C   UNL     1       0.345  -8.686   1.490  0.00  0.00    +0.103 C 
ATOM     21  N   UNL     1       0.508  -7.276   1.879  0.00  0.00    -0.328 N 
ATOM     22  H   UNL     1       0.691  -7.018   2.797  0.00  0.00    +0.147 HD
ENDBRANCH  12  13
ENDBRANCH   1  12
TORSDOF 3
