REMARK  Name = ZINC12756562
REMARK  8 active torsions:
REMARK  status: ('A' for Active; 'I' for Inactive)
REMARK    1  A    between atoms: C_1  and  C_2
REMARK    2  A    between atoms: C_2  and  C_3
REMARK    3  A    between atoms: C_10  and  C_12
REMARK    4  A    between atoms: N_14  and  N_15
REMARK    5  A    between atoms: C_16  and  C_18
REMARK    6  A    between atoms: C_21  and  C_32
REMARK    7  A    between atoms: C_22  and  N_24
REMARK    8  A    between atoms: C_25  and  C_27
REMARK                            x       y       z     vdW  Elec       q    Type
REMARK                         _______ _______ _______ _____ _____    ______ ____
ROOT
ATOM      1  N   UNL     1      -1.983   1.585  -7.244  0.00  0.00    -0.230 N 
ATOM      2  C   UNL     1      -1.432   0.781  -8.175  0.00  0.00    +0.260 C 
ATOM      3  O   UNL     1      -0.591  -0.035  -7.852  0.00  0.00    -0.269 OA
ATOM      4  H   UNL     1      -2.654   2.236  -7.502  0.00  0.00    +0.173 HD
ENDROOT
BRANCH   2   5
ATOM      5  C   UNL     1      -1.852   0.890  -9.589  0.00  0.00    +0.040 A 
ATOM      6  C   UNL     1      -2.818   1.826  -9.962  0.00  0.00    +0.013 A 
ATOM      7  C   UNL     1      -3.207   1.927 -11.282  0.00  0.00    +0.006 A 
ATOM      8  C   UNL     1      -2.643   1.104 -12.239  0.00  0.00    -0.029 A 
ATOM      9  C   UNL     1      -1.681   0.169 -11.877  0.00  0.00    +0.037 A 
ATOM     10  C   UNL     1      -1.279   0.063 -10.554  0.00  0.00    +0.036 A 
ATOM     11  C   UNL     1      -3.074   1.221 -13.678  0.00  0.00    +0.045 C 
BRANCH   9  12
ATOM     12  N   UNL     1      -1.114  -0.662 -12.849  0.00  0.00    -0.279 N 
ATOM     13  C   UNL     1      -0.589  -1.852 -12.495  0.00  0.00    +0.284 C 
ATOM     14  O   UNL     1      -0.699  -2.249 -11.350  0.00  0.00    -0.266 OA
ATOM     15  H   UNL     1      -1.097  -0.382 -13.777  0.00  0.00    +0.155 HD
BRANCH  13  16
ATOM     16  C   UNL     1       0.112  -2.669 -13.490  0.00  0.00    +0.189 A 
ATOM     17  C   UNL     1       0.687  -3.887 -13.267  0.00  0.00    +0.054 A 
ATOM     18  C   UNL     1       1.240  -4.302 -14.489  0.00  0.00    +0.042 A 
ATOM     19  C   UNL     1       0.982  -3.331 -15.392  0.00  0.00    +0.196 A 
ATOM     20  O   UNL     1       0.298  -2.351 -14.788  0.00  0.00    -0.458 OA
ENDBRANCH  13  16
ENDBRANCH   9  12
ENDBRANCH   2   5
BRANCH   1  23
ATOM     21  C   UNL     1      -2.136   2.286  -4.974  0.00  0.00    +0.267 C 
ATOM     22  O   UNL     1      -2.979   3.102  -5.297  0.00  0.00    -0.268 OA
ATOM     23  N   UNL     1      -1.585   1.481  -5.905  0.00  0.00    -0.230 N 
ATOM     24  H   UNL     1      -0.914   0.830  -5.647  0.00  0.00    +0.173 HD
BRANCH  21  31
ATOM     25  C   UNL     1      -0.918   3.118   1.093  0.00  0.00    -0.007 C 
ATOM     26  C   UNL     1      -0.639   1.621   1.254  0.00  0.00    +0.009 C 
ATOM     27  C   UNL     1       0.080   1.115  -0.004  0.00  0.00    +0.043 C 
ATOM     28  C   UNL     1      -0.661   1.615  -1.206  0.00  0.00    -0.006 A 
ATOM     29  C   UNL     1      -1.602   2.605  -1.240  0.00  0.00    -0.036 A 
ATOM     30  C   UNL     1      -2.155   2.898  -2.476  0.00  0.00    +0.024 A 
ATOM     31  C   UNL     1      -1.720   2.177  -3.573  0.00  0.00    +0.076 A 
ATOM     32  S   UNL     1      -0.520   1.080  -2.837  0.00  0.00    -0.088 S 
ATOM     33  C   UNL     1      -2.003   3.336   0.038  0.00  0.00    +0.039 C 
BRANCH  25  35
ATOM     34  C   UNL     1      -1.533   5.213   2.308  0.00  0.00    +0.004 C 
ATOM     35  C   UNL     1      -1.386   3.695   2.430  0.00  0.00    +0.000 C 
ENDBRANCH  25  35
ENDBRANCH  21  31
ENDBRANCH   1  23
TORSDOF 6
