REMARK  Name = ZINC67156493
REMARK  9 active torsions:
REMARK  status: ('A' for Active; 'I' for Inactive)
REMARK    1  A    between atoms: C_1  and  C_2
REMARK    2  A    between atoms: N_7  and  C_9
REMARK    3  A    between atoms: C_9  and  C_10
REMARK    4  A    between atoms: C_9  and  C_11
REMARK    5  A    between atoms: C_9  and  C_12
REMARK    6  A    between atoms: C_12  and  N_13
REMARK    7  A    between atoms: C_14  and  C_16
REMARK    8  A    between atoms: C_16  and  N_17
REMARK    9  A    between atoms: C_18  and  C_20
REMARK                            x       y       z     vdW  Elec       q    Type
REMARK                         _______ _______ _______ _____ _____    ______ ____
ROOT
ATOM      1  N   UNL     1       2.186  -4.461   1.142  0.00  0.00    -0.315 N 
ATOM      2  C   UNL     1       2.321  -5.782   0.914  0.00  0.00    +0.230 C 
ATOM      3  O   UNL     1       1.925  -6.582   1.736  0.00  0.00    -0.274 OA
ATOM      4  H   UNL     1       2.502  -3.821   0.485  0.00  0.00    +0.149 HD
ENDROOT
BRANCH   1   5
ATOM      5  C   UNL     1       1.562  -3.991   2.382  0.00  0.00    +0.092 C 
BRANCH   5   6
ATOM      6  C   UNL     1       1.534  -2.461   2.390  0.00  0.00    -0.055 C 
ATOM      7  C   UNL     1       2.963  -1.924   2.303  0.00  0.00    -0.008 C 
ATOM      8  C   UNL     1       0.882  -1.970   3.685  0.00  0.00    -0.008 C 
BRANCH   6  14
ATOM      9  C   UNL     1      -0.019   1.526   0.010  0.00  0.00    +0.005 C 
ATOM     10  C   UNL     1       0.002  -0.004   0.002  0.00  0.00    -0.031 C 
ATOM     11  C   UNL     1      -1.434  -0.535   0.015  0.00  0.00    -0.001 C 
ATOM     12  C   UNL     1      -1.402  -2.064   0.086  0.00  0.00    -0.018 C 
ATOM     13  C   UNL     1      -0.613  -2.496   1.324  0.00  0.00    -0.078 C 
ATOM     14  N   UNL     1       0.758  -1.980   1.239  0.00  0.00    +0.384 N 
ATOM     15  C   UNL     1       0.740  -0.512   1.242  0.00  0.00    -0.075 C 
ATOM     16  H   UNL     1       1.188  -2.307   0.386  0.00  0.00    -0.081 HD
ENDBRANCH   6  14
ENDBRANCH   5   6
ENDBRANCH   1   5
BRANCH   2  17
ATOM     17  C   UNL     1       2.962  -6.266  -0.361  0.00  0.00    +0.200 C 
BRANCH  17  18
ATOM     18  N   UNL     1       2.990  -7.730  -0.369  0.00  0.00    -0.303 N 
ATOM     19  C   UNL     1       3.522  -8.389  -1.417  0.00  0.00    +0.244 C 
ATOM     20  O   UNL     1       3.978  -7.767  -2.357  0.00  0.00    -0.270 OA
ATOM     21  H   UNL     1       2.625  -8.226   0.381  0.00  0.00    +0.150 HD
BRANCH  19  22
ATOM     22  C   UNL     1       3.550  -9.867  -1.425  0.00  0.00    +0.037 A 
ATOM     23  C   UNL     1       3.021 -10.585  -0.351  0.00  0.00    +0.013 A 
ATOM     24  C   UNL     1       3.050 -11.962  -0.368  0.00  0.00    +0.004 A 
ATOM     25  C   UNL     1       3.602 -12.640  -1.444  0.00  0.00    -0.044 A 
ATOM     26  C   UNL     1       4.128 -11.934  -2.512  0.00  0.00    -0.043 A 
ATOM     27  C   UNL     1       4.099 -10.552  -2.509  0.00  0.00    +0.017 A 
ATOM     28  C   UNL     1       4.664 -12.899  -3.549  0.00  0.00    +0.036 C 
ATOM     29  C   UNL     1       4.807 -14.246  -2.810  0.00  0.00    +0.009 C 
ATOM     30  C   UNL     1       3.750 -14.126  -1.693  0.00  0.00    +0.036 C 
ENDBRANCH  19  22
ENDBRANCH  17  18
ENDBRANCH   2  17
TORSDOF 6
