REMARK  Name = ZINC03978073
REMARK  11 active torsions:
REMARK  status: ('A' for Active; 'I' for Inactive)
REMARK    1  A    between atoms: C_1  and  C_2
REMARK    2  A    between atoms: C_11  and  O_52
REMARK    3  A    between atoms: C_13  and  O_51
REMARK    4  A    between atoms: C_15  and  O_18
REMARK    5  A    between atoms: O_18  and  C_19
REMARK    6  A    between atoms: C_27  and  C_37
REMARK    7  A    between atoms: C_39  and  O_46
REMARK    8  A    between atoms: C_40  and  O_45
REMARK    9  A    between atoms: C_41  and  O_43
REMARK   10  A    between atoms: O_43  and  C_44
REMARK   11  A    between atoms: O_46  and  C_47
REMARK                            x       y       z     vdW  Elec       q    Type
REMARK                         _______ _______ _______ _____ _____    ______ ____
ROOT
ATOM      1  C   UNL     1      -2.817  -1.043   0.327  0.00  0.00    +0.159 C 
ATOM      2  C   UNL     1      -2.101  -1.012  -1.012  0.00  0.00    -0.011 A 
ATOM      3  C   UNL     1      -2.823  -1.497  -2.105  0.00  0.00    +0.056 A 
ATOM      4  C   UNL     1      -2.218  -1.463  -3.350  0.00  0.00    +0.167 A 
ATOM      5  C   UNL     1      -0.919  -0.955  -3.506  0.00  0.00    +0.167 A 
ATOM      6  C   UNL     1      -0.207  -0.481  -2.417  0.00  0.00    +0.054 A 
ATOM      7  C   UNL     1      -0.822  -0.523  -1.164  0.00  0.00    -0.030 A 
ATOM      8  C   UNL     1       0.002  -0.004   0.002  0.00  0.00    +0.064 C 
ATOM      9  C   UNL     1      -0.616  -0.532   1.280  0.00  0.00    +0.118 C 
ATOM     10  C   UNL     1      -2.110  -0.077   1.258  0.00  0.00    +0.075 C 
ATOM     11  C   UNL     1      -2.424  -0.260   2.752  0.00  0.00    +0.239 C 
ATOM     12  O   UNL     1      -1.185   0.183   3.406  0.00  0.00    -0.464 OA
ATOM     13  C   UNL     1      -0.132   0.075   2.564  0.00  0.00    +0.312 C 
ATOM     14  O   UNL     1       1.004   0.409   2.804  0.00  0.00    -0.250 OA
ATOM     15  O   UNL     1      -0.574  -1.035  -4.811  0.00  0.00    -0.453 OA
ATOM     16  C   UNL     1      -1.513  -1.957  -5.403  0.00  0.00    +0.466 C 
ATOM     17  O   UNL     1      -2.679  -1.860  -4.558  0.00  0.00    -0.453 OA
ENDROOT
BRANCH   8  18
ATOM     18  C   UNL     1      -0.018   1.503   0.010  0.00  0.00    -0.032 A 
ATOM     19  C   UNL     1      -1.133   2.179  -0.448  0.00  0.00    +0.054 A 
ATOM     20  C   UNL     1      -1.158   3.566  -0.437  0.00  0.00    +0.165 A 
ATOM     21  C   UNL     1      -0.056   4.275   0.025  0.00  0.00    +0.201 A 
ATOM     22  C   UNL     1       1.065   3.591   0.480  0.00  0.00    +0.165 A 
ATOM     23  C   UNL     1       1.080   2.204   0.471  0.00  0.00    +0.054 A 
BRANCH  22  24
ATOM     24  O   UNL     1       2.146   4.280   0.933  0.00  0.00    -0.491 OA
ATOM     25  C   UNL     1       3.263   3.512   1.385  0.00  0.00    +0.277 C 
ENDBRANCH  22  24
BRANCH  21  26
ATOM     26  O   UNL     1      -0.074   5.636   0.032  0.00  0.00    -0.501 OA
ATOM     27  H   UNL     1       0.258   6.038  -0.783  0.00  0.00    +0.292 HD
ENDBRANCH  21  26
BRANCH  20  28
ATOM     28  O   UNL     1      -2.257   4.231  -0.883  0.00  0.00    -0.491 OA
ATOM     29  C   UNL     1      -3.353   3.437  -1.344  0.00  0.00    +0.277 C 
ENDBRANCH  20  28
ENDBRANCH   8  18
BRANCH   1  30
ATOM     30  O   UNL     1      -2.767  -2.364   0.870  0.00  0.00    -0.340 OA
BRANCH  30  40
ATOM     31  C   UNL     1      -8.656  -6.413  -1.031  0.00  0.00    +0.070 C 
ATOM     32  C   UNL     1      -7.405  -5.614  -0.659  0.00  0.00    +0.248 C 
ATOM     33  O   UNL     1      -7.527  -4.279  -1.156  0.00  0.00    -0.349 OA
ATOM     34  C   UNL     1      -6.415  -3.438  -0.832  0.00  0.00    +0.197 C 
ATOM     35  C   UNL     1      -6.248  -3.401   0.690  0.00  0.00    +0.178 C 
ATOM     36  C   UNL     1      -6.129  -4.836   1.213  0.00  0.00    +0.183 C 
ATOM     37  O   UNL     1      -7.265  -5.585   0.763  0.00  0.00    -0.343 OA
ATOM     38  C   UNL     1      -4.857  -5.476   0.649  0.00  0.00    +0.179 C 
ATOM     39  C   UNL     1      -3.650  -4.610   1.023  0.00  0.00    +0.201 C 
ATOM     40  C   UNL     1      -3.866  -3.193   0.485  0.00  0.00    +0.282 C 
ATOM     41  O   UNL     1      -5.076  -2.662   1.029  0.00  0.00    -0.340 OA
BRANCH  39  42
ATOM     42  O   UNL     1      -3.514  -4.567   2.445  0.00  0.00    -0.384 OA
ATOM     43  H   UNL     1      -2.772  -4.030   2.753  0.00  0.00    +0.210 HD
ENDBRANCH  39  42
BRANCH  38  44
ATOM     44  O   UNL     1      -4.695  -6.784   1.201  0.00  0.00    -0.386 OA
ATOM     45  H   UNL     1      -3.908  -7.249   0.887  0.00  0.00    +0.210 HD
ENDBRANCH  38  44
ENDBRANCH  30  40
ENDBRANCH   1  30
TORSDOF 8
