REMARK  Name = ZINC02802165
REMARK  9 active torsions:
REMARK  status: ('A' for Active; 'I' for Inactive)
REMARK    1  A    between atoms: C_1  and  C_2
REMARK    2  A    between atoms: C_2  and  C_3
REMARK    3  A    between atoms: C_4  and  C_24
REMARK    4  A    between atoms: C_6  and  N_11
REMARK    5  A    between atoms: C_7  and  C_8
REMARK    6  A    between atoms: C_12  and  C_14
REMARK    7  A    between atoms: C_14  and  C_16
REMARK    8  A    between atoms: C_14  and  N_17
REMARK    9  A    between atoms: C_18  and  C_23
REMARK                            x       y       z     vdW  Elec       q    Type
REMARK                         _______ _______ _______ _____ _____    ______ ____
ROOT
ATOM      1  C   UNL     1      -3.103   0.493  -1.210  0.00  0.00    -0.024 A 
ATOM      2  C   UNL     1      -4.255  -0.194  -1.103  0.00  0.00    -0.008 A 
ATOM      3  S   UNL     1      -4.482  -0.344   0.657  0.00  0.00    -0.078 S 
ATOM      4  C   UNL     1      -3.065   0.489   1.203  0.00  0.00    +0.084 A 
ATOM      5  C   UNL     1      -2.447   0.874   0.018  0.00  0.00    +0.068 A 
ATOM      6  C   UNL     1      -5.140  -0.713  -2.207  0.00  0.00    +0.052 C 
ENDROOT
BRANCH   5   7
ATOM      7  C   UNL     1      -1.187   1.624   0.017  0.00  0.00    +0.244 C 
ATOM      8  O   UNL     1      -1.204   2.841   0.023  0.00  0.00    -0.270 OA
ATOM      9  N   UNL     1      -0.011   0.966   0.007  0.00  0.00    -0.325 N 
ATOM     10  H   UNL     1       0.002  -0.004   0.002  0.00  0.00    +0.145 HD
ATOM     11  H   UNL     1       0.822   1.462   0.002  0.00  0.00    +0.145 HD
ENDBRANCH   5   7
BRANCH   4  12
ATOM     12  N   UNL     1      -2.648   0.718   2.505  0.00  0.00    -0.278 N 
ATOM     13  C   UNL     1      -3.386   0.265   3.538  0.00  0.00    +0.242 C 
ATOM     14  O   UNL     1      -4.414  -0.344   3.328  0.00  0.00    -0.273 OA
ATOM     15  H   UNL     1      -1.826   1.205   2.673  0.00  0.00    +0.155 HD
BRANCH  13  16
ATOM     16  C   UNL     1      -2.933   0.514   4.954  0.00  0.00    +0.190 C 
ATOM     17  C   UNL     1      -2.838   2.021   5.201  0.00  0.00    +0.042 C 
BRANCH  16  18
ATOM     18  N   UNL     1      -3.899  -0.074   5.886  0.00  0.00    -0.256 N 
ATOM     19  C   UNL     1      -3.639  -1.036   6.797  0.00  0.00    +0.051 A 
ATOM     20  C   UNL     1      -4.790  -1.299   7.458  0.00  0.00    +0.058 A 
ATOM     21  C   UNL     1      -5.789  -0.476   6.927  0.00  0.00    +0.150 A 
ATOM     22  N   UNL     1      -5.256   0.258   5.985  0.00  0.00    -0.178 NA
ATOM     23 BR   UNL     1      -5.011  -2.561   8.849  0.00  0.00    -0.047 Br
ATOM     24  C   UNL     1      -2.305  -1.696   7.037  0.00  0.00    +0.066 C 
ENDBRANCH  16  18
ENDBRANCH  13  16
ENDBRANCH   4  12
BRANCH   1  26
ATOM     25  C   UNL     1      -1.588  -0.268  -3.019  0.00  0.00    +0.009 C 
ATOM     26  C   UNL     1      -2.523   0.850  -2.554  0.00  0.00    +0.033 C 
ENDBRANCH   1  26
TORSDOF 5
