REMARK  Name = ZINC66925981
REMARK  8 active torsions:
REMARK  status: ('A' for Active; 'I' for Inactive)
REMARK    1  A    between atoms: C_10  and  C_11
REMARK    2  A    between atoms: C_10  and  O_27
REMARK    3  A    between atoms: C_11  and  N_12
REMARK    4  A    between atoms: N_15  and  C_16
REMARK    5  A    between atoms: C_16  and  C_17
REMARK    6  A    between atoms: C_17  and  N_18
REMARK    7  A    between atoms: C_19  and  C_21
REMARK    8  A    between atoms: C_21  and  C_22
REMARK                            x       y       z     vdW  Elec       q    Type
REMARK                         _______ _______ _______ _____ _____    ______ ____
ROOT
ATOM      1  N   UNL     1       4.837   1.444   0.478  0.00  0.00    -0.296 N 
ATOM      2  C   UNL     1       5.710   2.251   1.112  0.00  0.00    +0.300 C 
ATOM      3  O   UNL     1       6.375   1.822   2.035  0.00  0.00    -0.253 OA
ATOM      4  N   UNL     1       5.846   3.534   0.723  0.00  0.00    -0.298 N 
ATOM      5  H   UNL     1       4.306   1.786  -0.259  0.00  0.00    +0.150 HD
ATOM      6  H   UNL     1       5.316   3.877  -0.014  0.00  0.00    +0.150 HD
ENDROOT
BRANCH   1   7
ATOM      7  C   UNL     1       4.689   0.049   0.901  0.00  0.00    +0.145 C 
BRANCH   7  17
ATOM      8  C   UNL     1       3.502  -4.769   1.163  0.00  0.00    +0.000 A 
ATOM      9  C   UNL     1       3.495  -3.749   2.096  0.00  0.00    +0.000 A 
ATOM     10  C   UNL     1       3.578  -2.438   1.677  0.00  0.00    +0.007 A 
ATOM     11  C   UNL     1       3.670  -2.133   0.325  0.00  0.00    -0.011 A 
ATOM     12  C   UNL     1       3.682  -3.149  -0.604  0.00  0.00    -0.041 A 
ATOM     13  C   UNL     1       3.594  -4.469  -0.180  0.00  0.00    +0.004 A 
ATOM     14  C   UNL     1       3.796  -2.893  -2.084  0.00  0.00    +0.035 C 
ATOM     15  C   UNL     1       3.451  -1.440  -2.406  0.00  0.00    +0.008 C 
ATOM     16  C   UNL     1       4.277  -0.532  -1.488  0.00  0.00    +0.041 C 
ATOM     17  C   UNL     1       3.750  -0.679  -0.063  0.00  0.00    +0.107 C 
BRANCH  17  18
ATOM     18  O   UNL     1       2.447  -0.097   0.020  0.00  0.00    -0.382 OA
ATOM     19  H   UNL     1       2.054  -0.138   0.902  0.00  0.00    +0.211 HD
ENDBRANCH  17  18
ENDBRANCH   7  17
ENDBRANCH   1   7
BRANCH   4  20
ATOM     20  C   UNL     1       6.795   4.412   1.412  0.00  0.00    +0.124 C 
BRANCH  20  21
ATOM     21  C   UNL     1       6.754   5.805   0.779  0.00  0.00    +0.123 C 
BRANCH  21  22
ATOM     22  N   UNL     1       7.703   6.682   1.469  0.00  0.00    -0.314 N 
ATOM     23  C   UNL     1       7.839   7.965   1.079  0.00  0.00    +0.213 C 
ATOM     24  O   UNL     1       7.176   8.394   0.159  0.00  0.00    -0.276 OA
ATOM     25  H   UNL     1       8.234   6.340   2.205  0.00  0.00    +0.149 HD
BRANCH  23  26
ATOM     26  C   UNL     1       8.816   8.868   1.788  0.00  0.00    +0.099 C 
BRANCH  26  27
ATOM     27  C   UNL     1       8.775  10.261   1.156  0.00  0.00    -0.002 C 
ATOM     28  C   UNL     1       9.342  10.207  -0.278  0.00  0.00    +0.004 C 
ATOM     29  C   UNL     1      10.116  11.539  -0.430  0.00  0.00    +0.000 C 
ATOM     30  C   UNL     1      10.755  11.725   0.968  0.00  0.00    +0.000 C 
ATOM     31  C   UNL     1       9.673  11.226   1.948  0.00  0.00    +0.004 C 
ENDBRANCH  26  27
ENDBRANCH  23  26
ENDBRANCH  21  22
ENDBRANCH  20  21
ENDBRANCH   4  20
TORSDOF 8
