REMARK  Name = ZINC39458081
REMARK  11 active torsions:
REMARK  status: ('A' for Active; 'I' for Inactive)
REMARK    1  A    between atoms: C_1  and  C_2
REMARK    2  A    between atoms: C_2  and  C_3
REMARK    3  A    between atoms: C_2  and  C_4
REMARK    4  A    between atoms: C_4  and  N_5
REMARK    5  A    between atoms: C_6  and  N_30
REMARK    6  A    between atoms: C_8  and  C_14
REMARK    7  A    between atoms: C_14  and  C_16
REMARK    8  A    between atoms: C_16  and  S_17
REMARK    9  A    between atoms: S_17  and  C_18
REMARK   10  A    between atoms: C_24  and  O_28
REMARK   11  A    between atoms: O_28  and  C_29
REMARK                            x       y       z     vdW  Elec       q    Type
REMARK                         _______ _______ _______ _____ _____    ______ ____
ROOT
ATOM      1  N   UNL     1      -1.933  -0.102  -1.171  0.00  0.00    -0.297 N 
ATOM      2  C   UNL     1      -2.442   1.270  -1.250  0.00  0.00    +0.037 C 
ATOM      3  C   UNL     1      -3.688   1.294  -2.139  0.00  0.00    +0.146 C 
ATOM      4  C   UNL     1      -3.419   0.505  -3.394  0.00  0.00    +0.250 C 
ATOM      5  O   UNL     1      -3.994   0.875  -4.550  0.00  0.00    -0.273 OA
ATOM      6  N   UNL     1      -2.633  -0.534  -3.367  0.00  0.00    -0.127 NA
ATOM      7  C   UNL     1      -2.005  -0.914  -2.240  0.00  0.00    +0.327 C 
ATOM      8  O   UNL     1      -1.494  -2.017  -2.186  0.00  0.00    -0.250 OA
ENDROOT
BRANCH   2   9
ATOM      9  N   UNL     1      -1.410   2.144  -1.825  0.00  0.00    +0.391 N 
ATOM     10  H   UNL     1      -1.115   1.774  -2.716  0.00  0.00    -0.087 HD
ATOM     11  H   UNL     1      -1.788   3.070  -1.954  0.00  0.00    -0.087 HD
ATOM     12  H   UNL     1      -0.619   2.187  -1.200  0.00  0.00    -0.087 HD
ENDBRANCH   2   9
BRANCH   3  13
ATOM     13  C   UNL     1      -4.847   0.681  -1.397  0.00  0.00    +0.155 C 
ATOM     14  O   UNL     1      -4.644  -0.115  -0.511  0.00  0.00    -0.296 OA
BRANCH  13  15
ATOM     15  C   UNL     1      -6.260   1.060  -1.759  0.00  0.00    +0.152 C 
BRANCH  15  16
ATOM     16  S   UNL     1      -7.420   0.160  -0.695  0.00  0.00    -0.080 S 
BRANCH  16  17
ATOM     17  C   UNL     1      -9.006   0.705  -1.236  0.00  0.00    +0.168 A 
ATOM     18  H   UNL     1     -10.322  -0.355   0.000  0.00  0.00    +0.168 HD
ATOM     19  N   UNL     1      -9.217   1.568  -2.197  0.00  0.00    -0.222 NA
ATOM     20  C   UNL     1     -10.555   1.761  -2.353  0.00  0.00    +0.090 A 
ATOM     21  C   UNL     1     -11.315   2.556  -3.213  0.00  0.00    +0.033 A 
ATOM     22  C   UNL     1     -12.689   2.537  -3.130  0.00  0.00    +0.048 A 
ATOM     23  C   UNL     1     -13.327   1.730  -2.193  0.00  0.00    +0.122 A 
ATOM     24  C   UNL     1     -12.586   0.937  -1.334  0.00  0.00    +0.073 A 
ATOM     25  C   UNL     1     -11.202   0.947  -1.408  0.00  0.00    +0.070 A 
ATOM     26  N   UNL     1     -10.200   0.285  -0.718  0.00  0.00    -0.333 N 
BRANCH  23  27
ATOM     27  O   UNL     1     -14.685   1.721  -2.121  0.00  0.00    -0.495 OA
ATOM     28  C   UNL     1     -15.389   2.563  -3.036  0.00  0.00    +0.277 C 
ENDBRANCH  23  27
ENDBRANCH  16  17
ENDBRANCH  15  16
ENDBRANCH  13  15
ENDBRANCH   3  13
BRANCH   1  29
ATOM     29  C   UNL     1      -1.339  -0.589   0.076  0.00  0.00    +0.110 C 
BRANCH  29  31
ATOM     30  C   UNL     1      -3.023  -2.421   0.298  0.00  0.00    +0.009 C 
ATOM     31  C   UNL     1      -2.435  -1.178   0.967  0.00  0.00    +0.000 C 
ATOM     32  C   UNL     1      -1.838  -1.562   2.323  0.00  0.00    +0.009 C 
ENDBRANCH  29  31
ENDBRANCH   1  29
TORSDOF 8
