REMARK  Name = ZINC39915859
REMARK  9 active torsions:
REMARK  status: ('A' for Active; 'I' for Inactive)
REMARK    1  A    between atoms: C_5  and  C_7
REMARK    2  A    between atoms: C_7  and  N_8
REMARK    3  A    between atoms: C_16  and  S_17
REMARK    4  A    between atoms: S_17  and  C_18
REMARK    5  A    between atoms: C_20  and  O_33
REMARK    6  A    between atoms: C_22  and  O_32
REMARK    7  A    between atoms: C_24  and  O_31
REMARK    8  A    between atoms: C_26  and  C_29
REMARK    9  A    between atoms: C_29  and  O_30
REMARK                            x       y       z     vdW  Elec       q    Type
REMARK                         _______ _______ _______ _____ _____    ______ ____
ROOT
ATOM      1  N   UNL     1       0.996  -2.256   1.260  0.00  0.00    -0.314 N 
ATOM      2  C   UNL     1       2.282  -2.331   1.770  0.00  0.00    +0.070 A 
ATOM      3  C   UNL     1       3.532  -1.985   1.279  0.00  0.00    +0.028 A 
ATOM      4  C   UNL     1       4.655  -2.191   2.054  0.00  0.00    +0.002 A 
ATOM      5  C   UNL     1       4.543  -2.742   3.322  0.00  0.00    +0.002 A 
ATOM      6  C   UNL     1       3.309  -3.092   3.825  0.00  0.00    +0.030 A 
ATOM      7  C   UNL     1       2.162  -2.889   3.053  0.00  0.00    +0.090 A 
ATOM      8  N   UNL     1       0.841  -3.125   3.266  0.00  0.00    -0.222 NA
ATOM      9  C   UNL     1       0.153  -2.749   2.216  0.00  0.00    +0.173 A 
ENDROOT
BRANCH   1  10
ATOM     10  C   UNL     1       0.611  -1.740  -0.055  0.00  0.00    +0.161 C 
BRANCH  10  15
ATOM     11  C   UNL     1      -1.508   1.347   0.430  0.00  0.00    +0.000 A 
ATOM     12  C   UNL     1      -0.566   2.352   0.308  0.00  0.00    +0.001 A 
ATOM     13  C   UNL     1       0.757   2.033   0.068  0.00  0.00    +0.020 A 
ATOM     14  C   UNL     1       1.139   0.708  -0.050  0.00  0.00    +0.046 A 
ATOM     15  C   UNL     1       0.196  -0.297   0.073  0.00  0.00    -0.009 A 
ATOM     16  C   UNL     1      -1.127   0.024   0.313  0.00  0.00    +0.007 A 
ATOM     17 CL   UNL     1       2.801   0.307  -0.352  0.00  0.00    -0.083 Cl
ENDBRANCH  10  15
ENDBRANCH   1  10
BRANCH   9  18
ATOM     18  S   UNL     1      -1.599  -2.865   2.059  0.00  0.00    -0.054 S 
BRANCH  18  19
ATOM     19  C   UNL     1      -2.134  -3.587   3.635  0.00  0.00    +0.214 C 
ATOM     20  C   UNL     1      -3.663  -3.631   3.683  0.00  0.00    +0.185 C 
ATOM     21  C   UNL     1      -4.106  -4.296   4.989  0.00  0.00    +0.177 C 
ATOM     22  C   UNL     1      -3.482  -5.692   5.075  0.00  0.00    +0.176 C 
ATOM     23  C   UNL     1      -1.959  -5.569   4.973  0.00  0.00    +0.176 C 
ATOM     24  O   UNL     1      -1.617  -4.914   3.750  0.00  0.00    -0.355 OA
BRANCH  22  25
ATOM     25  O   UNL     1      -3.831  -6.296   6.323  0.00  0.00    -0.386 OA
ATOM     26  H   UNL     1      -4.783  -6.401   6.457  0.00  0.00    +0.210 HD
ENDBRANCH  22  25
BRANCH  21  27
ATOM     27  O   UNL     1      -3.672  -3.508   6.099  0.00  0.00    -0.386 OA
ATOM     28  H   UNL     1      -4.026  -2.608   6.104  0.00  0.00    +0.210 HD
ENDBRANCH  21  27
BRANCH  20  29
ATOM     29  O   UNL     1      -4.155  -4.382   2.572  0.00  0.00    -0.386 OA
ATOM     30  H   UNL     1      -3.908  -4.019   1.710  0.00  0.00    +0.210 HD
ENDBRANCH  20  29
BRANCH  23  31
ATOM     31  C   UNL     1      -1.433  -4.752   6.155  0.00  0.00    +0.190 C 
BRANCH  31  32
ATOM     32  O   UNL     1      -0.004  -4.764   6.143  0.00  0.00    -0.392 OA
ATOM     33  H   UNL     1       0.399  -4.264   6.866  0.00  0.00    +0.210 HD
ENDBRANCH  31  32
ENDBRANCH  23  31
ENDBRANCH  18  19
ENDBRANCH   9  18
TORSDOF 9
