REMARK  Name = ZINC55189275
REMARK  3 active torsions:
REMARK  status: ('A' for Active; 'I' for Inactive)
REMARK    1  A    between atoms: C_2  and  C_7
REMARK    2  A    between atoms: N_9  and  C_10
REMARK    3  A    between atoms: C_16  and  O_18
REMARK                            x       y       z     vdW  Elec       q    Type
REMARK                         _______ _______ _______ _____ _____    ______ ____
ROOT
ATOM      1  C   UNL     1       1.800   3.450   0.003  0.00  0.00    +0.263 C 
ATOM      2  O   UNL     1       1.002   4.367   0.015  0.00  0.00    -0.269 OA
ATOM      3  N   UNL     1       3.123   3.708  -0.008  0.00  0.00    -0.305 N 
ATOM      4  H   UNL     1       3.760   2.976  -0.018  0.00  0.00    +0.149 HD
ENDROOT
BRANCH   1   6
ATOM      5  C   UNL     1      -0.022   1.784   0.012  0.00  0.00    +0.081 A 
ATOM      6  C   UNL     1       1.322   2.058   0.001  0.00  0.00    +0.135 A 
ATOM      7  N   UNL     1       2.190   1.044  -0.013  0.00  0.00    -0.221 NA
ATOM      8  C   UNL     1       1.777  -0.208  -0.016  0.00  0.00    +0.156 A 
ATOM      9  S   UNL     1       0.002  -0.004   0.002  0.00  0.00    -0.060 S 
ATOM     10  N   UNL     1       2.523  -1.374  -0.029  0.00  0.00    -0.338 N 
ATOM     11  H   UNL     1       3.492  -1.331  -0.038  0.00  0.00    +0.144 HD
ATOM     12  H   UNL     1       2.077  -2.236  -0.030  0.00  0.00    +0.144 HD
ENDBRANCH   1   6
BRANCH   3  13
ATOM     13  C   UNL     1       3.599   5.093  -0.006  0.00  0.00    +0.102 C 
ATOM     14  C   UNL     1       3.632   5.624  -1.441  0.00  0.00    +0.025 C 
ATOM     15  C   UNL     1       4.129   7.071  -1.438  0.00  0.00    +0.002 C 
ATOM     16  C   UNL     1       5.537   7.125  -0.842  0.00  0.00    +0.003 C 
ATOM     17  C   UNL     1       5.504   6.595   0.593  0.00  0.00    +0.033 C 
ATOM     18  C   UNL     1       5.007   5.148   0.591  0.00  0.00    +0.135 C 
BRANCH  18  19
ATOM     19  O   UNL     1       4.976   4.653   1.931  0.00  0.00    -0.390 OA
ATOM     20  H   UNL     1       5.836   4.658   2.372  0.00  0.00    +0.210 HD
ENDBRANCH  18  19
ENDBRANCH   3  13
TORSDOF 3
