REMARK  Name = ZINC02232082
REMARK  8 active torsions:
REMARK  status: ('A' for Active; 'I' for Inactive)
REMARK    1  A    between atoms: C_3  and  N_19
REMARK    2  A    between atoms: C_6  and  N_7
REMARK    3  A    between atoms: N_7  and  C_8
REMARK    4  A    between atoms: C_8  and  N_10
REMARK    5  A    between atoms: N_10  and  C_11
REMARK    6  A    between atoms: N_19  and  C_20
REMARK    7  A    between atoms: C_20  and  N_22
REMARK    8  A    between atoms: N_22  and  C_23
REMARK                            x       y       z     vdW  Elec       q    Type
REMARK                         _______ _______ _______ _____ _____    ______ ____
ROOT
ATOM      1  C   UNL     1      -1.467   2.374  -6.020  0.00  0.00    +0.025 A 
ATOM      2  C   UNL     1      -2.050   2.388  -7.271  0.00  0.00    +0.025 A 
ATOM      3  C   UNL     1      -1.268   2.205  -8.404  0.00  0.00    +0.033 A 
ATOM      4  C   UNL     1       0.101   2.012  -8.279  0.00  0.00    +0.025 A 
ATOM      5  C   UNL     1       0.685   2.002  -7.028  0.00  0.00    +0.025 A 
ATOM      6  C   UNL     1      -0.097   2.187  -5.895  0.00  0.00    +0.033 A 
ENDROOT
BRANCH   6   7
ATOM      7  N   UNL     1       0.496   2.177  -4.626  0.00  0.00    -0.297 N 
ATOM      8  H   UNL     1       0.088   1.675  -3.903  0.00  0.00    +0.154 HD
BRANCH   7   9
ATOM      9  C   UNL     1       1.634   2.866  -4.408  0.00  0.00    +0.135 C 
ATOM     10  S   UNL     1       2.414   3.663  -5.707  0.00  0.00    -0.019 S 
BRANCH   9  11
ATOM     11  N   UNL     1       2.158   2.927  -3.168  0.00  0.00    -0.322 N 
ATOM     12  H   UNL     1       1.716   2.475  -2.432  0.00  0.00    +0.148 HD
BRANCH  11  13
ATOM     13  C   UNL     1       3.395   3.676  -2.932  0.00  0.00    +0.094 C 
ATOM     14  C   UNL     1       4.602   2.778  -3.250  0.00  0.00    +0.046 C 
ATOM     15  C   UNL     1       5.881   3.473  -2.700  0.00  0.00    +0.168 C 
ATOM     16  S   UNL     1       5.250   4.108  -1.083  0.00  0.00    -0.029 S 
ATOM     17  O   UNL     1       5.699   5.444  -0.904  0.00  0.00    -0.174 OA
ATOM     18  O   UNL     1       5.505   3.142  -0.072  0.00  0.00    -0.174 OA
ATOM     19  C   UNL     1       3.448   4.126  -1.452  0.00  0.00    +0.188 C 
ENDBRANCH  11  13
ENDBRANCH   9  11
ENDBRANCH   7   9
ENDBRANCH   6   7
BRANCH   3  20
ATOM     20  N   UNL     1      -1.861   2.215  -9.673  0.00  0.00    -0.297 N 
ATOM     21  H   UNL     1      -2.506   2.902  -9.902  0.00  0.00    +0.154 HD
BRANCH  20  22
ATOM     22  C   UNL     1      -1.535   1.270 -10.577  0.00  0.00    +0.135 C 
ATOM     23  S   UNL     1      -0.318   0.122 -10.214  0.00  0.00    -0.019 S 
BRANCH  22  24
ATOM     24  N   UNL     1      -2.167   1.229 -11.767  0.00  0.00    -0.322 N 
ATOM     25  H   UNL     1      -2.856   1.879 -11.973  0.00  0.00    +0.148 HD
BRANCH  24  26
ATOM     26  C   UNL     1      -1.812   0.202 -12.749  0.00  0.00    +0.094 C 
ATOM     27  C   UNL     1      -0.624   0.684 -13.599  0.00  0.00    +0.046 C 
ATOM     28  C   UNL     1      -0.449  -0.236 -14.831  0.00  0.00    +0.168 C 
ATOM     29  S   UNL     1      -2.158  -0.849 -15.124  0.00  0.00    -0.029 S 
ATOM     30  O   UNL     1      -2.180  -2.259 -14.947  0.00  0.00    -0.174 OA
ATOM     31  O   UNL     1      -2.650  -0.287 -16.333  0.00  0.00    -0.174 OA
ATOM     32  C   UNL     1      -3.016  -0.054 -13.700  0.00  0.00    +0.188 C 
ENDBRANCH  24  26
ENDBRANCH  22  24
ENDBRANCH  20  22
ENDBRANCH   3  20
TORSDOF 8
