REMARK  Name = ZINC02409193
REMARK  4 active torsions:
REMARK  status: ('A' for Active; 'I' for Inactive)
REMARK    1  A    between atoms: C_1  and  O_2
REMARK    2  A    between atoms: O_2  and  C_3
REMARK    3  A    between atoms: C_6  and  C_9
REMARK    4  A    between atoms: C_12  and  C_21
REMARK                            x       y       z     vdW  Elec       q    Type
REMARK                         _______ _______ _______ _____ _____    ______ ____
ROOT
ATOM      1  C   UNL     1       2.587  -2.550   4.310  0.00  0.00    +0.106 C 
ATOM      2  C   UNL     1       3.992  -2.987   3.881  0.00  0.00    +0.059 C 
ATOM      3  C   UNL     1       4.718  -3.632   5.069  0.00  0.00    +0.144 C 
ATOM      4  N   UNL     1       3.837  -4.629   5.676  0.00  0.00    -0.224 N 
ATOM      5  C   UNL     1       2.495  -4.671   5.498  0.00  0.00    +0.216 A 
ATOM      6  N   UNL     1       2.026  -5.684   6.177  0.00  0.00    -0.180 NA
ATOM      7  C   UNL     1       3.035  -6.309   6.801  0.00  0.00    +0.233 A 
ATOM      8  N   UNL     1       4.161  -5.693   6.519  0.00  0.00    -0.132 NA
ATOM      9  N   UNL     1       2.909  -7.434   7.619  0.00  0.00    -0.326 N 
ATOM     10  N   UNL     1       1.820  -3.745   4.712  0.00  0.00    -0.307 N 
ATOM     11  H   UNL     1       2.035  -7.826   7.773  0.00  0.00    +0.145 HD
ATOM     12  H   UNL     1       3.695  -7.823   8.033  0.00  0.00    +0.145 HD
ATOM     13  H   UNL     1       0.898  -3.878   4.440  0.00  0.00    +0.149 HD
ENDROOT
BRANCH   3  14
ATOM     14  C   UNL     1       5.982  -4.297   4.587  0.00  0.00    -0.005 A 
ATOM     15  C   UNL     1       5.916  -5.306   3.644  0.00  0.00    +0.007 A 
ATOM     16  C   UNL     1       7.074  -5.916   3.202  0.00  0.00    +0.000 A 
ATOM     17  C   UNL     1       8.300  -5.518   3.702  0.00  0.00    +0.001 A 
ATOM     18  C   UNL     1       8.368  -4.510   4.645  0.00  0.00    +0.020 A 
ATOM     19  C   UNL     1       7.208  -3.895   5.083  0.00  0.00    +0.046 A 
ATOM     20 CL   UNL     1       7.293  -2.623   6.263  0.00  0.00    -0.083 Cl
ENDBRANCH   3  14
BRANCH   1  24
ATOM     21  C   UNL     1       0.626  -0.618   1.042  0.00  0.00    +0.120 A 
ATOM     22  C   UNL     1       1.202   0.138   2.051  0.00  0.00    +0.046 A 
ATOM     23  C   UNL     1       1.835  -0.488   3.107  0.00  0.00    +0.009 A 
ATOM     24  C   UNL     1       1.895  -1.869   3.158  0.00  0.00    -0.027 A 
ATOM     25  C   UNL     1       1.322  -2.625   2.152  0.00  0.00    +0.009 A 
ATOM     26  C   UNL     1       0.682  -2.003   1.098  0.00  0.00    +0.046 A 
BRANCH  21  28
ATOM     27  C   UNL     1      -0.017   1.425   0.010  0.00  0.00    +0.277 C 
ATOM     28  O   UNL     1       0.002  -0.004   0.002  0.00  0.00    -0.495 OA
ENDBRANCH  21  28
ENDBRANCH   1  24
TORSDOF 3
