REMARK  Name = ZINC40812079
REMARK  5 active torsions:
REMARK  status: ('A' for Active; 'I' for Inactive)
REMARK    1  A    between atoms: C_1  and  C_2
REMARK    2  A    between atoms: C_6  and  C_7
REMARK    3  A    between atoms: N_23  and  N_24
REMARK    4  A    between atoms: C_25  and  C_27
REMARK    5  A    between atoms: C_30  and  O_33
REMARK                            x       y       z     vdW  Elec       q    Type
REMARK                         _______ _______ _______ _____ _____    ______ ____
ROOT
ATOM      1  C   UNL     1      -0.110   1.479  -0.004  0.00  0.00    +0.048 C 
ATOM      2  C   UNL     1       0.060  -0.019  -0.000  0.00  0.00    +0.009 A 
ATOM      3  C   UNL     1       0.192  -0.852  -1.117  0.00  0.00    +0.042 A 
ATOM      4  C   UNL     1       0.322  -2.142  -0.657  0.00  0.00    +0.115 A 
ATOM      5  O   UNL     1       0.275  -2.110   0.673  0.00  0.00    -0.454 OA
ATOM      6  C   UNL     1       0.121  -0.835   1.095  0.00  0.00    +0.193 A 
ATOM      7  C   UNL     1       0.481  -3.328  -1.574  0.00  0.00    +0.075 C 
ATOM      8  C   UNL     1      -0.029  -2.963  -2.971  0.00  0.00    +0.014 C 
ATOM      9  C   UNL     1       0.638  -1.677  -3.471  0.00  0.00    +0.058 C 
ATOM     10  C   UNL     1       0.209  -0.534  -2.562  0.00  0.00    +0.070 C 
ATOM     11  N   UNL     1      -0.120   0.634  -3.022  0.00  0.00    -0.184 NA
ENDROOT
BRANCH   6  12
ATOM     12  C   UNL     1       0.032  -0.400   2.493  0.00  0.00    +0.286 C 
ATOM     13  O   UNL     1       0.029   0.787   2.763  0.00  0.00    -0.266 OA
ATOM     14  N   UNL     1      -0.048  -1.315   3.480  0.00  0.00    -0.265 N 
ATOM     15  C   UNL     1      -0.026  -2.751   3.170  0.00  0.00    +0.114 C 
ATOM     16  C   UNL     1      -1.122  -3.427   4.004  0.00  0.00    +0.024 C 
ATOM     17  C   UNL     1      -0.787  -3.262   5.486  0.00  0.00    +0.038 C 
ATOM     18  C   UNL     1      -0.507  -1.817   5.806  0.00  0.00    -0.026 A 
ATOM     19  C   UNL     1      -0.147  -0.912   4.818  0.00  0.00    +0.040 A 
ATOM     20  C   UNL     1       0.116   0.412   5.148  0.00  0.00    +0.024 A 
ATOM     21  C   UNL     1       0.020   0.830   6.460  0.00  0.00    +0.002 A 
ATOM     22  C   UNL     1      -0.336  -0.072   7.446  0.00  0.00    +0.000 A 
ATOM     23  C   UNL     1      -0.607  -1.391   7.119  0.00  0.00    +0.005 A 
ENDBRANCH   6  12
BRANCH  11  24
ATOM     24  N   UNL     1      -0.086   0.879  -4.401  0.00  0.00    -0.203 N 
ATOM     25  C   UNL     1      -0.427   2.093  -4.878  0.00  0.00    +0.263 C 
ATOM     26  O   UNL     1      -0.764   2.975  -4.111  0.00  0.00    -0.268 OA
ATOM     27  H   UNL     1       0.183   0.176  -5.012  0.00  0.00    +0.178 HD
BRANCH  25  28
ATOM     28  C   UNL     1      -0.392   2.351  -6.330  0.00  0.00    +0.039 A 
ATOM     29  C   UNL     1      -0.011   1.337  -7.213  0.00  0.00    +0.016 A 
ATOM     30  C   UNL     1       0.021   1.583  -8.568  0.00  0.00    +0.046 A 
ATOM     31  C   UNL     1      -0.326   2.836  -9.057  0.00  0.00    +0.117 A 
ATOM     32  C   UNL     1      -0.706   3.847  -8.182  0.00  0.00    +0.046 A 
ATOM     33  C   UNL     1      -0.745   3.609  -6.827  0.00  0.00    +0.016 A 
BRANCH  31  34
ATOM     34  O   UNL     1      -0.294   3.074 -10.393  0.00  0.00    -0.507 OA
ATOM     35  H   UNL     1      -1.126   2.884 -10.847  0.00  0.00    +0.292 HD
ENDBRANCH  31  34
ENDBRANCH  25  28
ENDBRANCH  11  24
TORSDOF 4
