REMARK  Name = ZINC44713644
REMARK  11 active torsions:
REMARK  status: ('A' for Active; 'I' for Inactive)
REMARK    1  A    between atoms: C_1  and  C_2
REMARK    2  A    between atoms: C_2  and  C_3
REMARK    3  A    between atoms: C_3  and  C_4
REMARK    4  A    between atoms: C_4  and  C_6
REMARK    5  A    between atoms: C_4  and  C_7
REMARK    6  A    between atoms: C_11  and  C_20
REMARK    7  A    between atoms: N_22  and  C_23
REMARK    8  A    between atoms: C_23  and  C_25
REMARK    9  A    between atoms: C_23  and  C_26
REMARK   10  A    between atoms: C_27  and  C_33
REMARK   11  A    between atoms: C_31  and  C_32
REMARK                            x       y       z     vdW  Elec       q    Type
REMARK                         _______ _______ _______ _____ _____    ______ ____
ROOT
ATOM      1  C   UNL     1       1.316  -2.579   2.201  0.00  0.00    +0.218 C 
ATOM      2  O   UNL     1       1.767  -1.711   2.919  0.00  0.00    -0.275 OA
ATOM      3  N   UNL     1       1.578  -3.874   2.463  0.00  0.00    -0.300 N 
ATOM      4  C   UNL     1       1.125  -5.064   1.704  0.00  0.00    +0.121 C 
ATOM      5  C   UNL     1       2.342  -6.016   1.709  0.00  0.00    +0.100 C 
ATOM      6  C   UNL     1       3.163  -5.598   2.940  0.00  0.00    -0.004 C 
ATOM      7  C   UNL     1       2.390  -4.431   3.571  0.00  0.00    +0.115 C 
ATOM      8  C   UNL     1       4.553  -5.132   2.515  0.00  0.00    -0.010 C 
ATOM      9  C   UNL     1       5.370  -4.776   3.760  0.00  0.00    -0.082 C 
ATOM     10  N   UNL     1       5.471  -5.950   4.634  0.00  0.00    +0.379 N 
ATOM     11  C   UNL     1       4.138  -6.335   5.113  0.00  0.00    -0.082 C 
ATOM     12  C   UNL     1       3.269  -6.758   3.925  0.00  0.00    -0.010 C 
ATOM     13  H   UNL     1       5.876  -6.717   4.118  0.00  0.00    -0.086 HD
ATOM     14  H   UNL     1       6.060  -5.731   5.423  0.00  0.00    -0.086 HD
ENDROOT
BRANCH   5  15
ATOM     15  C   UNL     1       3.151  -5.840   0.450  0.00  0.00    +0.219 C 
ATOM     16  O   UNL     1       3.189  -4.760  -0.100  0.00  0.00    -0.275 OA
ATOM     17  N   UNL     1       3.834  -6.882  -0.064  0.00  0.00    -0.308 N 
ATOM     18  H   UNL     1       3.804  -7.746   0.376  0.00  0.00    +0.149 HD
BRANCH  17  19
ATOM     19  C   UNL     1       4.621  -6.711  -1.288  0.00  0.00    +0.104 C 
ATOM     20  C   UNL     1       6.006  -6.168  -0.931  0.00  0.00    +0.033 C 
BRANCH  19  21
ATOM     21  C   UNL     1       4.765  -8.040  -1.983  0.00  0.00    +0.015 A 
ATOM     22  C   UNL     1       4.612  -8.266  -3.308  0.00  0.00    +0.038 A 
ATOM     23  N   UNL     1       4.823  -9.581  -3.528  0.00  0.00    -0.281 N 
ATOM     24  H   UNL     1       4.781 -10.030  -4.386  0.00  0.00    +0.189 HD
ATOM     25  N   UNL     1       5.116 -10.182  -2.297  0.00  0.00    -0.179 NA
ATOM     26  C   UNL     1       5.087  -9.257  -1.373  0.00  0.00    +0.065 A 
ATOM     27  C   UNL     1       5.349  -9.467   0.097  0.00  0.00    +0.068 C 
ATOM     28  C   UNL     1       4.267  -7.235  -4.351  0.00  0.00    +0.065 C 
ENDBRANCH  19  21
ENDBRANCH  17  19
ENDBRANCH   5  15
BRANCH   1  29
ATOM     29  C   UNL     1       0.462  -2.207   1.016  0.00  0.00    +0.072 C 
ATOM     30  C   UNL     1      -0.922  -2.841   1.167  0.00  0.00    +0.017 C 
BRANCH  29  31
ATOM     31  C   UNL     1       0.321  -0.685   0.946  0.00  0.00    +0.012 C 
BRANCH  31  33
ATOM     32  C   UNL     1      -0.581   1.220  -0.394  0.00  0.00    +0.004 C 
ATOM     33  C   UNL     1      -0.441  -0.301  -0.324  0.00  0.00    -0.003 C 
ENDBRANCH  31  33
ENDBRANCH  29  31
ENDBRANCH   1  29
TORSDOF 6
