REMARK  Name = ZINC67173047
REMARK  2 active torsions:
REMARK  status: ('A' for Active; 'I' for Inactive)
REMARK    1  A    between atoms: C_6  and  C_13
REMARK    2  A    between atoms: C_13  and  N_14
REMARK                            x       y       z     vdW  Elec       q    Type
REMARK                         _______ _______ _______ _____ _____    ______ ____
ROOT
ATOM      1  C   UNL     1      -0.017   1.432   0.010  0.00  0.00    +0.324 C 
ATOM      2  O   UNL     1       1.340   1.909  -0.001  0.00  0.00    -0.344 OA
ATOM      3  C   UNL     1       2.100   0.833  -0.612  0.00  0.00    +0.177 C 
ATOM      4  C   UNL     1       1.934   0.934  -2.102  0.00  0.00    +0.013 C 
ATOM      5  C   UNL     1       1.774  -0.136  -2.862  0.00  0.00    -0.017 C 
ATOM      6  C   UNL     1       1.724  -1.473  -2.254  0.00  0.00    +0.044 C 
ATOM      7  C   UNL     1       1.547  -1.595  -0.945  0.00  0.00    +0.027 C 
ATOM      8  C   UNL     1       1.384  -0.404  -0.038  0.00  0.00    +0.178 C 
ATOM      9  O   UNL     1       0.002  -0.004   0.002  0.00  0.00    -0.344 OA
ATOM     10 CL   UNL     1       1.896  -2.888  -3.245  0.00  0.00    -0.083 Cl
ENDROOT
BRANCH   5  11
ATOM     11  C   UNL     1       1.641   0.017  -4.356  0.00  0.00    +0.114 C 
BRANCH  11  12
ATOM     12  N   UNL     1       2.956  -0.164  -4.985  0.00  0.00    -0.326 NA
ATOM     13  H   UNL     1       3.358  -1.055  -4.733  0.00  0.00    +0.119 HD
ATOM     14  H   UNL     1       2.893  -0.067  -5.988  0.00  0.00    +0.119 HD
ENDBRANCH  11  12
ENDBRANCH   5  11
TORSDOF 2
