REMARK  Name = ZINC11963991
REMARK  6 active torsions:
REMARK  status: ('A' for Active; 'I' for Inactive)
REMARK    1  A    between atoms: C_1  and  C_2
REMARK    2  A    between atoms: C_3  and  C_10
REMARK    3  A    between atoms: C_10  and  N_59
REMARK    4  A    between atoms: C_16  and  C_19
REMARK    5  A    between atoms: C_19  and  N_20
REMARK    6  A    between atoms: C_21  and  C_23
REMARK                            x       y       z     vdW  Elec       q    Type
REMARK                         _______ _______ _______ _____ _____    ______ ____
ROOT
ATOM      1  C   UNL     1       0.054  -6.312  -3.071  0.00  0.00    -0.076 C 
ATOM      2  C   UNL     1      -0.195  -6.957  -1.705  0.00  0.00    +0.016 C 
ATOM      3  C   UNL     1       1.081  -6.873  -0.868  0.00  0.00    +0.067 C 
ATOM      4  C   UNL     1       0.861  -7.569   0.486  0.00  0.00    +0.037 C 
ATOM      5  C   UNL     1       1.041  -6.436   1.527  0.00  0.00    +0.036 C 
ATOM      6  C   UNL     1       0.802  -5.167   0.669  0.00  0.00    +0.136 C 
ATOM      7  O   UNL     1       1.402  -5.500  -0.602  0.00  0.00    -0.369 OA
ATOM      8  C   UNL     1       2.237  -7.543  -1.611  0.00  0.00    +0.016 C 
ATOM      9  C   UNL     1       2.409  -6.880  -2.980  0.00  0.00    -0.076 C 
ATOM     10  N   UNL     1       1.155  -7.032  -3.747  0.00  0.00    +0.384 N 
ATOM     11  H   UNL     1       0.916  -8.029  -3.801  0.00  0.00    -0.081 HD
ENDROOT
BRANCH  10  12
ATOM     12  C   UNL     1       1.334  -6.506  -5.116  0.00  0.00    -0.022 C 
BRANCH  12  15
ATOM     13  C   UNL     1       4.138  -5.165  -4.932  0.00  0.00    +0.067 C 
ATOM     14  C   UNL     1       3.828  -6.474  -5.611  0.00  0.00    +0.059 A 
ATOM     15  C   UNL     1       2.617  -7.051  -5.689  0.00  0.00    +0.030 A 
ATOM     16  N   UNL     1       2.762  -8.245  -6.390  0.00  0.00    -0.299 N 
ATOM     17  C   UNL     1       1.969  -9.285  -6.825  0.00  0.00    +0.100 A 
ATOM     18  C   UNL     1       2.491 -10.302  -7.510  0.00  0.00    +0.067 A 
ATOM     19  S   UNL     1       4.214  -9.838  -7.601  0.00  0.00    -0.058 S 
ATOM     20  C   UNL     1       4.093  -8.307  -6.706  0.00  0.00    +0.178 A 
ATOM     21  N   UNL     1       4.714  -7.261  -6.240  0.00  0.00    -0.226 NA
ENDBRANCH  12  15
ENDBRANCH  10  12
BRANCH   6  22
ATOM     22  C   UNL     1       1.499  -3.957   1.294  0.00  0.00    +0.135 C 
BRANCH  22  23
ATOM     23  N   UNL     1       1.246  -2.770   0.472  0.00  0.00    -0.311 N 
ATOM     24  C   UNL     1       1.766  -1.579   0.831  0.00  0.00    +0.242 C 
ATOM     25  O   UNL     1       2.442  -1.490   1.833  0.00  0.00    -0.273 OA
ATOM     26  H   UNL     1       0.705  -2.842  -0.330  0.00  0.00    +0.149 HD
BRANCH  24  27
ATOM     27  C   UNL     1       1.506  -0.359  -0.014  0.00  0.00    +0.204 C 
ATOM     28  C   UNL     1       0.002  -0.004   0.002  0.00  0.00    +0.043 C 
ATOM     29  C   UNL     1      -0.019   1.541   0.011  0.00  0.00    +0.031 C 
ATOM     30  C   UNL     1       1.474   1.937  -0.002  0.00  0.00    +0.161 C 
ATOM     31  O   UNL     1       2.163   0.795   0.553  0.00  0.00    -0.367 OA
ENDBRANCH  24  27
ENDBRANCH  22  23
ENDBRANCH   6  22
TORSDOF 5
