REMARK  Name = ZINC06546294
REMARK  12 active torsions:
REMARK  status: ('A' for Active; 'I' for Inactive)
REMARK    1  A    between atoms: C_1  and  C_2
REMARK    2  A    between atoms: C_2  and  O_3
REMARK    3  A    between atoms: O_3  and  C_4
REMARK    4  A    between atoms: C_4  and  C_6
REMARK    5  A    between atoms: C_6  and  N_7
REMARK    6  A    between atoms: N_7  and  C_8
REMARK    7  A    between atoms: C_8  and  C_10
REMARK    8  A    between atoms: C_8  and  C_17
REMARK    9  A    between atoms: N_19  and  C_20
REMARK   10  A    between atoms: C_26  and  C_28
REMARK   11  A    between atoms: C_29  and  N_36
REMARK   12  A    between atoms: C_30  and  C_33
REMARK                            x       y       z     vdW  Elec       q    Type
REMARK                         _______ _______ _______ _____ _____    ______ ____
ROOT
ATOM      1  N   UNL     1       1.231  -3.390  -2.300  0.00  0.00    -0.271 N 
ATOM      2  C   UNL     1       2.373  -3.898  -1.794  0.00  0.00    +0.258 C 
ATOM      3  O   UNL     1       2.642  -5.073  -1.961  0.00  0.00    -0.269 OA
ENDROOT
BRANCH   2   4
ATOM      4  C   UNL     1       3.288  -3.037  -1.043  0.00  0.00    +0.115 A 
ATOM      5  C   UNL     1       4.582  -3.301  -0.594  0.00  0.00    +0.076 A 
ATOM      6  C   UNL     1       5.159  -2.236   0.095  0.00  0.00    +0.155 A 
ATOM      7  N   UNL     1       4.475  -1.123   0.258  0.00  0.00    -0.203 NA
ATOM      8  S   UNL     1       3.050  -1.368  -0.467  0.00  0.00    +0.019 S 
BRANCH   6   9
ATOM      9  C   UNL     1       6.525  -2.354   0.637  0.00  0.00    +0.262 C 
ATOM     10  O   UNL     1       7.183  -3.353   0.415  0.00  0.00    -0.269 OA
ATOM     11  N   UNL     1       7.045  -1.356   1.378  0.00  0.00    -0.324 N 
ATOM     12  H   UNL     1       6.520  -0.560   1.556  0.00  0.00    +0.145 HD
ATOM     13  H   UNL     1       7.944  -1.434   1.735  0.00  0.00    +0.145 HD
ENDBRANCH   6   9
BRANCH   5  14
ATOM     14  N   UNL     1       5.232  -4.509  -0.810  0.00  0.00    -0.355 N 
ATOM     15  H   UNL     1       4.825  -5.184  -1.376  0.00  0.00    +0.142 HD
ATOM     16  H   UNL     1       6.093  -4.678  -0.396  0.00  0.00    +0.142 HD
ENDBRANCH   5  14
ENDBRANCH   2   4
BRANCH   1  17
ATOM     17  C   UNL     1       0.905  -1.976  -2.096  0.00  0.00    +0.229 C 
BRANCH  17  18
ATOM     18  C   UNL     1       0.337  -1.787  -0.713  0.00  0.00    +0.325 C 
ATOM     19  O   UNL     1       0.152  -2.744   0.001  0.00  0.00    -0.249 OA
BRANCH  18  20
ATOM     20  O   UNL     1       0.037  -0.554  -0.274  0.00  0.00    -0.464 OA
BRANCH  20  22
ATOM     21  C   UNL     1      -0.775   1.022   1.369  0.00  0.00    +0.048 C 
ATOM     22  C   UNL     1      -0.498  -0.448   1.047  0.00  0.00    +0.229 C 
ENDBRANCH  20  22
ENDBRANCH  18  20
ENDBRANCH  17  18
ENDBRANCH   1  17
BRANCH   1  23
ATOM     23  C   UNL     1       0.317  -4.251  -3.054  0.00  0.00    +0.193 C 
BRANCH  23  24
ATOM     24  C   UNL     1       0.738  -4.286  -4.500  0.00  0.00    -0.018 A 
ATOM     25  C   UNL     1       1.236  -3.146  -5.103  0.00  0.00    +0.009 A 
ATOM     26  C   UNL     1       1.623  -3.177  -6.429  0.00  0.00    +0.038 A 
ATOM     27  C   UNL     1       1.512  -4.350  -7.155  0.00  0.00    +0.123 A 
ATOM     28  C   UNL     1       1.013  -5.492  -6.551  0.00  0.00    +0.038 A 
ATOM     29  C   UNL     1       0.631  -5.460  -5.223  0.00  0.00    +0.009 A 
ATOM     30  F   UNL     1       1.889  -4.382  -8.452  0.00  0.00    -0.205 F 
ENDBRANCH  23  24
BRANCH  23  31
ATOM     31  C   UNL     1      -1.085  -3.707  -2.952  0.00  0.00    +0.238 C 
ATOM     32  O   UNL     1      -1.304  -2.717  -2.287  0.00  0.00    -0.273 OA
ATOM     33  N   UNL     1      -2.095  -4.321  -3.600  0.00  0.00    -0.311 N 
ATOM     34  H   UNL     1      -1.919  -5.113  -4.132  0.00  0.00    +0.149 HD
BRANCH  33  35
ATOM     35  C   UNL     1      -3.457  -3.792  -3.501  0.00  0.00    +0.073 C 
ATOM     36  C   UNL     1      -4.127  -4.342  -2.240  0.00  0.00    +0.022 C 
ATOM     37  C   UNL     1      -5.550  -3.789  -2.136  0.00  0.00    +0.002 C 
ATOM     38  C   UNL     1      -6.353  -4.215  -3.367  0.00  0.00    +0.000 C 
ATOM     39  C   UNL     1      -5.683  -3.665  -4.628  0.00  0.00    +0.002 C 
ATOM     40  C   UNL     1      -4.260  -4.217  -4.732  0.00  0.00    +0.022 C 
ENDBRANCH  33  35
ENDBRANCH  23  31
ENDBRANCH   1  23
TORSDOF 11
