REMARK  Name = ZINC12783829
REMARK  7 active torsions:
REMARK  status: ('A' for Active; 'I' for Inactive)
REMARK    1  A    between atoms: C_1  and  C_2
REMARK    2  A    between atoms: C_9  and  N_14
REMARK    3  A    between atoms: C_15  and  C_17
REMARK    4  A    between atoms: C_22  and  S_23
REMARK    5  A    between atoms: S_23  and  C_24
REMARK    6  A    between atoms: C_24  and  C_25
REMARK    7  A    between atoms: C_25  and  C_32
REMARK                            x       y       z     vdW  Elec       q    Type
REMARK                         _______ _______ _______ _____ _____    ______ ____
ROOT
ATOM      1  C   UNL     1       3.766   7.450   1.173  0.00  0.00    +0.050 A 
ATOM      2  C   UNL     1       2.594   8.134   1.508  0.00  0.00    +0.014 A 
ATOM      3  C   UNL     1       2.660   9.442   1.935  0.00  0.00    +0.001 A 
ATOM      4  C   UNL     1       3.883  10.091   2.021  0.00  0.00    +0.001 A 
ATOM      5  C   UNL     1       5.048   9.432   1.688  0.00  0.00    +0.015 A 
ATOM      6  C   UNL     1       5.003   8.110   1.262  0.00  0.00    +0.020 A 
ENDROOT
BRANCH   1   8
ATOM      7  N   UNL     1       2.514   5.421   0.638  0.00  0.00    -0.281 N 
ATOM      8  C   UNL     1       3.703   6.049   0.722  0.00  0.00    +0.249 C 
ATOM      9  O   UNL     1       4.724   5.459   0.425  0.00  0.00    -0.270 OA
ATOM     10  H   UNL     1       1.693   5.912   0.800  0.00  0.00    +0.155 HD
BRANCH   7  18
ATOM     11  C   UNL     1       3.362  -2.127  -0.840  0.00  0.00    +0.062 C 
ATOM     12  C   UNL     1       3.566  -0.611  -0.842  0.00  0.00    +0.256 C 
ATOM     13  C   UNL     1       4.523  -0.233   0.260  0.00  0.00    +0.258 C 
ATOM     14  O   UNL     1       5.372  -1.018   0.626  0.00  0.00    -0.271 OA
ATOM     15  N   UNL     1       4.431   0.985   0.838  0.00  0.00    -0.279 N 
ATOM     16  C   UNL     1       3.420   1.861   0.420  0.00  0.00    +0.077 A 
ATOM     17  C   UNL     1       3.475   3.208   0.739  0.00  0.00    +0.050 A 
ATOM     18  C   UNL     1       2.462   4.059   0.317  0.00  0.00    +0.036 A 
ATOM     19  C   UNL     1       1.399   3.560  -0.424  0.00  0.00    +0.027 A 
ATOM     20  C   UNL     1       1.344   2.216  -0.743  0.00  0.00    +0.049 A 
ATOM     21  C   UNL     1       2.351   1.364  -0.324  0.00  0.00    +0.143 A 
ATOM     22  O   UNL     1       2.310   0.039  -0.632  0.00  0.00    -0.478 OA
ATOM     23  H   UNL     1       5.054   1.248   1.534  0.00  0.00    +0.155 HD
ENDBRANCH   7  18
ENDBRANCH   1   8
BRANCH   6  24
ATOM     24  S   UNL     1       6.489   7.265   0.836  0.00  0.00    -0.122 S 
BRANCH  24  25
ATOM     25  C   UNL     1       7.789   8.501   1.106  0.00  0.00    +0.109 C 
BRANCH  25  26
ATOM     26  C   UNL     1       9.151   7.891   0.769  0.00  0.00    +0.119 C 
ATOM     27  C   UNL     1      10.262   8.886   1.037  0.00  0.00    +0.244 C 
ATOM     28  O   UNL     1      10.420   9.967   0.510  0.00  0.00    -0.273 OA
ATOM     29  N   UNL     1      11.039   8.321   1.982  0.00  0.00    -0.238 N 
ATOM     30  C   UNL     1      10.577   7.119   2.345  0.00  0.00    +0.307 C 
ATOM     31  O   UNL     1      11.108   6.416   3.183  0.00  0.00    -0.252 OA
ATOM     32  N   UNL     1       9.457   6.773   1.678  0.00  0.00    -0.285 N 
ATOM     33  C   UNL     1       9.185   7.425  -0.688  0.00  0.00    +0.042 C 
ATOM     34  H   UNL     1      11.833   8.734   2.354  0.00  0.00    +0.159 HD
ATOM     35  H   UNL     1       8.952   5.951   1.777  0.00  0.00    +0.151 HD
ENDBRANCH  25  26
ENDBRANCH  24  25
ENDBRANCH   6  24
TORSDOF 5
