REMARK  Name = ZINC46368281
REMARK  8 active torsions:
REMARK  status: ('A' for Active; 'I' for Inactive)
REMARK    1  A    between atoms: C_1  and  C_2
REMARK    2  A    between atoms: C_10  and  C_11
REMARK    3  A    between atoms: N_13  and  N_14
REMARK    4  A    between atoms: N_17  and  C_18
REMARK    5  A    between atoms: C_18  and  C_19
REMARK    6  A    between atoms: C_19  and  C_21
REMARK    7  A    between atoms: C_19  and  N_22
REMARK    8  A    between atoms: C_26  and  C_29
REMARK                            x       y       z     vdW  Elec       q    Type
REMARK                         _______ _______ _______ _____ _____    ______ ____
ROOT
ATOM      1  N   UNL     1       0.691  -0.856   5.080  0.00  0.00    -0.218 N 
ATOM      2  C   UNL     1       0.575  -1.813   6.022  0.00  0.00    +0.316 C 
ATOM      3  O   UNL     1       0.713  -1.530   7.196  0.00  0.00    -0.251 OA
ATOM      4  N   UNL     1       0.307  -3.084   5.662  0.00  0.00    -0.300 N 
ATOM      5  H   UNL     1       0.884   0.059   5.339  0.00  0.00    +0.174 HD
ATOM      6  H   UNL     1       0.197  -3.309   4.725  0.00  0.00    +0.150 HD
ENDROOT
BRANCH   1   9
ATOM      7  C   UNL     1       0.647  -0.225   2.785  0.00  0.00    +0.296 C 
ATOM      8  O   UNL     1       0.890   0.922   3.110  0.00  0.00    -0.265 OA
ATOM      9  N   UNL     1       0.532  -1.182   3.727  0.00  0.00    -0.227 N 
ATOM     10  H   UNL     1       0.339  -2.096   3.468  0.00  0.00    +0.173 HD
BRANCH   7  20
ATOM     11  C   UNL     1       0.863   1.788   0.424  0.00  0.00    +0.048 C 
ATOM     12  C   UNL     1       0.575   0.312   0.334  0.00  0.00    +0.008 A 
ATOM     13  C   UNL     1       0.345  -0.467  -0.883  0.00  0.00    +0.024 A 
ATOM     14  C   UNL     1       0.315  -0.158  -2.245  0.00  0.00    +0.012 A 
ATOM     15  C   UNL     1       0.066  -1.144  -3.157  0.00  0.00    +0.001 A 
ATOM     16  C   UNL     1      -0.156  -2.449  -2.740  0.00  0.00    +0.004 A 
ATOM     17  C   UNL     1      -0.130  -2.775  -1.401  0.00  0.00    +0.047 A 
ATOM     18  C   UNL     1       0.121  -1.788  -0.454  0.00  0.00    +0.136 A 
ATOM     19  O   UNL     1       0.207  -1.800   0.891  0.00  0.00    -0.450 OA
ATOM     20  C   UNL     1       0.480  -0.567   1.365  0.00  0.00    +0.195 A 
ENDBRANCH   7  20
ENDBRANCH   1   9
BRANCH   4  21
ATOM     21  C   UNL     1       0.181  -4.124   6.686  0.00  0.00    +0.090 C 
BRANCH  21  22
ATOM     22  C   UNL     1       0.011  -5.486   6.010  0.00  0.00    -0.054 C 
ATOM     23  C   UNL     1      -0.029  -6.583   7.076  0.00  0.00    -0.012 C 
BRANCH  22  24
ATOM     24  N   UNL     1       1.139  -5.727   5.102  0.00  0.00    +0.383 N 
ATOM     25  C   UNL     1       0.905  -6.966   4.349  0.00  0.00    -0.078 C 
ATOM     26  C   UNL     1       2.038  -7.179   3.344  0.00  0.00    -0.018 C 
ATOM     27  C   UNL     1       3.368  -7.281   4.096  0.00  0.00    -0.001 C 
ATOM     28  C   UNL     1       3.567  -6.016   4.935  0.00  0.00    -0.031 C 
ATOM     29  C   UNL     1       2.377  -5.846   5.882  0.00  0.00    -0.075 C 
ATOM     30  C   UNL     1       4.856  -6.141   5.751  0.00  0.00    +0.005 C 
ATOM     31  H   UNL     1       1.222  -4.955   4.457  0.00  0.00    -0.081 HD
ENDBRANCH  22  24
ENDBRANCH  21  22
ENDBRANCH   4  21
TORSDOF 5
