REMARK  Name = ZINC02214590
REMARK  11 active torsions:
REMARK  status: ('A' for Active; 'I' for Inactive)
REMARK    1  A    between atoms: C_1  and  C_2
REMARK    2  A    between atoms: C_2  and  N_59
REMARK    3  A    between atoms: C_3  and  C_4
REMARK    4  A    between atoms: C_3  and  N_59
REMARK    5  A    between atoms: C_5  and  C_6
REMARK    6  A    between atoms: C_5  and  N_59
REMARK    7  A    between atoms: C_6  and  C_7
REMARK    8  A    between atoms: C_7  and  N_8
REMARK    9  A    between atoms: C_9  and  C_11
REMARK   10  A    between atoms: C_20  and  C_23
REMARK   11  A    between atoms: C_26  and  C_29
REMARK                            x       y       z     vdW  Elec       q    Type
REMARK                         _______ _______ _______ _____ _____    ______ ____
ROOT
ATOM      1  C   UNL     1       4.315   1.526  -1.945  0.00  0.00    +0.237 A 
ATOM      2  N   UNL     1       3.551   0.490  -2.310  0.00  0.00    -0.202 NA
ATOM      3  C   UNL     1       2.296   0.876  -2.388  0.00  0.00    +0.168 A 
ATOM      4  C   UNL     1       1.041   0.178  -2.738  0.00  0.00    +0.055 A 
ATOM      5  C   UNL     1       0.859  -1.180  -3.104  0.00  0.00    -0.024 A 
ATOM      6  C   UNL     1      -0.399  -1.592  -3.383  0.00  0.00    -0.004 A 
ATOM      7  S   UNL     1      -1.403  -0.147  -3.160  0.00  0.00    -0.073 S 
ATOM      8  C   UNL     1      -0.111   0.981  -2.697  0.00  0.00    +0.114 A 
ATOM      9  N   UNL     1      -0.068   2.266  -2.369  0.00  0.00    -0.225 NA
ATOM     10  C   UNL     1       1.048   2.866  -2.064  0.00  0.00    +0.131 A 
ATOM     11  N   UNL     1       2.237   2.203  -2.064  0.00  0.00    -0.198 N 
ATOM     12  N   UNL     1       3.555   2.593  -1.784  0.00  0.00    -0.138 NA
ATOM     13  C   UNL     1       1.022   4.329  -1.701  0.00  0.00    +0.088 C 
ATOM     14  C   UNL     1      -0.840  -2.964  -3.788  0.00  0.00    +0.043 C 
ATOM     15  C   UNL     1       0.302  -3.947  -3.489  0.00  0.00    +0.009 C 
ATOM     16  C   UNL     1       1.609  -3.361  -4.030  0.00  0.00    -0.009 C 
ATOM     17  C   UNL     1       2.029  -2.158  -3.186  0.00  0.00    +0.040 C 
ATOM     18  C   UNL     1       2.705  -4.426  -3.975  0.00  0.00    +0.008 C 
ENDROOT
BRANCH   1  20
ATOM     19  N   UNL     1       6.447   2.594  -1.381  0.00  0.00    -0.309 N 
ATOM     20  C   UNL     1       5.783   1.482  -1.751  0.00  0.00    +0.283 C 
ATOM     21  O   UNL     1       6.388   0.442  -1.926  0.00  0.00    -0.267 OA
ATOM     22  H   UNL     1       5.964   3.424  -1.242  0.00  0.00    +0.149 HD
BRANCH  19  23
ATOM     23  C   UNL     1       7.899   2.551  -1.190  0.00  0.00    +0.103 C 
BRANCH  23  24
ATOM     24  C   UNL     1       8.400   3.936  -0.775  0.00  0.00    +0.000 C 
BRANCH  24  25
ATOM     25  C   UNL     1       9.916   3.890  -0.575  0.00  0.00    -0.077 C 
BRANCH  25  26
ATOM     26  N   UNL     1      10.388   5.239  -0.195  0.00  0.00    +0.379 N 
ATOM     27  H   UNL     1      10.031   5.920  -0.876  0.00  0.00    -0.082 HD
BRANCH  26  29
ATOM     28  C   UNL     1      10.372   4.582   2.188  0.00  0.00    -0.017 C 
ATOM     29  C   UNL     1       9.882   5.591   1.148  0.00  0.00    -0.082 C 
ENDBRANCH  26  29
BRANCH  26  30
ATOM     30  C   UNL     1      11.865   5.279  -0.205  0.00  0.00    -0.082 C 
ATOM     31  C   UNL     1      12.318   6.740  -0.174  0.00  0.00    -0.017 C 
ENDBRANCH  26  30
ENDBRANCH  25  26
ENDBRANCH  24  25
ENDBRANCH  23  24
ENDBRANCH  19  23
ENDBRANCH   1  20
TORSDOF 7
