REMARK  Name = ZINC36925858
REMARK  2 active torsions:
REMARK  status: ('A' for Active; 'I' for Inactive)
REMARK    1  A    between atoms: C_6  and  N_7
REMARK    2  A    between atoms: N_10  and  C_11
REMARK                            x       y       z     vdW  Elec       q    Type
REMARK                         _______ _______ _______ _____ _____    ______ ____
ROOT
ATOM      1  C   UNL     1       0.035   1.416   0.265  0.00  0.00    +0.039 A 
ATOM      2  C   UNL     1       1.248   2.056   0.050  0.00  0.00    +0.042 A 
ATOM      3  C   UNL     1       2.374   1.301  -0.217  0.00  0.00    +0.131 A 
ATOM      4  N   UNL     1       2.308  -0.017  -0.269  0.00  0.00    -0.218 NA
ATOM      5  C   UNL     1       1.170  -0.663  -0.069  0.00  0.00    +0.151 A 
ATOM      6  C   UNL     1      -0.002   0.034   0.204  0.00  0.00    +0.166 A 
ATOM      7  N   UNL     1       1.146  -2.052  -0.134  0.00  0.00    -0.322 N 
ATOM      8 CL   UNL     1       3.894   2.095  -0.487  0.00  0.00    -0.062 Cl
ATOM      9  H   UNL     1       0.303  -2.526  -0.058  0.00  0.00    +0.148 HD
ENDROOT
BRANCH   7  10
ATOM     10  C   UNL     1       2.393  -2.798  -0.318  0.00  0.00    +0.034 C 
ATOM     11  C   UNL     1       3.342  -2.498   0.845  0.00  0.00    +0.029 C 
ATOM     12  C   UNL     1       4.645  -3.278   0.653  0.00  0.00    -0.008 C 
ATOM     13  C   UNL     1       4.341  -4.777   0.616  0.00  0.00    +0.007 C 
ATOM     14  C   UNL     1       3.392  -5.077  -0.546  0.00  0.00    -0.008 C 
ATOM     15  C   UNL     1       2.090  -4.297  -0.355  0.00  0.00    +0.029 C 
ATOM     16  C   UNL     1       4.049  -4.657  -1.863  0.00  0.00    +0.007 C 
ATOM     17  C   UNL     1       4.353  -3.157  -1.825  0.00  0.00    -0.008 C 
ATOM     18  C   UNL     1       5.302  -2.858  -0.663  0.00  0.00    +0.007 C 
ATOM     19  C   UNL     1       3.050  -2.378  -1.634  0.00  0.00    +0.029 C 
ENDBRANCH   7  10
BRANCH   6  20
ATOM     20  N   UNL     1      -1.272  -0.692   0.427  0.00  0.00    +0.060 N 
ATOM     21  O   UNL     1      -2.311  -0.236   0.010  0.00  0.00    -0.126 OA
ATOM     22  O   UNL     1      -1.271  -1.742   1.027  0.00  0.00    -0.126 OA
ENDBRANCH   6  20
TORSDOF 2
