REMARK  Name = ZINC09558855
REMARK  9 active torsions:
REMARK  status: ('A' for Active; 'I' for Inactive)
REMARK    1  A    between atoms: C_1  and  C_2
REMARK    2  A    between atoms: C_5  and  C_38
REMARK    3  A    between atoms: C_6  and  N_8
REMARK    4  A    between atoms: C_21  and  S_22
REMARK    5  A    between atoms: S_22  and  C_23
REMARK    6  A    between atoms: C_23  and  C_24
REMARK    7  A    between atoms: N_26  and  C_27
REMARK    8  A    between atoms: C_32  and  C_37
REMARK    9  A    between atoms: C_34  and  C_36
REMARK                            x       y       z     vdW  Elec       q    Type
REMARK                         _______ _______ _______ _____ _____    ______ ____
ROOT
ATOM      1  N   UNL     1       4.388   4.499  -0.016  0.00  0.00    -0.245 N 
ATOM      2  C   UNL     1       3.882   5.749  -0.004  0.00  0.00    +0.268 A 
ATOM      3  O   UNL     1       4.622   6.715  -0.005  0.00  0.00    -0.267 OA
ATOM      4  C   UNL     1       2.419   5.928   0.011  0.00  0.00    +0.064 A 
ATOM      5  C   UNL     1       1.846   7.199   0.024  0.00  0.00    +0.015 A 
ATOM      6  C   UNL     1       0.473   7.327   0.038  0.00  0.00    +0.001 A 
ATOM      7  C   UNL     1      -0.336   6.201   0.039  0.00  0.00    +0.002 A 
ATOM      8  C   UNL     1       0.220   4.937   0.026  0.00  0.00    +0.027 A 
ATOM      9  C   UNL     1       1.599   4.788   0.013  0.00  0.00    +0.064 A 
ATOM     10  N   UNL     1       2.188   3.530   0.000  0.00  0.00    -0.255 N 
ATOM     11  C   UNL     1       3.552   3.392  -0.014  0.00  0.00    +0.245 A 
ATOM     12  N   UNL     1       3.804   2.105  -0.023  0.00  0.00    -0.109 NA
ATOM     13  N   UNL     1       2.705   1.439  -0.010  0.00  0.00    -0.120 NA
ATOM     14  C   UNL     1       1.681   2.259  -0.002  0.00  0.00    +0.198 A 
ENDROOT
BRANCH   1  20
ATOM     15  C   UNL     1       8.559   3.957  -2.561  0.00  0.00    +0.044 C 
ATOM     16  C   UNL     1       7.822   4.049  -1.250  0.00  0.00    -0.048 A 
ATOM     17  C   UNL     1       8.518   3.952  -0.059  0.00  0.00    +0.004 A 
ATOM     18  C   UNL     1       7.846   4.037   1.147  0.00  0.00    +0.005 A 
ATOM     19  C   UNL     1       6.477   4.218   1.164  0.00  0.00    -0.026 A 
ATOM     20  C   UNL     1       5.775   4.315  -0.030  0.00  0.00    +0.056 A 
ATOM     21  C   UNL     1       6.453   4.225  -1.239  0.00  0.00    +0.030 A 
ATOM     22  C   UNL     1       5.745   4.309   2.478  0.00  0.00    +0.046 C 
ENDBRANCH   1  20
BRANCH  14  23
ATOM     23  S   UNL     1      -0.022   1.810   0.012  0.00  0.00    -0.076 S 
BRANCH  23  24
ATOM     24  C   UNL     1       0.002  -0.004   0.002  0.00  0.00    +0.173 C 
BRANCH  24  25
ATOM     25  C   UNL     1      -1.412  -0.526   0.013  0.00  0.00    +0.224 C 
ATOM     26  O   UNL     1      -2.344   0.250   0.026  0.00  0.00    -0.275 OA
ATOM     27  N   UNL     1      -1.640  -1.854   0.008  0.00  0.00    -0.312 N 
ATOM     28  H   UNL     1      -0.894  -2.474  -0.003  0.00  0.00    +0.149 HD
BRANCH  27  29
ATOM     29  C   UNL     1      -3.014  -2.361   0.018  0.00  0.00    +0.076 C 
ATOM     30  C   UNL     1      -3.550  -2.412  -1.414  0.00  0.00    +0.022 C 
ATOM     31  C   UNL     1      -4.986  -2.942  -1.403  0.00  0.00    +0.002 C 
ATOM     32  C   UNL     1      -5.006  -4.348  -0.801  0.00  0.00    +0.003 C 
ATOM     33  C   UNL     1      -4.470  -4.297   0.631  0.00  0.00    -0.009 C 
ATOM     34  C   UNL     1      -3.035  -3.767   0.621  0.00  0.00    +0.009 C 
ATOM     35  C   UNL     1      -2.499  -3.716   2.053  0.00  0.00    +0.009 C 
ATOM     36  C   UNL     1      -4.490  -5.703   1.234  0.00  0.00    +0.008 C 
ENDBRANCH  27  29
ENDBRANCH  24  25
ENDBRANCH  23  24
ENDBRANCH  14  23
TORSDOF 5
