REMARK  Name = ZINC42871036
REMARK  5 active torsions:
REMARK  status: ('A' for Active; 'I' for Inactive)
REMARK    1  A    between atoms: C_1  and  C_2
REMARK    2  A    between atoms: C_8  and  C_10
REMARK    3  A    between atoms: C_10  and  N_11
REMARK    4  A    between atoms: N_11  and  S_12
REMARK    5  A    between atoms: S_12  and  C_15
REMARK                            x       y       z     vdW  Elec       q    Type
REMARK                         _______ _______ _______ _____ _____    ______ ____
ROOT
ATOM      1  S   UNL     1       0.477   0.304   5.147  0.00  0.00    +0.060 S 
ATOM      2  O   UNL     1       1.363  -0.289   6.088  0.00  0.00    -0.153 OA
ATOM      3  O   UNL     1       0.433   1.706   4.922  0.00  0.00    -0.153 OA
ENDROOT
BRANCH   1   4
ATOM      4  C   UNL     1      -1.151  -0.182   5.613  0.00  0.00    +0.121 A 
ATOM      5  C   UNL     1      -2.259   0.313   4.911  0.00  0.00    +0.035 A 
ATOM      6  C   UNL     1      -3.512  -0.074   5.285  0.00  0.00    +0.072 A 
ATOM      7  C   UNL     1      -3.666  -0.960   6.365  0.00  0.00    +0.249 A 
ATOM      8  O   UNL     1      -4.781  -1.314   6.710  0.00  0.00    -0.268 OA
ATOM      9  N   UNL     1      -2.582  -1.418   7.020  0.00  0.00    -0.327 N 
ATOM     10  H   UNL     1      -2.694  -2.029   7.764  0.00  0.00    +0.168 HD
ATOM     11  C   UNL     1      -1.333  -1.038   6.646  0.00  0.00    +0.114 A 
ENDBRANCH   1   4
BRANCH   1  12
ATOM     12  N   UNL     1       0.799  -0.401   3.684  0.00  0.00    -0.190 NA
ATOM     13  H   UNL     1       1.500  -1.068   3.611  0.00  0.00    +0.148 HD
BRANCH  12  14
ATOM     14  C   UNL     1       0.026  -0.018   2.500  0.00  0.00    +0.109 C 
BRANCH  14  21
ATOM     15  C   UNL     1      -0.019   1.526   0.010  0.00  0.00    +0.008 C 
ATOM     16  C   UNL     1       0.002  -0.004   0.002  0.00  0.00    -0.010 C 
ATOM     17  C   UNL     1       0.718  -0.497  -1.257  0.00  0.00    +0.003 C 
ATOM     18  C   UNL     1       0.739  -2.027  -1.265  0.00  0.00    +0.000 C 
ATOM     19  C   UNL     1       1.479  -2.534  -0.026  0.00  0.00    +0.000 C 
ATOM     20  C   UNL     1       0.763  -2.041   1.233  0.00  0.00    +0.005 C 
ATOM     21  C   UNL     1       0.742  -0.511   1.242  0.00  0.00    +0.007 C 
ENDBRANCH  14  21
ENDBRANCH  12  14
ENDBRANCH   1  12
TORSDOF 4
