REMARK  Name = ZINC40326013
REMARK  5 active torsions:
REMARK  status: ('A' for Active; 'I' for Inactive)
REMARK    1  A    between atoms: C_1  and  C_2
REMARK    2  A    between atoms: C_2  and  C_3
REMARK    3  A    between atoms: C_13  and  C_15
REMARK    4  A    between atoms: C_18  and  N_22
REMARK    5  A    between atoms: C_20  and  N_21
REMARK                            x       y       z     vdW  Elec       q    Type
REMARK                         _______ _______ _______ _____ _____    ______ ____
ROOT
ATOM      1  C   UNL     1       0.766  -0.635  -1.523  0.00  0.00    +0.107 C 
ATOM      2  C   UNL     1       0.729  -2.125  -1.857  0.00  0.00    -0.017 A 
ATOM      3  C   UNL     1      -0.426  -2.787  -2.269  0.00  0.00    +0.013 A 
ATOM      4  C   UNL     1      -0.386  -4.110  -2.544  0.00  0.00    +0.046 A 
ATOM      5  S   UNL     1       1.329  -4.500  -2.230  0.00  0.00    -0.101 S 
ATOM      6  C   UNL     1       1.861  -2.874  -1.760  0.00  0.00    -0.004 A 
ATOM      7  C   UNL     1       3.227  -2.426  -1.355  0.00  0.00    +0.062 C 
ATOM      8  C   UNL     1       3.113  -1.058  -0.665  0.00  0.00    +0.114 C 
ATOM      9  N   UNL     1       2.175  -0.227  -1.438  0.00  0.00    -0.290 N 
ATOM     10  C   UNL     1       2.603   0.890  -2.060  0.00  0.00    +0.249 C 
ATOM     11  O   UNL     1       1.837   1.529  -2.756  0.00  0.00    -0.270 OA
ENDROOT
BRANCH  10  12
ATOM     12  C   UNL     1       3.995   1.335  -1.897  0.00  0.00    +0.058 A 
ATOM     13  C   UNL     1       5.050   0.465  -2.193  0.00  0.00    +0.017 A 
ATOM     14  C   UNL     1       6.342   0.879  -2.042  0.00  0.00    +0.023 A 
ATOM     15  C   UNL     1       6.622   2.169  -1.592  0.00  0.00    +0.026 A 
ATOM     16  C   UNL     1       5.588   3.046  -1.294  0.00  0.00    +0.046 A 
ATOM     17  C   UNL     1       4.271   2.639  -1.448  0.00  0.00    +0.039 A 
BRANCH  17  18
ATOM     18  N   UNL     1       3.231   3.512  -1.157  0.00  0.00    -0.357 N 
ATOM     19  H   UNL     1       2.314   3.197  -1.173  0.00  0.00    +0.142 HD
ATOM     20  H   UNL     1       3.422   4.437  -0.937  0.00  0.00    +0.142 HD
ENDBRANCH  17  18
BRANCH  15  21
ATOM     21  N   UNL     1       7.942   2.579  -1.442  0.00  0.00    -0.358 N 
ATOM     22  H   UNL     1       8.666   1.967  -1.650  0.00  0.00    +0.142 HD
ATOM     23  H   UNL     1       8.139   3.475  -1.129  0.00  0.00    +0.142 HD
ENDBRANCH  15  21
ENDBRANCH  10  12
BRANCH   1  25
ATOM     24  C   UNL     1       0.022   1.117   0.096  0.00  0.00    +0.006 C 
ATOM     25  C   UNL     1       0.073  -0.387  -0.181  0.00  0.00    +0.024 C 
ENDBRANCH   1  25
TORSDOF 4
