REMARK  Name = ZINC40797765
REMARK  6 active torsions:
REMARK  status: ('A' for Active; 'I' for Inactive)
REMARK    1  A    between atoms: C_1  and  C_2
REMARK    2  A    between atoms: N_8  and  C_28
REMARK    3  A    between atoms: C_11  and  C_13
REMARK    4  A    between atoms: C_11  and  C_14
REMARK    5  A    between atoms: N_16  and  C_17
REMARK    6  A    between atoms: C_19  and  C_24
REMARK                            x       y       z     vdW  Elec       q    Type
REMARK                         _______ _______ _______ _____ _____    ______ ____
ROOT
ATOM      1  C   UNL     1       2.194  -4.682   0.833  0.00  0.00    +0.270 C 
ATOM      2  O   UNL     1       2.937  -4.572   1.784  0.00  0.00    -0.271 OA
ATOM      3  N   UNL     1       2.699  -4.724  -0.416  0.00  0.00    -0.281 N 
ATOM      4  H   UNL     1       2.114  -4.893  -1.171  0.00  0.00    +0.155 HD
ENDROOT
BRANCH   1  15
ATOM      5  C   UNL     1       0.032   1.524   0.011  0.00  0.00    +0.044 C 
ATOM      6  C   UNL     1       0.040   0.018   0.002  0.00  0.00    -0.048 A 
ATOM      7  C   UNL     1       0.039  -0.665  -1.200  0.00  0.00    +0.007 A 
ATOM      8  C   UNL     1       0.041  -2.048  -1.217  0.00  0.00    +0.048 A 
ATOM      9  C   UNL     1       0.047  -2.752  -0.025  0.00  0.00    +0.144 A 
ATOM     10  C   UNL     1       0.059  -2.065   1.187  0.00  0.00    +0.078 A 
ATOM     11  C   UNL     1       0.054  -0.679   1.197  0.00  0.00    +0.030 A 
ATOM     12  N   UNL     1       0.099  -2.785   2.389  0.00  0.00    -0.268 N 
ATOM     13  C   UNL     1       0.345  -4.111   2.353  0.00  0.00    +0.273 C 
ATOM     14  O   UNL     1       0.276  -4.771   3.369  0.00  0.00    -0.270 OA
ATOM     15  C   UNL     1       0.705  -4.771   1.046  0.00  0.00    +0.258 C 
ATOM     16  O   UNL     1       0.030  -4.112  -0.028  0.00  0.00    -0.465 OA
ATOM     17  C   UNL     1       0.284  -6.242   1.085  0.00  0.00    +0.076 C 
ATOM     18  C   UNL     1      -0.121  -2.106   3.668  0.00  0.00    +0.138 C 
ENDBRANCH   1  15
BRANCH   3  19
ATOM     19  C   UNL     1       4.069  -4.526  -0.624  0.00  0.00    +0.053 A 
ATOM     20  C   UNL     1       4.815  -3.802   0.297  0.00  0.00    +0.037 A 
ATOM     21  C   UNL     1       6.166  -3.608   0.090  0.00  0.00    +0.057 A 
ATOM     22  C   UNL     1       6.778  -4.133  -1.034  0.00  0.00    +0.014 A 
ATOM     23  C   UNL     1       6.039  -4.854  -1.953  0.00  0.00    +0.022 A 
ATOM     24  C   UNL     1       4.687  -5.057  -1.749  0.00  0.00    +0.062 A 
ATOM     25 CL   UNL     1       3.762  -5.969  -2.900  0.00  0.00    -0.082 Cl
BRANCH  21  26
ATOM     26  C   UNL     1       6.976  -2.822   1.090  0.00  0.00    +0.417 C 
ATOM     27  F   UNL     1       7.487  -3.690   2.061  0.00  0.00    -0.166 F 
ATOM     28  F   UNL     1       8.032  -2.182   0.434  0.00  0.00    -0.166 F 
ATOM     29  F   UNL     1       6.159  -1.866   1.703  0.00  0.00    -0.166 F 
ENDBRANCH  21  26
ENDBRANCH   3  19
TORSDOF 3
