REMARK  Name = ZINC63807631
REMARK  5 active torsions:
REMARK  status: ('A' for Active; 'I' for Inactive)
REMARK    1  A    between atoms: C_1  and  C_2
REMARK    2  A    between atoms: C_4  and  N_8
REMARK    3  A    between atoms: C_9  and  C_11
REMARK    4  A    between atoms: C_11  and  C_23
REMARK    5  A    between atoms: C_12  and  C_13
REMARK                            x       y       z     vdW  Elec       q    Type
REMARK                         _______ _______ _______ _____ _____    ______ ____
ROOT
ATOM      1  C   UNL     1      -2.716  -4.933  -1.643  0.00  0.00    +0.114 C 
ATOM      2  C   UNL     1      -3.211  -6.181  -1.315  0.00  0.00    +0.032 C 
ENDROOT
BRANCH   2   3
ATOM      3  C   UNL     1      -4.051  -6.871  -2.222  0.00  0.00    -0.018 C 
ATOM      4  C   UNL     1      -3.683  -7.162  -3.548  0.00  0.00    +0.008 C 
ATOM      5  C   UNL     1      -4.572  -7.855  -4.388  0.00  0.00    -0.001 C 
ATOM      6  C   UNL     1      -5.643  -8.542  -3.966  0.00  0.00    +0.004 C 
ATOM      7  C   UNL     1      -5.936  -8.637  -2.494  0.00  0.00    +0.159 C 
ATOM      8  C   UNL     1      -5.390  -7.359  -1.870  0.00  0.00    -0.011 C 
ATOM      9  C   UNL     1      -6.362  -6.905  -1.083  0.00  0.00    +0.026 C 
ATOM     10  C   UNL     1      -7.547  -7.641  -1.327  0.00  0.00    +0.106 C 
ATOM     11  N   UNL     1      -7.355  -8.636  -2.160  0.00  0.00    -0.279 NA
ENDBRANCH   2   3
BRANCH   1  13
ATOM     12  N   UNL     1      -1.446  -2.955  -0.983  0.00  0.00    -0.289 N 
ATOM     13  C   UNL     1      -1.928  -4.173  -0.662  0.00  0.00    +0.256 C 
ATOM     14  O   UNL     1      -1.711  -4.642   0.439  0.00  0.00    -0.269 OA
ATOM     15  H   UNL     1      -1.619  -2.581  -1.861  0.00  0.00    +0.151 HD
BRANCH  12  19
ATOM     16  C   UNL     1      -0.066   1.514   0.058  0.00  0.00    +0.088 C 
ATOM     17  C   UNL     1      -0.033   0.008   0.031  0.00  0.00    +0.121 C 
ATOM     18  C   UNL     1      -1.109  -0.749   0.038  0.00  0.00    +0.057 C 
ATOM     19  C   UNL     1      -0.661  -2.198  -0.005  0.00  0.00    +0.205 C 
ATOM     20  N   UNL     1       0.757  -2.087  -0.435  0.00  0.00    -0.131 NA
ATOM     21  O   UNL     1       1.109  -0.722  -0.008  0.00  0.00    -0.409 OA
ATOM     22  H   UNL     1       1.331  -2.773   0.032  0.00  0.00    +0.170 HD
ENDBRANCH  12  19
ENDBRANCH   1  13
BRANCH   1  23
ATOM     23  C   UNL     1      -2.972  -4.380  -2.940  0.00  0.00    +0.104 C 
ATOM     24  N   UNL     1      -3.174  -3.942  -3.968  0.00  0.00    -0.191 NA
ENDBRANCH   1  23
TORSDOF 4
