REMARK  Name = ZINC58551878
REMARK  6 active torsions:
REMARK  status: ('A' for Active; 'I' for Inactive)
REMARK    1  A    between atoms: C_1  and  C_2
REMARK    2  A    between atoms: C_3  and  N_23
REMARK    3  A    between atoms: C_5  and  C_7
REMARK    4  A    between atoms: N_9  and  C_10
REMARK    5  A    between atoms: N_16  and  S_19
REMARK    6  A    between atoms: S_19  and  N_22
REMARK                            x       y       z     vdW  Elec       q    Type
REMARK                         _______ _______ _______ _____ _____    ______ ____
ROOT
ATOM      1  C   UNL     1       3.007  -5.371   0.048  0.00  0.00    +0.036 A 
ATOM      2  C   UNL     1       2.215  -6.513   0.033  0.00  0.00    +0.024 A 
ATOM      3  C   UNL     1       2.806  -7.758   0.113  0.00  0.00    +0.007 A 
ATOM      4  C   UNL     1       4.181  -7.872   0.207  0.00  0.00    -0.023 A 
ATOM      5  C   UNL     1       4.983  -6.741   0.223  0.00  0.00    +0.057 A 
ATOM      6  C   UNL     1       4.385  -5.483   0.136  0.00  0.00    +0.048 A 
ATOM      7  N   UNL     1       6.336  -7.071   0.323  0.00  0.00    -0.193 N 
ATOM      8  C   UNL     1       6.496  -8.526   0.381  0.00  0.00    +0.137 C 
ATOM      9  C   UNL     1       5.069  -9.092   0.306  0.00  0.00    +0.058 C 
ENDROOT
BRANCH   1  12
ATOM     10  C   UNL     1       1.223  -3.884   0.559  0.00  0.00    +0.255 C 
ATOM     11  O   UNL     1       0.626  -4.801   1.091  0.00  0.00    -0.269 OA
ATOM     12  N   UNL     1       2.413  -4.108  -0.033  0.00  0.00    -0.281 N 
ATOM     13  H   UNL     1       2.857  -3.392  -0.514  0.00  0.00    +0.155 HD
BRANCH  10  18
ATOM     14  C   UNL     1      -0.027   1.499   0.007  0.00  0.00    +0.054 C 
ATOM     15  C   UNL     1       0.070   0.022   0.292  0.00  0.00    +0.018 A 
ATOM     16  C   UNL     1      -0.821  -0.759   0.951  0.00  0.00    +0.137 A 
ATOM     17  C   UNL     1      -0.548  -2.097   1.109  0.00  0.00    +0.053 A 
ATOM     18  C   UNL     1       0.648  -2.536   0.562  0.00  0.00    +0.077 A 
ATOM     19  S   UNL     1       1.302  -1.034  -0.141  0.00  0.00    -0.087 S 
BRANCH  16  20
ATOM     20  N   UNL     1      -2.070  -0.179   1.494  0.00  0.00    +0.057 N 
ATOM     21  O   UNL     1      -2.858  -0.883   2.081  0.00  0.00    -0.126 OA
ATOM     22  O   UNL     1      -2.302   0.999   1.351  0.00  0.00    -0.126 OA
ENDBRANCH  16  20
ENDBRANCH  10  18
ENDBRANCH   1  12
BRANCH   7  23
ATOM     23  S   UNL     1       7.578  -5.976   0.368  0.00  0.00    +0.109 S 
ATOM     24  O   UNL     1       8.738  -6.660  -0.085  0.00  0.00    -0.138 OA
ATOM     25  O   UNL     1       7.099  -4.792  -0.255  0.00  0.00    -0.138 OA
BRANCH  23  26
ATOM     26  N   UNL     1       7.841  -5.600   1.959  0.00  0.00    -0.190 NA
ATOM     27  H   UNL     1       8.730  -5.353   2.258  0.00  0.00    +0.146 HD
ATOM     28  H   UNL     1       7.107  -5.627   2.592  0.00  0.00    +0.146 HD
ENDBRANCH  23  26
ENDBRANCH   7  23
TORSDOF 5
