REMARK  Name = ZINC67384949
REMARK  12 active torsions:
REMARK  status: ('A' for Active; 'I' for Inactive)
REMARK    1  A    between atoms: C_1  and  C_2
REMARK    2  A    between atoms: C_2  and  C_3
REMARK    3  A    between atoms: C_2  and  N_4
REMARK    4  A    between atoms: C_5  and  C_7
REMARK    5  A    between atoms: C_11  and  C_13
REMARK    6  A    between atoms: C_13  and  N_14
REMARK    7  A    between atoms: N_17  and  C_18
REMARK    8  A    between atoms: C_18  and  C_19
REMARK    9  A    between atoms: C_22  and  C_25
REMARK   10  A    between atoms: C_25  and  N_26
REMARK   11  A    between atoms: N_26  and  C_27
REMARK   12  A    between atoms: N_26  and  C_28
REMARK                            x       y       z     vdW  Elec       q    Type
REMARK                         _______ _______ _______ _____ _____    ______ ____
ROOT
ATOM      1  N   UNL     1      -5.229  -5.251  -2.947  0.00  0.00    -0.295 N 
ATOM      2  C   UNL     1      -5.537  -6.357  -3.652  0.00  0.00    +0.300 C 
ATOM      3  O   UNL     1      -5.556  -7.442  -3.104  0.00  0.00    -0.253 OA
ATOM      4  N   UNL     1      -5.824  -6.261  -4.966  0.00  0.00    -0.295 N 
ATOM      5  H   UNL     1      -5.214  -4.385  -3.385  0.00  0.00    +0.151 HD
ATOM      6  H   UNL     1      -5.809  -5.395  -5.403  0.00  0.00    +0.151 HD
ENDROOT
BRANCH   1   7
ATOM      7  C   UNL     1      -4.917  -5.355  -1.520  0.00  0.00    +0.141 C 
BRANCH   7  12
ATOM      8  C   UNL     1      -3.030  -2.246  -0.474  0.00  0.00    +0.037 A 
ATOM      9  C   UNL     1      -4.062  -1.462   0.045  0.00  0.00    +0.013 A 
ATOM     10  C   UNL     1      -5.354  -1.946   0.051  0.00  0.00    +0.001 A 
ATOM     11  C   UNL     1      -5.628  -3.204  -0.455  0.00  0.00    +0.005 A 
ATOM     12  C   UNL     1      -4.610  -3.986  -0.971  0.00  0.00    -0.030 A 
ATOM     13  C   UNL     1      -3.314  -3.512  -0.989  0.00  0.00    +0.018 A 
BRANCH   8  15
ATOM     14  N   UNL     1      -1.372  -0.511   0.012  0.00  0.00    -0.309 N 
ATOM     15  C   UNL     1      -1.643  -1.734  -0.485  0.00  0.00    +0.244 C 
ATOM     16  O   UNL     1      -0.747  -2.417  -0.942  0.00  0.00    -0.270 OA
ATOM     17  H   UNL     1      -2.087   0.033   0.377  0.00  0.00    +0.149 HD
BRANCH  14  19
ATOM     18  C   UNL     1      -0.019   1.526   0.010  0.00  0.00    +0.027 C 
ATOM     19  C   UNL     1       0.002  -0.004   0.002  0.00  0.00    +0.067 C 
ATOM     20  C   UNL     1       0.742  -0.511   1.242  0.00  0.00    +0.027 C 
ENDBRANCH  14  19
ENDBRANCH   8  15
ENDBRANCH   7  12
ENDBRANCH   1   7
BRANCH   4  21
ATOM     21  C   UNL     1      -6.159  -7.463  -5.732  0.00  0.00    +0.141 C 
BRANCH  21  22
ATOM     22  C   UNL     1      -6.435  -7.085  -7.165  0.00  0.00    -0.030 A 
ATOM     23  C   UNL     1      -7.719  -6.753  -7.556  0.00  0.00    +0.005 A 
ATOM     24  C   UNL     1      -7.972  -6.406  -8.870  0.00  0.00    +0.002 A 
ATOM     25  C   UNL     1      -6.943  -6.391  -9.792  0.00  0.00    -0.064 A 
ATOM     26  C   UNL     1      -5.659  -6.723  -9.401  0.00  0.00    +0.002 A 
ATOM     27  C   UNL     1      -5.405  -7.066  -8.086  0.00  0.00    +0.005 A 
BRANCH  25  28
ATOM     28  C   UNL     1      -7.219  -6.014 -11.225  0.00  0.00    -0.044 C 
BRANCH  28  29
ATOM     29  N   UNL     1      -7.058  -4.563 -11.389  0.00  0.00    +0.379 N 
ATOM     30  C   UNL     1      -5.655  -4.197 -11.155  0.00  0.00    -0.096 C 
ATOM     31  C   UNL     1      -7.443  -4.179 -12.754  0.00  0.00    -0.096 C 
ATOM     32  H   UNL     1      -7.647  -4.082 -10.726  0.00  0.00    -0.082 HD
ENDBRANCH  28  29
ENDBRANCH  25  28
ENDBRANCH  21  22
ENDBRANCH   4  21
TORSDOF 8
