REMARK  Name = ZINC54108883
REMARK  11 active torsions:
REMARK  status: ('A' for Active; 'I' for Inactive)
REMARK    1  A    between atoms: C_1  and  C_2
REMARK    2  A    between atoms: C_2  and  N_3
REMARK    3  A    between atoms: N_3  and  C_4
REMARK    4  A    between atoms: N_3  and  C_5
REMARK    5  A    between atoms: C_5  and  C_6
REMARK    6  A    between atoms: C_6  and  N_7
REMARK    7  A    between atoms: N_7  and  S_8
REMARK    8  A    between atoms: S_8  and  C_11
REMARK    9  A    between atoms: C_13  and  N_19
REMARK   10  A    between atoms: C_16  and  N_17
REMARK   11  A    between atoms: N_17  and  N_18
REMARK                            x       y       z     vdW  Elec       q    Type
REMARK                         _______ _______ _______ _____ _____    ______ ____
ROOT
ATOM      1  C   UNL     1      -5.320  -4.503  -1.273  0.00  0.00    +0.129 A 
ATOM      2  C   UNL     1      -6.449  -3.761  -0.987  0.00  0.00    +0.063 A 
ATOM      3  C   UNL     1      -7.370  -3.488  -1.982  0.00  0.00    +0.128 A 
ATOM      4  C   UNL     1      -7.162  -3.956  -3.267  0.00  0.00    +0.034 A 
ATOM      5  C   UNL     1      -6.035  -4.698  -3.560  0.00  0.00    +0.028 A 
ATOM      6  C   UNL     1      -5.106  -4.970  -2.563  0.00  0.00    +0.068 A 
ENDROOT
BRANCH   1   7
ATOM      7  S   UNL     1      -4.148  -4.851  -0.004  0.00  0.00    +0.060 S 
ATOM      8  O   UNL     1      -3.893  -6.247  -0.058  0.00  0.00    -0.153 OA
ATOM      9  O   UNL     1      -4.620  -4.207   1.172  0.00  0.00    -0.153 OA
BRANCH   7  10
ATOM     10  N   UNL     1      -2.735  -4.095  -0.422  0.00  0.00    -0.192 NA
ATOM     11  H   UNL     1      -1.943  -4.621  -0.616  0.00  0.00    +0.148 HD
BRANCH  10  12
ATOM     12  C   UNL     1      -2.681  -2.633  -0.499  0.00  0.00    +0.087 C 
BRANCH  12  13
ATOM     13  C   UNL     1      -1.220  -2.177  -0.506  0.00  0.00    -0.062 C 
BRANCH  13  14
ATOM     14  N   UNL     1      -1.166  -0.711  -0.583  0.00  0.00    +0.379 N 
ATOM     15  C   UNL     1      -1.748  -0.134   0.636  0.00  0.00    -0.096 C 
ATOM     16  H   UNL     1      -1.690  -0.397  -1.387  0.00  0.00    -0.082 HD
BRANCH  14  18
ATOM     17  C   UNL     1       0.281   1.237  -0.916  0.00  0.00    -0.017 C 
ATOM     18  C   UNL     1       0.232  -0.279  -0.711  0.00  0.00    -0.083 C 
ENDBRANCH  14  18
ENDBRANCH  13  14
ENDBRANCH  12  13
ENDBRANCH  10  12
ENDBRANCH   7  10
ENDBRANCH   1   7
BRANCH   3  19
ATOM     19  N   UNL     1      -8.579  -2.694  -1.672  0.00  0.00    +0.056 N 
ATOM     20  O   UNL     1      -8.762  -2.285  -0.549  0.00  0.00    -0.126 OA
ATOM     21  O   UNL     1      -9.384  -2.454  -2.541  0.00  0.00    -0.126 OA
ENDBRANCH   3  19
BRANCH   6  22
ATOM     22  N   UNL     1      -3.962  -5.715  -2.858  0.00  0.00    -0.281 N 
ATOM     23  H   UNL     1      -3.277  -5.840  -2.182  0.00  0.00    +0.166 HD
BRANCH  22  24
ATOM     24  N   UNL     1      -3.807  -6.268  -4.097  0.00  0.00    -0.256 NA
ATOM     25  H   UNL     1      -2.936  -6.774  -4.161  0.00  0.00    +0.140 HD
ATOM     26  H   UNL     1      -4.588  -6.862  -4.329  0.00  0.00    +0.140 HD
ENDBRANCH  22  24
ENDBRANCH   6  22
TORSDOF 9
