REMARK  Name = ZINC06756807
REMARK  6 active torsions:
REMARK  status: ('A' for Active; 'I' for Inactive)
REMARK    1  A    between atoms: C_4  and  S_8
REMARK    2  A    between atoms: C_5  and  N_7
REMARK    3  A    between atoms: S_8  and  C_9
REMARK    4  A    between atoms: C_9  and  C_10
REMARK    5  A    between atoms: N_12  and  C_13
REMARK    6  A    between atoms: C_14  and  C_23
REMARK                            x       y       z     vdW  Elec       q    Type
REMARK                         _______ _______ _______ _____ _____    ______ ____
ROOT
ATOM      1  C   UNL     1       5.373  -0.443  -0.051  0.00  0.00    +0.228 C 
ATOM      2  O   UNL     1       5.477   0.765  -0.045  0.00  0.00    -0.275 OA
ATOM      3  N   UNL     1       6.479  -1.214  -0.065  0.00  0.00    -0.278 N 
ATOM      4  H   UNL     1       6.396  -2.181  -0.070  0.00  0.00    +0.155 HD
ENDROOT
BRANCH   3   5
ATOM      5  C   UNL     1       7.735  -0.625  -0.074  0.00  0.00    +0.090 A 
ATOM      6  C   UNL     1       8.975  -1.242  -0.083  0.00  0.00    +0.084 A 
ATOM      7  C   UNL     1      10.157  -0.391  -0.098  0.00  0.00    -0.018 A 
ATOM      8  C   UNL     1       9.902   0.935  -0.083  0.00  0.00    -0.004 A 
ATOM      9  S   UNL     1       8.134   1.060  -0.067  0.00  0.00    -0.077 S 
ATOM     10  C   UNL     1      10.893   2.057  -0.068  0.00  0.00    +0.043 C 
ATOM     11  C   UNL     1      11.947   1.817  -1.157  0.00  0.00    +0.005 C 
ATOM     12  C   UNL     1      13.085   0.998  -0.555  0.00  0.00    +0.001 C 
ATOM     13  C   UNL     1      12.541   0.040   0.503  0.00  0.00    +0.005 C 
ATOM     14  C   UNL     1      11.572  -0.954  -0.128  0.00  0.00    +0.037 C 
BRANCH   6  15
ATOM     15  C   UNL     1       9.091  -2.670  -0.082  0.00  0.00    +0.102 C 
ATOM     16  N   UNL     1       9.184  -3.802  -0.082  0.00  0.00    -0.191 NA
ENDBRANCH   6  15
ENDBRANCH   3   5
BRANCH   1  17
ATOM     17  C   UNL     1       4.009  -1.083  -0.042  0.00  0.00    +0.170 C 
BRANCH  17  18
ATOM     18  S   UNL     1       2.735   0.209  -0.022  0.00  0.00    -0.114 S 
BRANCH  18  22
ATOM     19  C   UNL     1      -1.167  -2.098   0.002  0.00  0.00    +0.002 A 
ATOM     20  C   UNL     1       0.039  -2.776  -0.013  0.00  0.00    +0.001 A 
ATOM     21  C   UNL     1       1.230  -2.075  -0.021  0.00  0.00    +0.016 A 
ATOM     22  C   UNL     1       1.218  -0.687  -0.013  0.00  0.00    +0.029 A 
ATOM     23  C   UNL     1       0.002  -0.004   0.002  0.00  0.00    +0.038 A 
ATOM     24  C   UNL     1      -1.188  -0.716   0.015  0.00  0.00    +0.024 A 
BRANCH  23  25
ATOM     25  N   UNL     1      -0.017   1.396   0.010  0.00  0.00    -0.357 N 
ATOM     26  H   UNL     1       0.816   1.892   0.004  0.00  0.00    +0.142 HD
ATOM     27  H   UNL     1      -0.863   1.869   0.016  0.00  0.00    +0.142 HD
ENDBRANCH  23  25
ENDBRANCH  18  22
ENDBRANCH  17  18
ENDBRANCH   1  17
TORSDOF 6
