REMARK  Name = ZINC01895567
REMARK  15 active torsions:
REMARK  status: ('A' for Active; 'I' for Inactive)
REMARK    1  A    between atoms: C_1  and  C_2
REMARK    2  A    between atoms: C_2  and  C_3
REMARK    3  A    between atoms: C_2  and  O_4
REMARK    4  A    between atoms: O_4  and  C_5
REMARK    5  A    between atoms: C_5  and  C_7
REMARK    6  A    between atoms: C_13  and  C_14
REMARK    7  A    between atoms: C_17  and  C_20
REMARK    8  A    between atoms: C_20  and  O_22
REMARK    9  A    between atoms: O_22  and  C_23
REMARK   10  A    between atoms: C_25  and  N_41
REMARK   11  A    between atoms: C_26  and  C_39
REMARK   12  A    between atoms: C_27  and  C_29
REMARK   13  A    between atoms: C_32  and  C_35
REMARK   14  A    between atoms: C_35  and  O_37
REMARK   15  A    between atoms: O_37  and  C_38
REMARK                            x       y       z     vdW  Elec       q    Type
REMARK                         _______ _______ _______ _____ _____    ______ ____
ROOT
ATOM      1  C   UNL     1      -1.893   5.051   0.904  0.00  0.00    +0.080 C 
ATOM      2  C   UNL     1      -2.850   5.701   0.190  0.00  0.00    +0.100 A 
ATOM      3  N   UNL     1      -2.818   7.048  -0.107  0.00  0.00    -0.257 N 
ATOM      4  C   UNL     1      -3.844   7.557  -0.819  0.00  0.00    +0.271 A 
ATOM      5  O   UNL     1      -3.871   8.736  -1.117  0.00  0.00    -0.266 OA
ATOM      6  C   UNL     1      -4.920   6.647  -1.242  0.00  0.00    +0.079 A 
ATOM      7  C   UNL     1      -6.041   6.913  -1.959  0.00  0.00    +0.028 C 
ATOM      8  S   UNL     1      -4.359   5.103  -0.545  0.00  0.00    -0.065 S 
ATOM      9  C   UNL     1      -1.735   7.818   0.333  0.00  0.00    +0.118 C 
ATOM     10  C   UNL     1      -0.702   7.320   1.048  0.00  0.00    +0.079 C 
ATOM     11  C   UNL     1      -0.702   5.846   1.401  0.00  0.00    +0.102 C 
ENDROOT
BRANCH   7  12
ATOM     12  C   UNL     1      -6.910   5.813  -2.398  0.00  0.00    -0.024 A 
ATOM     13  C   UNL     1      -6.379   4.529  -2.575  0.00  0.00    +0.009 A 
ATOM     14  C   UNL     1      -7.189   3.505  -2.977  0.00  0.00    +0.015 A 
ATOM     15  C   UNL     1      -8.545   3.742  -3.224  0.00  0.00    +0.059 A 
ATOM     16  C   UNL     1      -9.075   5.025  -3.054  0.00  0.00    +0.015 A 
ATOM     17  C   UNL     1      -8.268   6.048  -2.646  0.00  0.00    +0.009 A 
BRANCH  15  18
ATOM     18  C   UNL     1      -9.418   2.637  -3.666  0.00  0.00    +0.339 C 
ATOM     19  O   UNL     1     -10.596   2.842  -3.881  0.00  0.00    -0.245 OA
BRANCH  18  20
ATOM     20  O   UNL     1      -8.908   1.400  -3.831  0.00  0.00    -0.464 OA
ATOM     21  C   UNL     1      -9.825   0.362  -4.267  0.00  0.00    +0.280 C 
ENDBRANCH  18  20
ENDBRANCH  15  18
ENDBRANCH   7  12
BRANCH  11  22
ATOM     22  C   UNL     1       0.549   5.226   0.833  0.00  0.00    -0.034 A 
ATOM     23  C   UNL     1       0.717   5.145  -0.538  0.00  0.00    +0.005 A 
ATOM     24  C   UNL     1       1.861   4.583  -1.063  0.00  0.00    +0.015 A 
ATOM     25  C   UNL     1       2.847   4.085  -0.209  0.00  0.00    +0.059 A 
ATOM     26  C   UNL     1       2.668   4.164   1.174  0.00  0.00    +0.015 A 
ATOM     27  C   UNL     1       1.521   4.734   1.686  0.00  0.00    +0.005 A 
BRANCH  25  28
ATOM     28  C   UNL     1       4.073   3.477  -0.765  0.00  0.00    +0.339 C 
ATOM     29  O   UNL     1       4.928   3.044  -0.019  0.00  0.00    -0.245 OA
BRANCH  28  30
ATOM     30  O   UNL     1       4.242   3.401  -2.099  0.00  0.00    -0.464 OA
ATOM     31  C   UNL     1       5.471   2.791  -2.575  0.00  0.00    +0.280 C 
ENDBRANCH  28  30
ENDBRANCH  25  28
ENDBRANCH  11  22
BRANCH   9  32
ATOM     32  N   UNL     1      -1.721   9.156   0.021  0.00  0.00    -0.343 N 
ATOM     33  H   UNL     1      -0.877   9.627  -0.058  0.00  0.00    +0.144 HD
ATOM     34  H   UNL     1      -2.556   9.629  -0.119  0.00  0.00    +0.144 HD
ENDBRANCH   9  32
BRANCH   1  35
ATOM     35  C   UNL     1      -2.002   3.678   1.169  0.00  0.00    +0.339 C 
ATOM     36  O   UNL     1      -2.966   3.054   0.762  0.00  0.00    -0.245 OA
BRANCH  35  37
ATOM     37  O   UNL     1      -1.038   3.048   1.875  0.00  0.00    -0.459 OA
BRANCH  37  39
ATOM     38  C   UNL     1      -0.572   0.858   0.967  0.00  0.00    +0.052 C 
ATOM     39  C   UNL     1      -1.214   1.649   2.108  0.00  0.00    +0.171 C 
ATOM     40  C   UNL     1      -0.551   1.265   3.432  0.00  0.00    +0.052 C 
ENDBRANCH  37  39
ENDBRANCH  35  37
ENDBRANCH   1  35
BRANCH  10  41
ATOM     41  C   UNL     1       0.373   8.169   1.464  0.00  0.00    +0.099 C 
ATOM     42  N   UNL     1       1.226   8.843   1.794  0.00  0.00    -0.191 NA
ENDBRANCH  10  41
TORSDOF 11
