REMARK  Name = ZINC61707498
REMARK  4 active torsions:
REMARK  status: ('A' for Active; 'I' for Inactive)
REMARK    1  A    between atoms: C_4  and  S_14
REMARK    2  A    between atoms: C_5  and  N_7
REMARK    3  A    between atoms: C_10  and  O_13
REMARK    4  A    between atoms: S_14  and  C_17
REMARK                            x       y       z     vdW  Elec       q    Type
REMARK                         _______ _______ _______ _____ _____    ______ ____
ROOT
ATOM      1  C   UNL     1      -0.334   0.673   0.001  0.00  0.00    +0.002 A 
ATOM      2  C   UNL     1       0.701   1.586   0.090  0.00  0.00    +0.002 A 
ATOM      3  C   UNL     1       2.006   1.146   0.214  0.00  0.00    +0.029 A 
ATOM      4  C   UNL     1       2.280  -0.207   0.251  0.00  0.00    +0.118 A 
ATOM      5  C   UNL     1       1.243  -1.127   0.163  0.00  0.00    +0.055 A 
ATOM      6  C   UNL     1      -0.067  -0.682   0.037  0.00  0.00    +0.025 A 
ENDROOT
BRANCH   5   7
ATOM      7  N   UNL     1       1.516  -2.496   0.200  0.00  0.00    -0.326 N 
ATOM      8  C   UNL     1       1.662  -3.311   1.420  0.00  0.00    +0.108 C 
ATOM      9  C   UNL     1       1.332  -4.757   0.973  0.00  0.00    +0.052 C 
ATOM     10  C   UNL     1       1.956  -4.793  -0.448  0.00  0.00    +0.133 C 
ATOM     11  C   UNL     1       1.700  -3.365  -0.972  0.00  0.00    +0.136 C 
BRANCH  10  12
ATOM     12  O   UNL     1       3.356  -5.072  -0.378  0.00  0.00    -0.390 OA
ATOM     13  H   UNL     1       3.567  -5.930   0.016  0.00  0.00    +0.210 HD
ENDBRANCH  10  12
ENDBRANCH   5   7
BRANCH   4  14
ATOM     14  S   UNL     1       3.943  -0.766   0.409  0.00  0.00    +0.093 S 
ATOM     15  O   UNL     1       3.882  -2.163   0.153  0.00  0.00    -0.161 OA
ATOM     16  O   UNL     1       4.696   0.093  -0.436  0.00  0.00    -0.161 OA
BRANCH  14  17
ATOM     17  C   UNL     1       4.372  -0.468   2.146  0.00  0.00    +0.526 C 
ATOM     18  F   UNL     1       3.433  -1.093   2.973  0.00  0.00    -0.150 F 
ATOM     19  F   UNL     1       5.644  -0.988   2.409  0.00  0.00    -0.150 F 
ATOM     20  F   UNL     1       4.371   0.909   2.397  0.00  0.00    -0.150 F 
ENDBRANCH  14  17
ENDBRANCH   4  14
TORSDOF 4
