REMARK  Name = ZINC20572527
REMARK  7 active torsions:
REMARK  status: ('A' for Active; 'I' for Inactive)
REMARK    1  A    between atoms: C_4  and  N_7
REMARK    2  A    between atoms: N_7  and  C_8
REMARK    3  A    between atoms: C_10  and  N_25
REMARK    4  A    between atoms: C_11  and  N_24
REMARK    5  A    between atoms: N_28  and  C_31
REMARK    6  A    between atoms: C_31  and  C_32
REMARK    7  A    between atoms: C_32  and  O_33
REMARK                            x       y       z     vdW  Elec       q    Type
REMARK                         _______ _______ _______ _____ _____    ______ ____
ROOT
ATOM      1  C   UNL     1       4.326  -1.314  -1.435  0.00  0.00    +0.045 A 
ATOM      2  C   UNL     1       4.194  -2.618  -1.912  0.00  0.00    +0.049 A 
ATOM      3  C   UNL     1       2.958  -3.105  -2.288  0.00  0.00    +0.053 A 
ATOM      4  C   UNL     1       1.812  -2.291  -2.193  0.00  0.00    +0.058 A 
ATOM      5  C   UNL     1       1.929  -0.986  -1.718  0.00  0.00    +0.057 A 
ATOM      6  C   UNL     1       3.199  -0.489  -1.335  0.00  0.00    +0.056 A 
ATOM      7  C   UNL     1       3.321   0.886  -0.837  0.00  0.00    +0.196 C 
ATOM      8  O   UNL     1       4.339   1.248  -0.276  0.00  0.00    -0.287 OA
ATOM      9  C   UNL     1       2.195   1.826  -1.023  0.00  0.00    +0.033 A 
ATOM     10  C   UNL     1       2.373   3.192  -0.828  0.00  0.00    +0.012 A 
ATOM     11  C   UNL     1       1.308   4.056  -1.007  0.00  0.00    +0.001 A 
ATOM     12  C   UNL     1       0.066   3.573  -1.378  0.00  0.00    +0.001 A 
ATOM     13  C   UNL     1      -0.127   2.218  -1.582  0.00  0.00    +0.012 A 
ATOM     14  C   UNL     1       0.932   1.334  -1.402  0.00  0.00    +0.033 A 
ATOM     15  C   UNL     1       0.745  -0.118  -1.611  0.00  0.00    +0.196 C 
ATOM     16  O   UNL     1      -0.373  -0.589  -1.692  0.00  0.00    -0.287 OA
ENDROOT
BRANCH   3  17
ATOM     17  N   UNL     1       2.844  -4.407  -2.762  0.00  0.00    -0.326 N 
ATOM     18  C   UNL     1       3.206  -5.381  -1.723  0.00  0.00    +0.120 C 
ATOM     19  C   UNL     1       2.991  -6.798  -2.258  0.00  0.00    +0.103 C 
ATOM     20  N   UNL     1       3.807  -6.993  -3.464  0.00  0.00    -0.297 NA
ATOM     21  C   UNL     1       3.445  -6.019  -4.504  0.00  0.00    +0.103 C 
ATOM     22  C   UNL     1       3.660  -4.602  -3.969  0.00  0.00    +0.120 C 
BRANCH  20  23
ATOM     23  C   UNL     1       3.686  -8.368  -3.966  0.00  0.00    +0.112 C 
BRANCH  23  24
ATOM     24  C   UNL     1       2.208  -8.755  -4.041  0.00  0.00    +0.171 C 
BRANCH  24  25
ATOM     25  O   UNL     1       1.562  -7.976  -5.049  0.00  0.00    -0.394 OA
ATOM     26  H   UNL     1       0.489  -8.116  -5.249  0.00  0.00    +0.209 HD
ENDBRANCH  24  25
ENDBRANCH  23  24
ENDBRANCH  20  23
ENDBRANCH   3  17
BRANCH   4  27
ATOM     27  N   UNL     1       0.574  -2.785  -2.571  0.00  0.00    -0.356 N 
ATOM     28  H   UNL     1      -0.319  -2.147  -2.497  0.00  0.00    +0.142 HD
ATOM     29  H   UNL     1       0.484  -3.815  -2.946  0.00  0.00    +0.142 HD
ENDBRANCH   4  27
BRANCH   1  30
ATOM     30  N   UNL     1       5.572  -0.835  -1.060  0.00  0.00    -0.314 N 
ATOM     31  H   UNL     1       6.002  -1.120  -0.089  0.00  0.00    +0.152 HD
BRANCH  30  35
ATOM     32  C   UNL     1       7.687   1.687  -3.611  0.00  0.00    +0.000 A 
ATOM     33  C   UNL     1       8.179   1.413  -2.349  0.00  0.00    +0.002 A 
ATOM     34  C   UNL     1       7.480   0.577  -1.500  0.00  0.00    +0.023 A 
ATOM     35  C   UNL     1       6.281   0.011  -1.916  0.00  0.00    +0.031 A 
ATOM     36  C   UNL     1       5.792   0.285  -3.188  0.00  0.00    +0.023 A 
ATOM     37  C   UNL     1       6.494   1.126  -4.029  0.00  0.00    +0.002 A 
ENDBRANCH  30  35
ENDBRANCH   1  30
TORSDOF 7
