REMARK  Name = ZINC07040086
REMARK  5 active torsions:
REMARK  status: ('A' for Active; 'I' for Inactive)
REMARK    1  A    between atoms: C_12  and  C_14
REMARK    2  A    between atoms: N_16  and  N_17
REMARK    3  A    between atoms: C_18  and  C_19
REMARK    4  A    between atoms: N_21  and  C_28
REMARK    5  A    between atoms: C_28  and  C_29
REMARK                            x       y       z     vdW  Elec       q    Type
REMARK                         _______ _______ _______ _____ _____    ______ ____
ROOT
ATOM      1  C   UNL     1       2.658   1.530  -1.435  0.00  0.00    +0.299 C 
ATOM      2  O   UNL     1       2.784   0.362  -1.115  0.00  0.00    -0.265 OA
ATOM      3  N   UNL     1       3.638   2.414  -1.160  0.00  0.00    -0.200 N 
ATOM      4  H   UNL     1       3.507   3.357  -1.348  0.00  0.00    +0.178 HD
ENDROOT
BRANCH   1  16
ATOM      5  C   UNL     1      -4.261   1.374  -5.055  0.00  0.00    +0.001 A 
ATOM      6  C   UNL     1      -3.550   0.288  -4.554  0.00  0.00    +0.001 A 
ATOM      7  C   UNL     1      -2.345   0.465  -3.938  0.00  0.00    +0.009 A 
ATOM      8  C   UNL     1      -1.816   1.752  -3.808  0.00  0.00    -0.007 A 
ATOM      9  C   UNL     1      -2.538   2.860  -4.316  0.00  0.00    -0.017 A 
ATOM     10  C   UNL     1      -3.774   2.642  -4.943  0.00  0.00    +0.008 A 
ATOM     11  C   UNL     1      -2.003   4.156  -4.182  0.00  0.00    +0.012 A 
ATOM     12  C   UNL     1      -0.812   4.365  -3.569  0.00  0.00    +0.047 A 
ATOM     13  C   UNL     1      -0.055   3.307  -3.053  0.00  0.00    +0.136 A 
ATOM     14  C   UNL     1      -0.531   1.993  -3.157  0.00  0.00    +0.029 A 
ATOM     15  C   UNL     1       0.436   1.163  -2.551  0.00  0.00    +0.063 A 
ATOM     16  C   UNL     1       1.440   1.975  -2.121  0.00  0.00    +0.192 A 
ATOM     17  O   UNL     1       1.137   3.256  -2.425  0.00  0.00    -0.450 OA
ENDBRANCH   1  16
BRANCH   3  18
ATOM     18  N   UNL     1       4.844   1.972  -0.601  0.00  0.00    -0.187 NA
ATOM     19  C   UNL     1       5.750   2.833  -0.245  0.00  0.00    +0.140 C 
BRANCH  19  20
ATOM     20  C   UNL     1       5.434   4.270  -0.235  0.00  0.00    +0.020 A 
ATOM     21  C   UNL     1       4.200   4.831  -0.125  0.00  0.00    +0.097 A 
ATOM     22  N   UNL     1       4.309   6.190  -0.154  0.00  0.00    -0.333 N 
ATOM     23  C   UNL     1       5.630   6.561  -0.284  0.00  0.00    +0.051 A 
ATOM     24  C   UNL     1       6.395   5.383  -0.335  0.00  0.00    +0.009 A 
ATOM     25  C   UNL     1       7.779   5.456  -0.472  0.00  0.00    +0.010 A 
ATOM     26  C   UNL     1       8.394   6.687  -0.547  0.00  0.00    +0.001 A 
ATOM     27  C   UNL     1       7.640   7.850  -0.492  0.00  0.00    +0.002 A 
ATOM     28  C   UNL     1       6.270   7.794  -0.361  0.00  0.00    +0.026 A 
BRANCH  22  29
ATOM     29  C   UNL     1       3.183   7.122  -0.059  0.00  0.00    +0.240 C 
BRANCH  29  30
ATOM     30  C   UNL     1       2.752   7.510  -1.412  0.00  0.00    +0.084 C 
ATOM     31  N   UNL     1       2.419   7.809  -2.457  0.00  0.00    -0.195 NA
ENDBRANCH  29  30
ENDBRANCH  22  29
ENDBRANCH  19  20
ENDBRANCH   3  18
TORSDOF 5
