REMARK  Name = ZINC39440502
REMARK  4 active torsions:
REMARK  status: ('A' for Active; 'I' for Inactive)
REMARK    1  A    between atoms: C_1  and  N_2
REMARK    2  A    between atoms: C_3  and  C_10
REMARK    3  A    between atoms: N_12  and  C_13
REMARK    4  A    between atoms: C_13  and  C_14
REMARK                            x       y       z     vdW  Elec       q    Type
REMARK                         _______ _______ _______ _____ _____    ______ ____
ROOT
ATOM      1  C   UNL     1      -4.115  -0.817  -2.457  0.00  0.00    +0.157 C 
ENDROOT
BRANCH   1   2
ATOM      2  C   UNL     1      -5.505  -1.355  -2.232  0.00  0.00    +0.034 A 
ATOM      3  H   UNL     1      -5.304  -3.363  -2.744  0.00  0.00    +0.166 HD
ATOM      4  C   UNL     1      -6.553  -0.630  -1.809  0.00  0.00    +0.032 A 
ATOM      5  C   UNL     1      -7.698  -1.539  -1.728  0.00  0.00    +0.001 A 
ATOM      6  C   UNL     1      -9.036  -1.384  -1.360  0.00  0.00    +0.030 A 
ATOM      7  C   UNL     1      -9.883  -2.470  -1.394  0.00  0.00    +0.042 A 
ATOM      8  C   UNL     1      -9.412  -3.715  -1.791  0.00  0.00    +0.022 A 
ATOM      9  C   UNL     1      -8.094  -3.884  -2.156  0.00  0.00    +0.027 A 
ATOM     10  C   UNL     1      -7.223  -2.801  -2.130  0.00  0.00    +0.047 A 
ATOM     11  N   UNL     1      -5.887  -2.653  -2.435  0.00  0.00    -0.357 N 
ATOM     12 CL   UNL     1     -11.547  -2.282  -0.937  0.00  0.00    -0.084 Cl
ENDBRANCH   1   2
BRANCH   1  15
ATOM     13  C   UNL     1      -2.018  -0.644  -1.230  0.00  0.00    +0.237 C 
ATOM     14  O   UNL     1      -1.532  -0.094  -2.195  0.00  0.00    -0.274 OA
ATOM     15  N   UNL     1      -3.304  -1.045  -1.259  0.00  0.00    -0.308 N 
ATOM     16  H   UNL     1      -3.692  -1.485  -0.486  0.00  0.00    +0.149 HD
BRANCH  13  19
ATOM     17  C   UNL     1      -0.018   1.461   0.010  0.00  0.00    +0.152 C 
ATOM     18  N   UNL     1       0.002  -0.004   0.002  0.00  0.00    -0.245 N 
ATOM     19  C   UNL     1      -1.183  -0.878   0.003  0.00  0.00    +0.200 C 
ATOM     20  C   UNL     1      -0.576  -2.296  -0.009  0.00  0.00    +0.154 C 
ATOM     21  C   UNL     1       0.916  -2.050  -0.015  0.00  0.00    +0.124 C 
ATOM     22  N   UNL     1       1.145  -0.801  -0.014  0.00  0.00    -0.195 NA
ATOM     23 CL   UNL     1      -1.065  -3.206   1.469  0.00  0.00    -0.113 Cl
ENDBRANCH  13  19
ENDBRANCH   1  15
TORSDOF 3
