REMARK  Name = ZINC56875851
REMARK  5 active torsions:
REMARK  status: ('A' for Active; 'I' for Inactive)
REMARK    1  A    between atoms: C_1  and  C_2
REMARK    2  A    between atoms: C_8  and  C_10
REMARK    3  A    between atoms: N_18  and  C_19
REMARK    4  A    between atoms: C_19  and  C_21
REMARK    5  A    between atoms: C_19  and  C_22
REMARK                            x       y       z     vdW  Elec       q    Type
REMARK                         _______ _______ _______ _____ _____    ______ ____
ROOT
ATOM      1  C   UNL     1       0.086  -5.172   3.140  0.00  0.00    +0.078 C 
ATOM      2  C   UNL     1      -1.162  -4.950   3.999  0.00  0.00    +0.032 C 
ATOM      3  C   UNL     1      -1.120  -5.893   5.206  0.00  0.00    +0.110 C 
ATOM      4  N   UNL     1      -0.957  -7.271   4.724  0.00  0.00    -0.286 N 
ATOM      5  C   UNL     1       0.160  -7.575   3.818  0.00  0.00    +0.110 C 
ATOM      6  C   UNL     1       0.104  -6.613   2.627  0.00  0.00    +0.032 C 
ATOM      7  C   UNL     1      -1.814  -8.238   5.106  0.00  0.00    +0.302 C 
ATOM      8  O   UNL     1      -2.678  -7.996   5.926  0.00  0.00    -0.253 OA
ATOM      9  N   UNL     1      -1.714  -9.474   4.577  0.00  0.00    -0.294 N 
ATOM     10  H   UNL     1      -0.981  -9.688   3.979  0.00  0.00    +0.151 HD
ENDROOT
BRANCH   1  18
ATOM     11  C   UNL     1      -0.029   1.502   0.004  0.00  0.00    +0.066 C 
ATOM     12  C   UNL     1      -0.008  -0.005  -0.004  0.00  0.00    +0.047 A 
ATOM     13  C   UNL     1      -0.005  -0.708  -1.163  0.00  0.00    +0.071 A 
ATOM     14  S   UNL     1       0.024  -2.380  -0.539  0.00  0.00    -0.060 S 
ATOM     15  C   UNL     1       0.028  -2.015   1.104  0.00  0.00    +0.165 A 
ATOM     16  N   UNL     1       0.014  -0.700   1.119  0.00  0.00    -0.230 NA
ATOM     17  N   UNL     1       0.047  -2.891   2.183  0.00  0.00    -0.264 N 
ATOM     18  C   UNL     1       0.065  -4.222   1.970  0.00  0.00    +0.222 C 
ATOM     19  O   UNL     1       0.065  -4.655   0.838  0.00  0.00    -0.275 OA
ATOM     20  H   UNL     1       0.047  -2.545   3.089  0.00  0.00    +0.157 HD
ENDBRANCH   1  18
BRANCH   9  21
ATOM     21  C   UNL     1      -2.712 -10.495   4.907  0.00  0.00    +0.100 C 
ATOM     22  C   UNL     1      -3.915 -10.352   3.972  0.00  0.00    +0.030 C 
BRANCH  21  23
ATOM     23  C   UNL     1      -2.096 -11.885   4.737  0.00  0.00    +0.138 C 
ATOM     24  C   UNL     1      -3.107 -12.977   5.168  0.00  0.00    +0.035 C 
ATOM     25  C   UNL     1      -2.594 -14.193   4.348  0.00  0.00    +0.031 C 
ATOM     26  C   UNL     1      -2.084 -13.524   3.054  0.00  0.00    +0.160 C 
ATOM     27  O   UNL     1      -1.828 -12.145   3.350  0.00  0.00    -0.375 OA
ENDBRANCH  21  23
ENDBRANCH   9  21
TORSDOF 3
