REMARK  Name = ZINC22242727
REMARK  7 active torsions:
REMARK  status: ('A' for Active; 'I' for Inactive)
REMARK    1  A    between atoms: C_2  and  C_3
REMARK    2  A    between atoms: C_3  and  N_4
REMARK    3  A    between atoms: C_5  and  C_7
REMARK    4  A    between atoms: C_7  and  N_8
REMARK    5  A    between atoms: N_11  and  C_14
REMARK    6  A    between atoms: C_14  and  C_15
REMARK    7  A    between atoms: C_28  and  C_30
REMARK                            x       y       z     vdW  Elec       q    Type
REMARK                         _______ _______ _______ _____ _____    ______ ____
ROOT
ATOM      1  C   UNL     1      -5.901  -1.976  -2.171  0.00  0.00    +0.234 C 
ATOM      2  O   UNL     1      -4.969  -1.847  -2.938  0.00  0.00    -0.274 OA
ATOM      3  N   UNL     1      -6.874  -2.869  -2.438  0.00  0.00    -0.256 N 
ATOM      4  C   UNL     1      -7.956  -3.028  -1.561  0.00  0.00    +0.058 A 
ATOM      5  C   UNL     1      -8.936  -2.053  -1.464  0.00  0.00    +0.025 A 
ATOM      6  C   UNL     1     -10.008  -2.238  -0.610  0.00  0.00    +0.002 A 
ATOM      7  C   UNL     1     -10.107  -3.393   0.145  0.00  0.00    +0.002 A 
ATOM      8  C   UNL     1      -9.129  -4.367   0.060  0.00  0.00    +0.025 A 
ATOM      9  C   UNL     1      -8.046  -4.184  -0.784  0.00  0.00    +0.055 A 
ATOM     10  N   UNL     1      -7.016  -5.129  -0.845  0.00  0.00    -0.284 N 
ATOM     11  C   UNL     1      -6.560  -5.569  -2.038  0.00  0.00    +0.219 C 
ATOM     12  O   UNL     1      -5.612  -6.324  -2.079  0.00  0.00    -0.275 OA
ATOM     13  C   UNL     1      -7.221  -5.129  -3.317  0.00  0.00    +0.128 C 
ATOM     14  C   UNL     1      -6.824  -3.687  -3.651  0.00  0.00    +0.194 C 
ATOM     15  H   UNL     1      -6.571  -5.519   0.083  0.00  0.00    +0.155 HD
ENDROOT
BRANCH  14  16
ATOM     16  C   UNL     1      -7.791  -3.115  -4.690  0.00  0.00    +0.409 C 
ATOM     17  F   UNL     1      -7.423  -1.801  -4.996  0.00  0.00    -0.169 F 
ATOM     18  F   UNL     1      -7.744  -3.896  -5.850  0.00  0.00    -0.169 F 
ATOM     19  F   UNL     1      -9.091  -3.126  -4.172  0.00  0.00    -0.169 F 
ENDBRANCH  14  16
BRANCH   1  20
ATOM     20  C   UNL     1      -5.969  -1.137  -0.921  0.00  0.00    +0.181 C 
BRANCH  20  24
ATOM     21  N   UNL     1      -3.769   2.465  -0.745  0.00  0.00    +0.387 N 
ATOM     22  C   UNL     1      -3.577   1.488   0.335  0.00  0.00    -0.063 C 
ATOM     23  C   UNL     1      -4.767   0.525   0.366  0.00  0.00    +0.066 C 
ATOM     24  N   UNL     1      -4.883  -0.148  -0.935  0.00  0.00    -0.298 NA
ATOM     25  C   UNL     1      -5.074   0.830  -2.015  0.00  0.00    +0.066 C 
ATOM     26  C   UNL     1      -3.885   1.792  -2.046  0.00  0.00    -0.063 C 
ATOM     27  H   UNL     1      -4.710   3.001  -0.555  0.00  0.00    -0.081 HD
BRANCH  21  28
ATOM     28  C   UNL     1      -2.683   3.454  -0.759  0.00  0.00    +0.019 C 
BRANCH  28  30
ATOM     29  N   UNL     1      -1.842   5.265   0.701  0.00  0.00    -0.313 N 
ATOM     30  C   UNL     1      -2.749   4.290   0.493  0.00  0.00    +0.197 C 
ATOM     31  O   UNL     1      -3.616   4.083   1.315  0.00  0.00    -0.278 OA
ATOM     32  H   UNL     1      -1.056   5.453  -0.045  0.00  0.00    +0.149 HD
BRANCH  29  33
ATOM     33  C   UNL     1      -1.903   6.074   1.921  0.00  0.00    +0.131 C 
BRANCH  33  35
ATOM     34  C   UNL     1      -1.053   8.360   2.049  0.00  0.00    +0.005 C 
ATOM     35  C   UNL     1      -0.785   7.085   1.909  0.00  0.00    -0.016 C 
ENDBRANCH  33  35
ENDBRANCH  29  33
ENDBRANCH  28  30
ENDBRANCH  21  28
ENDBRANCH  20  24
ENDBRANCH   1  20
TORSDOF 7
