REMARK  Name = ZINC66194574
REMARK  10 active torsions:
REMARK  status: ('A' for Active; 'I' for Inactive)
REMARK    1  A    between atoms: C_1  and  C_2
REMARK    2  A    between atoms: C_5  and  C_10
REMARK    3  A    between atoms: C_6  and  O_8
REMARK    4  A    between atoms: O_8  and  C_9
REMARK    5  A    between atoms: C_10  and  N_11
REMARK    6  A    between atoms: N_14  and  C_15
REMARK    7  A    between atoms: C_15  and  C_16
REMARK    8  A    between atoms: C_16  and  C_18
REMARK    9  A    between atoms: C_16  and  N_24
REMARK   10  A    between atoms: C_21  and  C_23
REMARK                            x       y       z     vdW  Elec       q    Type
REMARK                         _______ _______ _______ _____ _____    ______ ____
ROOT
ATOM      1  N   UNL     1      -1.267  -4.731   0.434  0.00  0.00    -0.295 N 
ATOM      2  C   UNL     1      -1.478  -6.046   0.644  0.00  0.00    +0.300 C 
ATOM      3  O   UNL     1      -0.533  -6.803   0.751  0.00  0.00    -0.253 OA
ATOM      4  N   UNL     1      -2.736  -6.521   0.733  0.00  0.00    -0.301 N 
ATOM      5  H   UNL     1      -2.021  -4.127   0.349  0.00  0.00    +0.151 HD
ATOM      6  H   UNL     1      -3.490  -5.916   0.647  0.00  0.00    +0.150 HD
ENDROOT
BRANCH   1   7
ATOM      7  C   UNL     1       0.100  -4.215   0.337  0.00  0.00    +0.146 C 
BRANCH   7  12
ATOM      8  C   UNL     1      -0.077   1.470  -0.415  0.00  0.00    +0.066 C 
ATOM      9  C   UNL     1      -0.027  -0.026  -0.239  0.00  0.00    +0.042 A 
ATOM     10  C   UNL     1       0.189  -0.835  -1.338  0.00  0.00    +0.023 A 
ATOM     11  C   UNL     1       0.234  -2.212  -1.169  0.00  0.00    +0.012 A 
ATOM     12  C   UNL     1       0.060  -2.727   0.104  0.00  0.00    +0.031 A 
ATOM     13  C   UNL     1      -0.153  -1.854   1.163  0.00  0.00    +0.219 A 
ATOM     14  N   UNL     1      -0.184  -0.547   0.963  0.00  0.00    -0.218 NA
BRANCH  13  15
ATOM     15  O   UNL     1      -0.326  -2.346   2.415  0.00  0.00    -0.479 OA
ATOM     16  C   UNL     1      -0.541  -1.397   3.461  0.00  0.00    +0.279 C 
ENDBRANCH  13  15
ENDBRANCH   7  12
ENDBRANCH   1   7
BRANCH   4  17
ATOM     17  C   UNL     1      -2.966  -7.950   0.961  0.00  0.00    +0.098 C 
BRANCH  17  18
ATOM     18  C   UNL     1      -4.462  -8.202   1.155  0.00  0.00    +0.016 C 
BRANCH  18  19
ATOM     19  C   UNL     1      -4.925  -7.528   2.421  0.00  0.00    +0.093 A 
ATOM     20  C   UNL     1      -5.570  -6.349   2.494  0.00  0.00    +0.043 A 
ATOM     21  C   UNL     1      -5.811  -6.099   3.865  0.00  0.00    +0.044 A 
ATOM     22  C   UNL     1      -5.299  -7.140   4.547  0.00  0.00    +0.102 A 
ATOM     23  O   UNL     1      -4.769  -8.005   3.667  0.00  0.00    -0.466 OA
ATOM     24  C   UNL     1      -5.322  -7.309   6.044  0.00  0.00    +0.086 C 
ENDBRANCH  18  19
BRANCH  18  25
ATOM     25  N   UNL     1      -4.707  -9.647   1.252  0.00  0.00    +0.387 N 
ATOM     26  C   UNL     1      -6.157  -9.910   1.434  0.00  0.00    -0.078 C 
ATOM     27  C   UNL     1      -6.315 -11.376   0.959  0.00  0.00    -0.020 C 
ATOM     28  C   UNL     1      -5.338 -11.458  -0.237  0.00  0.00    -0.020 C 
ATOM     29  C   UNL     1      -4.333 -10.313  -0.015  0.00  0.00    -0.078 C 
ATOM     30  H   UNL     1      -4.182 -10.038   2.019  0.00  0.00    -0.081 HD
ENDBRANCH  18  25
ENDBRANCH  17  18
ENDBRANCH   4  17
TORSDOF 7
