REMARK  Name = ZINC19951742
REMARK  5 active torsions:
REMARK  status: ('A' for Active; 'I' for Inactive)
REMARK    1  A    between atoms: C_1  and  C_2
REMARK    2  A    between atoms: C_2  and  C_3
REMARK    3  A    between atoms: N_7  and  C_15
REMARK    4  A    between atoms: C_15  and  C_16
REMARK    5  A    between atoms: C_20  and  C_22
REMARK                            x       y       z     vdW  Elec       q    Type
REMARK                         _______ _______ _______ _____ _____    ______ ____
ROOT
ATOM      1  C   UNL     1      -3.489   3.140   0.834  0.00  0.00    +0.259 C 
ATOM      2  C   UNL     1      -3.553   1.679   0.463  0.00  0.00    +0.261 C 
ATOM      3  O   UNL     1      -4.599   1.072   0.558  0.00  0.00    -0.271 OA
ATOM      4  N   UNL     1      -2.442   1.051   0.026  0.00  0.00    -0.261 N 
ATOM      5  C   UNL     1      -1.275   1.796  -0.192  0.00  0.00    +0.079 A 
ATOM      6  C   UNL     1      -0.065   1.162  -0.420  0.00  0.00    +0.027 A 
ATOM      7  C   UNL     1       1.077   1.913  -0.633  0.00  0.00    +0.002 A 
ATOM      8  C   UNL     1       1.014   3.294  -0.615  0.00  0.00    +0.004 A 
ATOM      9  C   UNL     1      -0.192   3.933  -0.390  0.00  0.00    +0.047 A 
ATOM     10  C   UNL     1      -1.340   3.188  -0.181  0.00  0.00    +0.143 A 
ATOM     11  O   UNL     1      -2.537   3.805   0.009  0.00  0.00    -0.478 OA
ENDROOT
BRANCH   1  13
ATOM     12  C   UNL     1      -3.120   4.748   2.710  0.00  0.00    +0.008 C 
ATOM     13  C   UNL     1      -3.065   3.276   2.297  0.00  0.00    +0.051 C 
ENDBRANCH   1  13
BRANCH   4  14
ATOM     14  C   UNL     1      -2.455  -0.394  -0.218  0.00  0.00    +0.149 C 
BRANCH  14  15
ATOM     15  C   UNL     1      -2.729  -0.654  -1.677  0.00  0.00    -0.029 A 
ATOM     16  C   UNL     1      -4.034  -0.697  -2.137  0.00  0.00    +0.005 A 
ATOM     17  C   UNL     1      -4.295  -0.930  -3.475  0.00  0.00    +0.001 A 
ATOM     18  C   UNL     1      -3.255  -1.133  -4.359  0.00  0.00    +0.015 A 
ATOM     19  C   UNL     1      -1.936  -1.097  -3.900  0.00  0.00    +0.063 A 
ATOM     20  C   UNL     1      -1.680  -0.855  -2.549  0.00  0.00    +0.020 A 
BRANCH  19  21
ATOM     21  C   UNL     1      -0.818  -1.314  -4.840  0.00  0.00    +0.387 C 
ATOM     22  O   UNL     1       0.328  -1.282  -4.439  0.00  0.00    -0.241 OA
ATOM     23  O   UNL     1      -1.068  -1.546  -6.144  0.00  0.00    -0.241 OA
ENDBRANCH  19  21
ENDBRANCH  14  15
ENDBRANCH   4  14
TORSDOF 4
