REMARK  Name = ZINC33960519
REMARK  8 active torsions:
REMARK  status: ('A' for Active; 'I' for Inactive)
REMARK    1  A    between atoms: C_1  and  C_2
REMARK    2  A    between atoms: C_5  and  C_26
REMARK    3  A    between atoms: C_6  and  C_7
REMARK    4  A    between atoms: C_6  and  C_8
REMARK    5  A    between atoms: N_11  and  O_12
REMARK    6  A    between atoms: O_12  and  C_13
REMARK    7  A    between atoms: C_13  and  C_15
REMARK    8  A    between atoms: N_28  and  C_29
REMARK                            x       y       z     vdW  Elec       q    Type
REMARK                         _______ _______ _______ _____ _____    ______ ____
ROOT
ATOM      1  C   UNL     1      -0.057   1.525   0.035  0.00  0.00    +0.018 C 
ATOM      2  C   UNL     1      -0.028  -0.004   0.021  0.00  0.00    +0.015 C 
ATOM      3  C   UNL     1       0.714  -0.660  -1.183  0.00  0.00    +0.014 C 
ATOM      4  C   UNL     1       1.042  -2.093  -0.706  0.00  0.00    +0.018 C 
ATOM      5  C   UNL     1       0.459  -2.165   0.739  0.00  0.00    +0.058 C 
ATOM      6  C   UNL     1       0.706  -0.693   1.225  0.00  0.00    -0.010 C 
ATOM      7  C   UNL     1       0.018  -0.404   2.561  0.00  0.00    +0.013 C 
ATOM      8  C   UNL     1       2.195  -0.344   1.266  0.00  0.00    +0.013 C 
ATOM      9  C   UNL     1      -1.087  -2.132   0.532  0.00  0.00    +0.071 C 
ATOM     10  C   UNL     1      -1.395  -0.700   0.081  0.00  0.00    +0.066 C 
ATOM     11  N   UNL     1      -2.536  -0.195  -0.203  0.00  0.00    -0.083 NA
ENDROOT
BRANCH   5  12
ATOM     12  C   UNL     1       1.002  -3.262   1.619  0.00  0.00    +0.224 C 
ATOM     13  O   UNL     1       1.580  -2.983   2.648  0.00  0.00    -0.275 OA
ATOM     14  N   UNL     1       0.845  -4.552   1.262  0.00  0.00    -0.284 N 
ATOM     15  H   UNL     1       0.326  -4.777   0.474  0.00  0.00    +0.155 HD
BRANCH  14  16
ATOM     16  C   UNL     1       1.429  -5.566   2.029  0.00  0.00    +0.052 A 
ATOM     17  C   UNL     1       1.525  -5.429   3.407  0.00  0.00    +0.025 A 
ATOM     18  C   UNL     1       2.103  -6.432   4.162  0.00  0.00    +0.002 A 
ATOM     19  C   UNL     1       2.585  -7.572   3.546  0.00  0.00    +0.002 A 
ATOM     20  C   UNL     1       2.491  -7.713   2.174  0.00  0.00    +0.022 A 
ATOM     21  C   UNL     1       1.909  -6.716   1.413  0.00  0.00    +0.062 A 
ATOM     22 CL   UNL     1       1.785  -6.896  -0.309  0.00  0.00    -0.082 Cl
ENDBRANCH  14  16
ENDBRANCH   5  12
BRANCH  11  23
ATOM     23  O   UNL     1      -3.707  -0.984  -0.092  0.00  0.00    -0.312 OA
BRANCH  23  24
ATOM     24  C   UNL     1      -4.840  -0.332  -0.420  0.00  0.00    +0.373 C 
ATOM     25  O   UNL     1      -4.792   0.830  -0.773  0.00  0.00    -0.242 OA
BRANCH  24  26
ATOM     26  C   UNL     1      -6.135  -1.027  -0.352  0.00  0.00    +0.146 A 
ATOM     27  C   UNL     1      -7.319  -0.384  -0.690  0.00  0.00    +0.033 A 
ATOM     28  C   UNL     1      -8.531  -1.110  -0.569  0.00  0.00    +0.018 A 
ATOM     29  C   UNL     1      -9.728  -0.588  -1.081  0.00  0.00    +0.011 A 
ATOM     30  C   UNL     1     -10.878  -1.318  -0.994  0.00  0.00    +0.001 A 
ATOM     31  C   UNL     1     -10.876  -2.571  -0.396  0.00  0.00    +0.004 A 
ATOM     32  C   UNL     1      -9.715  -3.095   0.132  0.00  0.00    +0.047 A 
ATOM     33  C   UNL     1      -8.534  -2.369   0.061  0.00  0.00    +0.139 A 
ATOM     34  O   UNL     1      -7.396  -2.854   0.614  0.00  0.00    -0.422 OA
ATOM     35  C   UNL     1      -6.227  -2.437   0.071  0.00  0.00    +0.352 A 
ATOM     36  O   UNL     1      -5.284  -3.195  -0.058  0.00  0.00    -0.244 OA
ENDBRANCH  24  26
ENDBRANCH  23  24
ENDBRANCH  11  23
TORSDOF 5
