REMARK  Name = ZINC63517455
REMARK  8 active torsions:
REMARK  status: ('A' for Active; 'I' for Inactive)
REMARK    1  A    between atoms: C_1  and  C_2
REMARK    2  A    between atoms: C_6  and  C_8
REMARK    3  A    between atoms: C_8  and  N_9
REMARK    4  A    between atoms: N_12  and  C_15
REMARK    5  A    between atoms: C_15  and  C_16
REMARK    6  A    between atoms: C_16  and  C_17
REMARK    7  A    between atoms: C_17  and  N_18
REMARK    8  A    between atoms: C_26  and  N_27
REMARK                            x       y       z     vdW  Elec       q    Type
REMARK                         _______ _______ _______ _____ _____    ______ ____
ROOT
ATOM      1  N   UNL     1       1.444  -3.074   2.904  0.00  0.00    -0.302 NA
ATOM      2  C   UNL     1       2.131  -3.976   1.969  0.00  0.00    +0.066 C 
ATOM      3  C   UNL     1       3.590  -4.141   2.403  0.00  0.00    -0.063 C 
ATOM      4  N   UNL     1       3.636  -4.691   3.764  0.00  0.00    +0.381 N 
ATOM      5  C   UNL     1       2.967  -3.767   4.691  0.00  0.00    -0.063 C 
ATOM      6  C   UNL     1       1.504  -3.599   4.276  0.00  0.00    +0.066 C 
ATOM      7  H   UNL     1       3.166  -5.583   3.783  0.00  0.00    -0.082 HD
ENDROOT
BRANCH   1   8
ATOM      8  C   UNL     1       0.054  -2.845   2.489  0.00  0.00    +0.119 C 
BRANCH   8  14
ATOM      9  C   UNL     1      -0.018   1.503   0.010  0.00  0.00    +0.044 C 
ATOM     10  C   UNL     1       0.002  -0.004   0.002  0.00  0.00    -0.050 A 
ATOM     11  C   UNL     1       0.006  -0.689  -1.199  0.00  0.00    +0.003 A 
ATOM     12  C   UNL     1       0.025  -2.071  -1.207  0.00  0.00    +0.001 A 
ATOM     13  C   UNL     1       0.040  -2.768  -0.013  0.00  0.00    +0.005 A 
ATOM     14  C   UNL     1       0.037  -2.084   1.188  0.00  0.00    -0.033 A 
ATOM     15  C   UNL     1       0.023  -0.702   1.195  0.00  0.00    +0.008 A 
ENDBRANCH   8  14
ENDBRANCH   1   8
BRANCH   4  16
ATOM     16  C   UNL     1       5.036  -4.866   4.174  0.00  0.00    -0.077 C 
BRANCH  16  17
ATOM     17  C   UNL     1       5.085  -5.553   5.540  0.00  0.00    +0.003 C 
BRANCH  17  18
ATOM     18  C   UNL     1       6.543  -5.736   5.966  0.00  0.00    +0.123 C 
BRANCH  18  19
ATOM     19  N   UNL     1       6.591  -6.394   7.274  0.00  0.00    -0.315 N 
ATOM     20  C   UNL     1       6.685  -5.775   8.486  0.00  0.00    +0.201 A 
ATOM     21  N   UNL     1       6.702  -6.662   9.438  0.00  0.00    -0.231 NA
ATOM     22  C   UNL     1       6.621  -7.903   8.899  0.00  0.00    +0.147 A 
ATOM     23  C   UNL     1       6.543  -7.745   7.505  0.00  0.00    +0.165 A 
ATOM     24  N   UNL     1       6.448  -8.826   6.737  0.00  0.00    -0.216 NA
ATOM     25  C   UNL     1       6.425 -10.029   7.272  0.00  0.00    +0.225 A 
ATOM     26  N   UNL     1       6.492 -10.227   8.575  0.00  0.00    -0.219 NA
ATOM     27  C   UNL     1       6.598  -9.207   9.422  0.00  0.00    +0.147 A 
BRANCH  27  28
ATOM     28  N   UNL     1       6.666  -9.425  10.787  0.00  0.00    -0.341 N 
ATOM     29  H   UNL     1       6.732  -8.672  11.395  0.00  0.00    +0.144 HD
ATOM     30  H   UNL     1       6.649 -10.330  11.135  0.00  0.00    +0.144 HD
ENDBRANCH  27  28
ENDBRANCH  18  19
ENDBRANCH  17  18
ENDBRANCH  16  17
ENDBRANCH   4  16
TORSDOF 7
