REMARK  Name = ZINC19849572
REMARK  4 active torsions:
REMARK  status: ('A' for Active; 'I' for Inactive)
REMARK    1  A    between atoms: C_4  and  C_7
REMARK    2  A    between atoms: C_7  and  N_9
REMARK    3  A    between atoms: C_15  and  C_18
REMARK    4  A    between atoms: C_15  and  N_21
REMARK                            x       y       z     vdW  Elec       q    Type
REMARK                         _______ _______ _______ _____ _____    ______ ____
ROOT
ATOM      1  N   UNL     1       3.302  -2.070   0.260  0.00  0.00    -0.147 NA
ATOM      2  C   UNL     1       4.492  -2.615   0.052  0.00  0.00    +0.172 C 
ATOM      3  N   UNL     1       5.601  -1.825  -0.014  0.00  0.00    -0.333 N 
ATOM      4  N   UNL     1       4.606  -3.965  -0.096  0.00  0.00    -0.305 N 
ATOM      5  C   UNL     1       3.436  -4.838   0.065  0.00  0.00    +0.106 C 
ATOM      6  C   UNL     1       3.768  -5.924   1.093  0.00  0.00    +0.016 C 
ATOM      7  C   UNL     1       5.043  -6.655   0.662  0.00  0.00    +0.015 C 
ATOM      8  C   UNL     1       6.208  -5.664   0.612  0.00  0.00    +0.016 C 
ATOM      9  C   UNL     1       5.902  -4.575  -0.427  0.00  0.00    +0.106 C 
ATOM     10  H   UNL     1       6.315  -2.042  -0.634  0.00  0.00    +0.145 HD
ATOM     11  H   UNL     1       5.677  -1.046   0.559  0.00  0.00    +0.145 HD
ENDROOT
BRANCH   7  12
ATOM     12  N   UNL     1       5.346  -7.719   1.628  0.00  0.00    +0.389 N 
ATOM     13  C   UNL     1       4.262  -8.708   1.621  0.00  0.00    -0.077 C 
ATOM     14  C   UNL     1       4.534  -9.776   2.683  0.00  0.00    -0.019 C 
ATOM     15  C   UNL     1       5.863 -10.471   2.371  0.00  0.00    -0.004 C 
ATOM     16  C   UNL     1       6.974  -9.420   2.307  0.00  0.00    -0.019 C 
ATOM     17  C   UNL     1       6.612  -8.365   1.260  0.00  0.00    -0.077 C 
ATOM     18  H   UNL     1       5.430  -7.321   2.551  0.00  0.00    -0.080 HD
ENDBRANCH   7  12
BRANCH   7  19
ATOM     19  C   UNL     1       4.838  -7.259  -0.703  0.00  0.00    +0.200 C 
ATOM     20  O   UNL     1       3.715  -7.445  -1.122  0.00  0.00    -0.278 OA
ATOM     21  N   UNL     1       5.903  -7.593  -1.459  0.00  0.00    -0.330 N 
ATOM     22  H   UNL     1       6.799  -7.512  -1.097  0.00  0.00    +0.145 HD
ATOM     23  H   UNL     1       5.773  -7.916  -2.364  0.00  0.00    +0.145 HD
ENDBRANCH   7  19
BRANCH   1  24
ATOM     24  C   UNL     1       3.165  -0.737   0.250  0.00  0.00    +0.270 C 
ATOM     25  O   UNL     1       4.147  -0.025   0.150  0.00  0.00    -0.268 OA
BRANCH  24  29
ATOM     26  C   UNL     1      -0.700   1.002   0.563  0.00  0.00    +0.000 A 
ATOM     27  C   UNL     1       0.414   1.815   0.451  0.00  0.00    +0.001 A 
ATOM     28  C   UNL     1       1.671   1.256   0.349  0.00  0.00    +0.013 A 
ATOM     29  C   UNL     1       1.818  -0.131   0.359  0.00  0.00    +0.039 A 
ATOM     30  C   UNL     1       0.691  -0.945   0.474  0.00  0.00    +0.013 A 
ATOM     31  C   UNL     1      -0.561  -0.374   0.575  0.00  0.00    +0.001 A 
ENDBRANCH  24  29
ENDBRANCH   1  24
TORSDOF 4
