REMARK  Name = ZINC12709616
REMARK  9 active torsions:
REMARK  status: ('A' for Active; 'I' for Inactive)
REMARK    1  A    between atoms: C_1  and  C_2
REMARK    2  A    between atoms: C_5  and  N_9
REMARK    3  A    between atoms: C_7  and  C_8
REMARK    4  A    between atoms: N_9  and  C_10
REMARK    5  A    between atoms: C_10  and  C_11
REMARK    6  A    between atoms: N_13  and  C_14
REMARK    7  A    between atoms: C_20  and  C_22
REMARK    8  A    between atoms: C_23  and  N_30
REMARK    9  A    between atoms: C_24  and  C_27
REMARK                            x       y       z     vdW  Elec       q    Type
REMARK                         _______ _______ _______ _____ _____    ______ ____
ROOT
ATOM      1  N   UNL     1       4.596   0.608   1.306  0.00  0.00    -0.258 N 
ATOM      2  C   UNL     1       4.343   0.691   2.628  0.00  0.00    +0.261 C 
ATOM      3  O   UNL     1       3.641   1.588   3.058  0.00  0.00    -0.269 OA
ENDROOT
BRANCH   1   8
ATOM      4  C   UNL     1       7.384  -3.873  -0.772  0.00  0.00    +0.044 C 
ATOM      5  C   UNL     1       6.643  -2.682  -0.220  0.00  0.00    -0.047 A 
ATOM      6  C   UNL     1       7.348  -1.616   0.308  0.00  0.00    +0.005 A 
ATOM      7  C   UNL     1       6.672  -0.521   0.810  0.00  0.00    +0.024 A 
ATOM      8  C   UNL     1       5.283  -0.496   0.794  0.00  0.00    +0.037 A 
ATOM      9  C   UNL     1       4.579  -1.569   0.264  0.00  0.00    +0.027 A 
ATOM     10  C   UNL     1       5.261  -2.659  -0.242  0.00  0.00    -0.046 A 
ATOM     11  C   UNL     1       4.497  -3.824  -0.818  0.00  0.00    +0.044 C 
ENDBRANCH   1   8
BRANCH   2  12
ATOM     12  C   UNL     1       4.911  -0.298   3.545  0.00  0.00    +0.116 A 
ATOM     13  C   UNL     1       4.816  -0.372   4.936  0.00  0.00    +0.076 A 
ATOM     14  C   UNL     1       5.497  -1.470   5.460  0.00  0.00    +0.155 A 
ATOM     15  N   UNL     1       6.129  -2.285   4.644  0.00  0.00    -0.203 NA
ATOM     16  S   UNL     1       5.901  -1.734   3.185  0.00  0.00    +0.019 S 
BRANCH  14  17
ATOM     17  C   UNL     1       5.511  -1.715   6.914  0.00  0.00    +0.262 C 
ATOM     18  O   UNL     1       4.925  -0.957   7.663  0.00  0.00    -0.269 OA
ATOM     19  N   UNL     1       6.172  -2.778   7.413  0.00  0.00    -0.324 N 
ATOM     20  H   UNL     1       6.639  -3.382   6.816  0.00  0.00    +0.145 HD
ATOM     21  H   UNL     1       6.180  -2.939   8.370  0.00  0.00    +0.145 HD
ENDBRANCH  14  17
BRANCH  13  22
ATOM     22  N   UNL     1       4.120   0.545   5.712  0.00  0.00    -0.355 N 
ATOM     23  H   UNL     1       3.664   1.290   5.290  0.00  0.00    +0.142 HD
ATOM     24  H   UNL     1       4.089   0.441   6.676  0.00  0.00    +0.142 HD
ENDBRANCH  13  22
ENDBRANCH   2  12
BRANCH   1  25
ATOM     25  C   UNL     1       4.151   1.676   0.407  0.00  0.00    +0.209 C 
BRANCH  25  26
ATOM     26  C   UNL     1       2.765   1.365  -0.096  0.00  0.00    +0.231 C 
ATOM     27  O   UNL     1       2.204   0.351   0.262  0.00  0.00    -0.274 OA
ATOM     28  N   UNL     1       2.149   2.213  -0.943  0.00  0.00    -0.311 N 
ATOM     29  H   UNL     1       2.598   3.024  -1.229  0.00  0.00    +0.149 HD
BRANCH  28  30
ATOM     30  C   UNL     1       0.802   1.910  -1.431  0.00  0.00    +0.073 C 
ATOM     31  C   UNL     1      -0.232   2.405  -0.417  0.00  0.00    +0.022 C 
ATOM     32  C   UNL     1      -1.639   2.089  -0.927  0.00  0.00    +0.002 C 
ATOM     33  C   UNL     1      -1.864   2.790  -2.268  0.00  0.00    +0.000 C 
ATOM     34  C   UNL     1      -0.831   2.295  -3.283  0.00  0.00    +0.002 C 
ATOM     35  C   UNL     1       0.576   2.611  -2.772  0.00  0.00    +0.022 C 
ENDBRANCH  28  30
ENDBRANCH  25  26
ENDBRANCH   1  25
TORSDOF 7
