REMARK  Name = ZINC30262234
REMARK  6 active torsions:
REMARK  status: ('A' for Active; 'I' for Inactive)
REMARK    1  A    between atoms: C_1  and  C_2
REMARK    2  A    between atoms: C_2  and  C_4
REMARK    3  A    between atoms: C_2  and  N_15
REMARK    4  A    between atoms: N_6  and  C_7
REMARK    5  A    between atoms: C_8  and  C_12
REMARK    6  A    between atoms: C_21  and  C_23
REMARK                            x       y       z     vdW  Elec       q    Type
REMARK                         _______ _______ _______ _____ _____    ______ ____
ROOT
ATOM      1  N   UNL     1      -4.781   0.110   0.716  0.00  0.00    +0.389 N 
ATOM      2  C   UNL     1      -4.702   1.569   0.872  0.00  0.00    -0.058 C 
ATOM      3  C   UNL     1      -3.748   2.141  -0.182  0.00  0.00    +0.089 C 
ATOM      4  N   UNL     1      -2.462   1.434  -0.080  0.00  0.00    -0.301 N 
ATOM      5  C   UNL     1      -2.473  -0.036  -0.097  0.00  0.00    +0.089 C 
ATOM      6  C   UNL     1      -3.478  -0.523   0.960  0.00  0.00    -0.058 C 
ATOM      7  C   UNL     1      -1.304   2.117   0.020  0.00  0.00    +0.248 C 
ATOM      8  O   UNL     1      -1.320   3.327   0.133  0.00  0.00    -0.270 OA
ATOM      9  H   UNL     1      -5.065  -0.101  -0.326  0.00  0.00    -0.081 HD
ENDROOT
BRANCH   7  10
ATOM     10  C   UNL     1      -0.016   1.394  -0.008  0.00  0.00    +0.055 A 
ATOM     11  C   UNL     1       0.276   0.522  -1.059  0.00  0.00    +0.016 A 
ATOM     12  C   UNL     1       1.482  -0.145  -1.083  0.00  0.00    +0.021 A 
ATOM     13  C   UNL     1       2.404   0.047  -0.066  0.00  0.00    +0.042 A 
ATOM     14  C   UNL     1       2.122   0.909   0.979  0.00  0.00    +0.040 A 
ATOM     15  C   UNL     1       0.917   1.584   1.014  0.00  0.00    +0.054 A 
ATOM     16 CL   UNL     1       0.564   2.666   2.325  0.00  0.00    -0.083 Cl
ATOM     17 CL   UNL     1       3.920  -0.798  -0.103  0.00  0.00    -0.083 Cl
ENDBRANCH   7  10
BRANCH   1  19
ATOM     18  C   UNL     1      -5.416  -0.246   3.054  0.00  0.00    -0.004 C 
ATOM     19  C   UNL     1      -5.814  -0.458   1.592  0.00  0.00    +0.017 C 
BRANCH  19  20
ATOM     20  C   UNL     1      -5.950  -1.934   1.317  0.00  0.00    +0.204 C 
ATOM     21  O   UNL     1      -5.255  -2.460   0.475  0.00  0.00    -0.277 OA
ATOM     22  N   UNL     1      -6.844  -2.668   2.008  0.00  0.00    -0.281 N 
ATOM     23  H   UNL     1      -7.475  -2.191   2.773  0.00  0.00    +0.155 HD
BRANCH  22  24
ATOM     24  C   UNL     1      -6.970  -4.026   1.756  0.00  0.00    +0.084 A 
ATOM     25  C   UNL     1      -7.821  -4.942   2.361  0.00  0.00    +0.065 A 
ATOM     26  C   UNL     1      -7.744  -6.306   1.896  0.00  0.00    +0.022 A 
ATOM     27  C   UNL     1      -6.851  -6.575   0.927  0.00  0.00    +0.048 A 
ATOM     28  S   UNL     1      -6.097  -4.992   0.614  0.00  0.00    -0.081 S 
BRANCH  25  29
ATOM     29  C   UNL     1      -8.755  -4.542   3.418  0.00  0.00    +0.244 C 
ATOM     30  O   UNL     1      -8.797  -3.382   3.786  0.00  0.00    -0.270 OA
ATOM     31  N   UNL     1      -9.566  -5.457   3.983  0.00  0.00    -0.325 N 
ATOM     32  H   UNL     1     -10.267  -5.157   4.777  0.00  0.00    +0.145 HD
ATOM     33  H   UNL     1      -9.528  -6.505   3.652  0.00  0.00    +0.145 HD
ENDBRANCH  25  29
ENDBRANCH  22  24
ENDBRANCH  19  20
ENDBRANCH   1  19
TORSDOF 5
