REMARK  Name = ZINC24215707
REMARK  9 active torsions:
REMARK  status: ('A' for Active; 'I' for Inactive)
REMARK    1  A    between atoms: C_1  and  C_2
REMARK    2  A    between atoms: C_3  and  C_14
REMARK    3  A    between atoms: C_4  and  C_13
REMARK    4  A    between atoms: N_5  and  C_7
REMARK    5  A    between atoms: N_21  and  C_22
REMARK    6  A    between atoms: C_22  and  C_23
REMARK    7  A    between atoms: N_25  and  C_26
REMARK    8  A    between atoms: C_26  and  C_27
REMARK    9  A    between atoms: N_29  and  C_30
REMARK                            x       y       z     vdW  Elec       q    Type
REMARK                         _______ _______ _______ _____ _____    ______ ____
ROOT
ATOM      1  C   UNL     1       5.261  12.526  -0.481  0.00  0.00    +0.054 C 
ATOM      2  C   UNL     1       6.433  13.451  -0.647  0.00  0.00    +0.204 C 
ATOM      3  O   UNL     1       6.344  14.584  -0.221  0.00  0.00    -0.277 OA
ATOM      4  N   UNL     1       7.570  13.079  -1.244  0.00  0.00    -0.318 N 
ATOM      5  C   UNL     1       7.792  11.731  -1.758  0.00  0.00    +0.085 C 
ATOM      6  C   UNL     1       6.455  11.006  -1.923  0.00  0.00    -0.058 C 
ATOM      7  N   UNL     1       5.690  11.134  -0.672  0.00  0.00    +0.397 N 
ATOM      8  H   UNL     1       8.358  13.841  -1.341  0.00  0.00    +0.149 HD
ATOM      9  H   UNL     1       6.342  10.852   0.168  0.00  0.00    -0.079 HD
ENDROOT
BRANCH   1  12
ATOM     10  C   UNL     1       6.519  11.392   2.197  0.00  0.00    +0.068 C 
ATOM     11  C   UNL     1       5.244  12.187   2.087  0.00  0.00    +0.063 A 
ATOM     12  C   UNL     1       4.689  12.687   0.904  0.00  0.00    -0.009 A 
ATOM     13  C   UNL     1       3.551  13.345   1.223  0.00  0.00    +0.044 A 
ATOM     14  N   UNL     1       3.387  13.258   2.563  0.00  0.00    -0.237 N 
ATOM     15  N   UNL     1       4.465  12.528   3.082  0.00  0.00    -0.171 NA
ATOM     16  C   UNL     1       2.630  14.047   0.259  0.00  0.00    +0.066 C 
BRANCH  14  17
ATOM     17  C   UNL     1       2.329  13.805   3.302  0.00  0.00    +0.066 A 
ATOM     18  C   UNL     1       2.578  14.423   4.520  0.00  0.00    +0.028 A 
ATOM     19  C   UNL     1       1.534  14.966   5.243  0.00  0.00    +0.002 A 
ATOM     20  C   UNL     1       0.240  14.884   4.761  0.00  0.00    +0.000 A 
ATOM     21  C   UNL     1      -0.011  14.264   3.551  0.00  0.00    +0.002 A 
ATOM     22  C   UNL     1       1.029  13.724   2.821  0.00  0.00    +0.028 A 
ENDBRANCH  14  17
ENDBRANCH   1  12
BRANCH   7  23
ATOM     23  C   UNL     1       4.538  10.222  -0.664  0.00  0.00    +0.020 C 
BRANCH  23  24
ATOM     24  C   UNL     1       5.026   8.797  -0.642  0.00  0.00    +0.197 C 
ATOM     25  O   UNL     1       6.216   8.563  -0.634  0.00  0.00    -0.278 OA
ATOM     26  N   UNL     1       4.140   7.781  -0.631  0.00  0.00    -0.308 N 
ATOM     27  H   UNL     1       3.060   7.993  -0.638  0.00  0.00    +0.149 HD
BRANCH  26  28
ATOM     28  C   UNL     1       4.614   6.395  -0.610  0.00  0.00    +0.200 C 
BRANCH  28  29
ATOM     29  C   UNL     1       3.432   5.460  -0.601  0.00  0.00    +0.234 C 
ATOM     30  O   UNL     1       2.305   5.907  -0.612  0.00  0.00    -0.274 OA
ATOM     31  N   UNL     1       3.628   4.127  -0.581  0.00  0.00    -0.284 N 
ATOM     32  H   UNL     1       4.647   3.722  -0.489  0.00  0.00    +0.155 HD
BRANCH  31  33
ATOM     33  C   UNL     1       2.535   3.257  -0.679  0.00  0.00    +0.036 A 
ATOM     34  C   UNL     1       2.554   2.040  -0.010  0.00  0.00    +0.026 A 
ATOM     35  C   UNL     1       1.475   1.183  -0.106  0.00  0.00    +0.043 A 
ATOM     36  C   UNL     1       0.372   1.538  -0.864  0.00  0.00    +0.159 A 
ATOM     37  C   UNL     1       0.352   2.750  -1.537  0.00  0.00    +0.160 A 
ATOM     38  C   UNL     1       1.431   3.611  -1.443  0.00  0.00    +0.064 A 
ATOM     39  F   UNL     1      -0.722   3.093  -2.280  0.00  0.00    -0.202 F 
ATOM     40  F   UNL     1      -0.685   0.701  -0.952  0.00  0.00    -0.202 F 
ENDBRANCH  31  33
ENDBRANCH  28  29
ENDBRANCH  26  28
ENDBRANCH  23  24
ENDBRANCH   7  23
TORSDOF 7
