REMARK  Name = ZINC34804561
REMARK  4 active torsions:
REMARK  status: ('A' for Active; 'I' for Inactive)
REMARK    1  A    between atoms: C_1  and  N_2
REMARK    2  A    between atoms: C_5  and  C_9
REMARK    3  A    between atoms: C_5  and  C_15
REMARK    4  A    between atoms: C_19  and  C_21
REMARK                            x       y       z     vdW  Elec       q    Type
REMARK                         _______ _______ _______ _____ _____    ______ ____
ROOT
ATOM      1  C   UNL     1      -0.553   1.474  -0.515  0.00  0.00    +0.141 C 
ATOM      2  N   UNL     1      -0.323   0.038  -0.338  0.00  0.00    -0.245 N 
ATOM      3  C   UNL     1      -1.298  -0.869  -0.134  0.00  0.00    +0.254 C 
ATOM      4  O   UNL     1      -2.489  -0.650  -0.066  0.00  0.00    -0.272 OA
ATOM      5  C   UNL     1      -0.616  -2.214  -0.008  0.00  0.00    +0.162 C 
ATOM      6  N   UNL     1       0.817  -1.914  -0.166  0.00  0.00    -0.296 N 
ATOM      7  C   UNL     1       0.914  -0.559  -0.364  0.00  0.00    +0.183 C 
ATOM      8  N   UNL     1       2.034   0.079  -0.549  0.00  0.00    -0.272 NA
ATOM      9  H   UNL     1       2.873  -0.407  -0.556  0.00  0.00    +0.189 HD
ATOM     10  H   UNL     1       1.549  -2.550  -0.140  0.00  0.00    +0.150 HD
ENDROOT
BRANCH   5  11
ATOM     11  C   UNL     1      -0.881  -2.813   1.349  0.00  0.00    -0.008 A 
ATOM     12  C   UNL     1       0.158  -3.312   2.120  0.00  0.00    +0.026 A 
ATOM     13  C   UNL     1      -0.124  -3.854   3.360  0.00  0.00    +0.111 A 
ATOM     14  N   UNL     1      -1.362  -3.900   3.811  0.00  0.00    -0.263 NA
ATOM     15  C   UNL     1      -2.374  -3.435   3.105  0.00  0.00    +0.111 A 
ATOM     16  C   UNL     1      -2.169  -2.873   1.859  0.00  0.00    +0.026 A 
ENDBRANCH   5  11
BRANCH   5  17
ATOM     17  C   UNL     1      -1.082  -3.145  -1.096  0.00  0.00    -0.010 A 
ATOM     18  C   UNL     1      -2.436  -3.339  -1.307  0.00  0.00    +0.006 A 
ATOM     19  C   UNL     1      -2.871  -4.192  -2.304  0.00  0.00    +0.001 A 
ATOM     20  C   UNL     1      -1.956  -4.856  -3.096  0.00  0.00    +0.008 A 
ATOM     21  C   UNL     1      -0.591  -4.665  -2.888  0.00  0.00    -0.017 A 
ATOM     22  C   UNL     1      -0.158  -3.800  -1.885  0.00  0.00    +0.015 A 
BRANCH  21  23
ATOM     23  C   UNL     1       0.397  -5.377  -3.736  0.00  0.00    -0.011 A 
ATOM     24  C   UNL     1      -0.021  -6.236  -4.748  0.00  0.00    +0.016 A 
ATOM     25  C   UNL     1       0.910  -6.866  -5.500  0.00  0.00    +0.046 A 
ATOM     26  S   UNL     1       2.436  -6.262  -4.797  0.00  0.00    -0.104 S 
ATOM     27  C   UNL     1       1.739  -5.199  -3.544  0.00  0.00    +0.053 A 
ENDBRANCH  21  23
ENDBRANCH   5  17
TORSDOF 3
