REMARK  Name = ZINC39856373
REMARK  8 active torsions:
REMARK  status: ('A' for Active; 'I' for Inactive)
REMARK    1  A    between atoms: C_1  and  C_2
REMARK    2  A    between atoms: C_6  and  C_7
REMARK    3  A    between atoms: N_9  and  C_10
REMARK    4  A    between atoms: C_15  and  O_16
REMARK    5  A    between atoms: O_16  and  C_17
REMARK    6  A    between atoms: C_25  and  C_33
REMARK    7  A    between atoms: C_25  and  C_34
REMARK    8  A    between atoms: N_28  and  N_29
REMARK                            x       y       z     vdW  Elec       q    Type
REMARK                         _______ _______ _______ _____ _____    ______ ____
ROOT
ATOM      1  C   UNL     1       1.020   1.157  -0.113  0.00  0.00    +0.048 C 
ATOM      2  C   UNL     1       0.358  -0.195  -0.037  0.00  0.00    +0.009 A 
ATOM      3  C   UNL     1      -0.092  -0.971  -1.111  0.00  0.00    +0.042 A 
ATOM      4  C   UNL     1      -0.630  -2.124  -0.589  0.00  0.00    +0.116 A 
ATOM      5  O   UNL     1      -0.516  -2.069   0.736  0.00  0.00    -0.454 OA
ATOM      6  C   UNL     1       0.083  -0.910   1.095  0.00  0.00    +0.193 A 
ATOM      7  C   UNL     1      -1.227  -3.212  -1.446  0.00  0.00    +0.081 C 
ATOM      8  C   UNL     1      -1.601  -2.634  -2.814  0.00  0.00    -0.023 C 
ATOM      9  C   UNL     1      -0.403  -1.913  -3.442  0.00  0.00    +0.064 C 
ATOM     10  C   UNL     1      -0.056  -0.717  -2.568  0.00  0.00    +0.071 C 
ATOM     11  N   UNL     1       0.250   0.442  -3.065  0.00  0.00    -0.183 NA
ATOM     12  C   UNL     1      -2.046  -3.771  -3.736  0.00  0.00    +0.011 C 
ATOM     13  C   UNL     1      -2.753  -1.643  -2.644  0.00  0.00    +0.011 C 
ENDROOT
BRANCH  11  14
ATOM     14  N   UNL     1       0.269   0.626  -4.454  0.00  0.00    -0.191 N 
ATOM     15  C   UNL     1       0.587   1.829  -4.970  0.00  0.00    +0.317 C 
ATOM     16  O   UNL     1       0.603   1.989  -6.175  0.00  0.00    -0.251 OA
ATOM     17  N   UNL     1       0.886   2.856  -4.150  0.00  0.00    -0.312 N 
ATOM     18  H   UNL     1       0.054  -0.113  -5.044  0.00  0.00    +0.179 HD
ATOM     19  H   UNL     1       0.873   2.729  -3.188  0.00  0.00    +0.147 HD
ATOM     20  H   UNL     1       1.115   3.723  -4.521  0.00  0.00    +0.147 HD
ENDBRANCH  11  14
BRANCH   6  21
ATOM     21  C   UNL     1       0.383  -0.491   2.468  0.00  0.00    +0.284 C 
ATOM     22  O   UNL     1       0.925   0.579   2.673  0.00  0.00    -0.266 OA
ATOM     23  N   UNL     1       0.059  -1.292   3.503  0.00  0.00    -0.276 N 
ATOM     24  H   UNL     1      -0.393  -2.134   3.342  0.00  0.00    +0.155 HD
BRANCH  23  25
ATOM     25  C   UNL     1       0.376  -0.907   4.812  0.00  0.00    +0.078 A 
ATOM     26  C   UNL     1       0.570   0.433   5.115  0.00  0.00    +0.047 A 
ATOM     27  C   UNL     1       0.882   0.811   6.408  0.00  0.00    +0.043 A 
ATOM     28  C   UNL     1       1.002  -0.145   7.402  0.00  0.00    +0.024 A 
ATOM     29  C   UNL     1       0.811  -1.482   7.106  0.00  0.00    +0.049 A 
ATOM     30  C   UNL     1       0.492  -1.868   5.814  0.00  0.00    +0.150 A 
ATOM     31 CL   UNL     1       1.124   2.488   6.786  0.00  0.00    -0.083 Cl
BRANCH  30  32
ATOM     32  O   UNL     1       0.299  -3.182   5.523  0.00  0.00    -0.454 OA
BRANCH  32  33
ATOM     33  C   UNL     1       0.321  -4.072   6.550  0.00  0.00    +0.129 A 
ATOM     34  C   UNL     1      -0.759  -4.160   7.417  0.00  0.00    +0.046 A 
ATOM     35  C   UNL     1      -0.734  -5.066   8.459  0.00  0.00    +0.004 A 
ATOM     36  C   UNL     1       0.365  -5.885   8.639  0.00  0.00    +0.000 A 
ATOM     37  C   UNL     1       1.443  -5.800   7.776  0.00  0.00    +0.004 A 
ATOM     38  C   UNL     1       1.421  -4.899   6.729  0.00  0.00    +0.046 A 
ENDBRANCH  32  33
ENDBRANCH  30  32
ENDBRANCH  23  25
ENDBRANCH   6  21
TORSDOF 5
