REMARK  Name = ZINC52808999
REMARK  10 active torsions:
REMARK  status: ('A' for Active; 'I' for Inactive)
REMARK    1  A    between atoms: C_1  and  O_2
REMARK    2  A    between atoms: O_2  and  C_3
REMARK    3  A    between atoms: C_3  and  C_4
REMARK    4  A    between atoms: C_4  and  C_5
REMARK    5  A    between atoms: C_5  and  C_7
REMARK    6  A    between atoms: C_5  and  N_22
REMARK    7  A    between atoms: N_9  and  C_10
REMARK    8  A    between atoms: N_9  and  C_18
REMARK    9  A    between atoms: C_10  and  C_11
REMARK   10  A    between atoms: C_18  and  C_19
REMARK                            x       y       z     vdW  Elec       q    Type
REMARK                         _______ _______ _______ _____ _____    ______ ____
ROOT
ATOM      1  C   UNL     1       1.164  -4.203  -2.229  0.00  0.00    +0.202 C 
ATOM      2  O   UNL     1       2.080  -4.892  -1.833  0.00  0.00    -0.277 OA
ATOM      3  N   UNL     1       0.016  -4.778  -2.639  0.00  0.00    -0.290 N 
ENDROOT
BRANCH   1   4
ATOM      4  C   UNL     1       1.309  -2.703  -2.261  0.00  0.00    +0.015 C 
BRANCH   4   5
ATOM      5  N   UNL     1       2.734  -2.348  -2.239  0.00  0.00    +0.386 N 
ATOM      6  H   UNL     1       3.193  -2.748  -3.044  0.00  0.00    -0.089 HD
ATOM      7  H   UNL     1       2.831  -1.344  -2.261  0.00  0.00    -0.089 HD
ATOM      8  H   UNL     1       3.157  -2.709  -1.397  0.00  0.00    -0.089 HD
ENDBRANCH   4   5
BRANCH   4   9
ATOM      9  C   UNL     1       0.613  -2.097  -1.041  0.00  0.00    +0.021 C 
BRANCH   9  10
ATOM     10  C   UNL     1       0.652  -0.570  -1.138  0.00  0.00    +0.158 C 
BRANCH  10  12
ATOM     11  C   UNL     1      -0.017   1.425   0.010  0.00  0.00    +0.193 C 
ATOM     12  O   UNL     1       0.002  -0.004   0.002  0.00  0.00    -0.383 OA
ENDBRANCH  10  12
ENDBRANCH   9  10
ENDBRANCH   4   9
ENDBRANCH   1   4
BRANCH   3  13
ATOM     13  C   UNL     1      -0.125  -6.236  -2.608  0.00  0.00    +0.143 C 
BRANCH  13  14
ATOM     14  C   UNL     1      -0.685  -6.657  -1.274  0.00  0.00    -0.030 A 
ATOM     15  C   UNL     1       0.168  -6.943  -0.225  0.00  0.00    +0.006 A 
ATOM     16  C   UNL     1      -0.346  -7.329   0.999  0.00  0.00    +0.015 A 
ATOM     17  C   UNL     1      -1.714  -7.430   1.173  0.00  0.00    +0.018 A 
ATOM     18  C   UNL     1      -2.568  -7.144   0.123  0.00  0.00    +0.015 A 
ATOM     19  C   UNL     1      -2.053  -6.753  -1.099  0.00  0.00    +0.006 A 
ATOM     20 BR   UNL     1      -2.418  -7.959   2.847  0.00  0.00    -0.050 Br
ENDBRANCH  13  14
ENDBRANCH   3  13
BRANCH   3  21
ATOM     21  C   UNL     1      -1.091  -3.945  -3.117  0.00  0.00    +0.203 C 
BRANCH  21  22
ATOM     22  C   UNL     1      -0.958  -3.738  -4.604  0.00  0.00    +0.228 C 
ATOM     23  O   UNL     1      -0.030  -4.237  -5.205  0.00  0.00    -0.274 OA
ATOM     24  N   UNL     1      -1.870  -2.998  -5.266  0.00  0.00    -0.328 N 
ATOM     25  H   UNL     1      -2.612  -2.599  -4.785  0.00  0.00    +0.145 HD
ATOM     26  H   UNL     1      -1.784  -2.865  -6.223  0.00  0.00    +0.145 HD
ENDBRANCH  21  22
ENDBRANCH   3  21
TORSDOF 9
