REMARK  Name = ZINC12346198
REMARK  4 active torsions:
REMARK  status: ('A' for Active; 'I' for Inactive)
REMARK    1  A    between atoms: C_1  and  C_2
REMARK    2  A    between atoms: C_6  and  C_8
REMARK    3  A    between atoms: N_13  and  C_16
REMARK    4  A    between atoms: C_16  and  C_17
REMARK                            x       y       z     vdW  Elec       q    Type
REMARK                         _______ _______ _______ _____ _____    ______ ____
ROOT
ATOM      1  C   UNL     1      -0.070   5.347   0.031  0.00  0.00    +0.142 C 
ATOM      2  C   UNL     1      -0.250   5.820  -1.398  0.00  0.00    +0.058 C 
ATOM      3  C   UNL     1      -1.315   6.600  -1.671  0.00  0.00    +0.039 C 
ATOM      4  C   UNL     1      -1.244   6.917  -3.148  0.00  0.00    +0.159 C 
ATOM      5  N   UNL     1      -0.036   6.226  -3.624  0.00  0.00    -0.288 N 
ATOM      6  C   UNL     1       0.509   5.600  -2.565  0.00  0.00    +0.247 C 
ATOM      7  O   UNL     1       1.526   4.932  -2.610  0.00  0.00    -0.270 OA
ATOM      8  N   UNL     1      -2.203   6.953  -0.695  0.00  0.00    -0.271 N 
ATOM      9  C   UNL     1      -2.093   6.564   0.582  0.00  0.00    +0.304 C 
ATOM     10  O   UNL     1      -2.933   6.928   1.382  0.00  0.00    -0.252 OA
ATOM     11  N   UNL     1      -1.082   5.782   1.008  0.00  0.00    -0.288 N 
ATOM     12  H   UNL     1      -2.954   7.516  -0.940  0.00  0.00    +0.156 HD
ATOM     13  H   UNL     1      -1.023   5.512   1.938  0.00  0.00    +0.151 HD
ENDROOT
BRANCH   1  19
ATOM     14  C   UNL     1       2.490   1.048  -0.016  0.00  0.00    +0.044 C 
ATOM     15  C   UNL     1       1.175   1.783   0.000  0.00  0.00    -0.050 A 
ATOM     16  C   UNL     1      -0.013   1.076   0.008  0.00  0.00    +0.003 A 
ATOM     17  C   UNL     1      -1.219   1.750   0.017  0.00  0.00    +0.001 A 
ATOM     18  C   UNL     1      -1.238   3.133   0.029  0.00  0.00    +0.006 A 
ATOM     19  C   UNL     1      -0.050   3.840   0.022  0.00  0.00    -0.022 A 
ATOM     20  C   UNL     1       1.157   3.165   0.008  0.00  0.00    +0.009 A 
ENDBRANCH   1  19
BRANCH   5  21
ATOM     21  C   UNL     1       0.478   6.221  -4.996  0.00  0.00    +0.143 C 
BRANCH  21  22
ATOM     22  C   UNL     1       1.428   7.376  -5.181  0.00  0.00    -0.030 A 
ATOM     23  C   UNL     1       0.952   8.599  -5.616  0.00  0.00    +0.008 A 
ATOM     24  C   UNL     1       1.821   9.660  -5.781  0.00  0.00    +0.038 A 
ATOM     25  C   UNL     1       3.171   9.495  -5.522  0.00  0.00    +0.123 A 
ATOM     26  C   UNL     1       3.648   8.269  -5.092  0.00  0.00    +0.038 A 
ATOM     27  C   UNL     1       2.776   7.210  -4.922  0.00  0.00    +0.008 A 
ATOM     28  F   UNL     1       4.023  10.531  -5.689  0.00  0.00    -0.205 F 
ENDBRANCH  21  22
ENDBRANCH   5  21
TORSDOF 3
