REMARK  Name = ZINC22323567
REMARK  11 active torsions:
REMARK  status: ('A' for Active; 'I' for Inactive)
REMARK    1  A    between atoms: C_1  and  C_2
REMARK    2  A    between atoms: C_2  and  C_3
REMARK    3  A    between atoms: C_3  and  C_4
REMARK    4  A    between atoms: C_4  and  C_6
REMARK    5  A    between atoms: C_4  and  N_21
REMARK    6  A    between atoms: N_8  and  C_9
REMARK    7  A    between atoms: C_9  and  C_10
REMARK    8  A    between atoms: N_12  and  C_13
REMARK    9  A    between atoms: C_18  and  C_19
REMARK   10  A    between atoms: N_24  and  C_25
REMARK   11  A    between atoms: C_25  and  C_26
REMARK                            x       y       z     vdW  Elec       q    Type
REMARK                         _______ _______ _______ _____ _____    ______ ____
ROOT
ATOM      1  C   UNL     1       3.575   1.756  -0.048  0.00  0.00    +0.160 C 
ENDROOT
BRANCH   1   2
ATOM      2  N   UNL     1       2.314   1.011  -0.051  0.00  0.00    -0.288 N 
ATOM      3  C   UNL     1       1.140   1.672  -0.039  0.00  0.00    +0.300 C 
ATOM      4  O   UNL     1       1.127   2.888  -0.026  0.00  0.00    -0.253 OA
ATOM      5  N   UNL     1      -0.020   0.986  -0.041  0.00  0.00    -0.295 N 
ATOM      6  H   UNL     1       2.325  -0.089  -0.063  0.00  0.00    +0.151 HD
ATOM      7  H   UNL     1      -0.009  -0.114  -0.049  0.00  0.00    +0.151 HD
BRANCH   5   8
ATOM      8  C   UNL     1      -1.296   1.706  -0.034  0.00  0.00    +0.141 C 
BRANCH   8   9
ATOM      9  C   UNL     1      -2.432   0.715  -0.045  0.00  0.00    -0.030 A 
ATOM     10  C   UNL     1      -2.955   0.277  -1.248  0.00  0.00    +0.008 A 
ATOM     11  C   UNL     1      -3.993  -0.635  -1.260  0.00  0.00    +0.038 A 
ATOM     12  C   UNL     1      -4.516  -1.104  -0.066  0.00  0.00    +0.123 A 
ATOM     13  C   UNL     1      -3.994  -0.661   1.138  0.00  0.00    +0.038 A 
ATOM     14  C   UNL     1      -2.953   0.247   1.147  0.00  0.00    +0.008 A 
ATOM     15  F   UNL     1      -5.533  -1.992  -0.076  0.00  0.00    -0.205 F 
ENDBRANCH   8   9
ENDBRANCH   5   8
ENDBRANCH   1   2
BRANCH   1  16
ATOM     16  C   UNL     1       4.660   0.910  -0.662  0.00  0.00    +0.234 C 
ATOM     17  O   UNL     1       4.405  -0.206  -1.063  0.00  0.00    -0.274 OA
ATOM     18  N   UNL     1       5.914   1.393  -0.767  0.00  0.00    -0.305 N 
ATOM     19  H   UNL     1       6.145   2.406  -0.404  0.00  0.00    +0.149 HD
BRANCH  18  20
ATOM     20  C   UNL     1       6.969   0.571  -1.364  0.00  0.00    +0.200 C 
BRANCH  20  21
ATOM     21  C   UNL     1       8.266   1.338  -1.361  0.00  0.00    +0.234 C 
ATOM     22  O   UNL     1       8.306   2.461  -0.905  0.00  0.00    -0.274 OA
ATOM     23  N   UNL     1       9.383   0.776  -1.865  0.00  0.00    -0.284 N 
ATOM     24  H   UNL     1       9.369  -0.274  -2.195  0.00  0.00    +0.155 HD
BRANCH  23  25
ATOM     25  C   UNL     1      10.559   1.527  -1.969  0.00  0.00    +0.036 A 
ATOM     26  C   UNL     1      10.495   2.911  -2.060  0.00  0.00    +0.024 A 
ATOM     27  C   UNL     1      11.657   3.650  -2.162  0.00  0.00    +0.017 A 
ATOM     28  C   UNL     1      12.885   3.012  -2.173  0.00  0.00    +0.018 A 
ATOM     29  C   UNL     1      12.952   1.633  -2.083  0.00  0.00    +0.020 A 
ATOM     30  C   UNL     1      11.793   0.890  -1.975  0.00  0.00    -0.028 A 
ATOM     31  C   UNL     1      11.867  -0.612  -1.871  0.00  0.00    +0.046 C 
ATOM     32 BR   UNL     1      14.474   4.027  -2.313  0.00  0.00    -0.050 Br
ENDBRANCH  23  25
ENDBRANCH  20  21
ENDBRANCH  18  20
ENDBRANCH   1  16
BRANCH   1  33
ATOM     33  C   UNL     1       3.956   2.109   1.391  0.00  0.00    +0.031 C 
BRANCH  33  35
ATOM     34  C   UNL     1       3.298   3.422   3.412  0.00  0.00    +0.004 C 
ATOM     35  C   UNL     1       2.917   3.069   1.973  0.00  0.00    -0.001 C 
ENDBRANCH  33  35
ENDBRANCH   1  33
TORSDOF 9
