REMARK  Name = ZINC50031278
REMARK  6 active torsions:
REMARK  status: ('A' for Active; 'I' for Inactive)
REMARK    1  A    between atoms: C_1  and  C_2
REMARK    2  A    between atoms: C_7  and  N_10
REMARK    3  A    between atoms: N_10  and  C_11
REMARK    4  A    between atoms: N_10  and  C_12
REMARK    5  A    between atoms: C_14  and  C_20
REMARK    6  A    between atoms: C_15  and  N_19
REMARK                            x       y       z     vdW  Elec       q    Type
REMARK                         _______ _______ _______ _____ _____    ______ ____
ROOT
ATOM      1  C   UNL     1       0.790  -3.249   3.424  0.00  0.00    +0.066 A 
ATOM      2  C   UNL     1       0.875  -4.603   3.160  0.00  0.00    +0.041 A 
ATOM      3  C   UNL     1       0.236  -5.518   4.003  0.00  0.00    +0.059 A 
ATOM      4  C   UNL     1      -0.488  -5.053   5.112  0.00  0.00    +0.040 A 
ATOM      5  C   UNL     1      -0.566  -3.691   5.364  0.00  0.00    +0.063 A 
ATOM      6  C   UNL     1       0.073  -2.794   4.529  0.00  0.00    +0.146 A 
ATOM      7  F   UNL     1      -0.001  -1.469   4.783  0.00  0.00    -0.203 F 
ENDROOT
BRANCH   3   8
ATOM      8  C   UNL     1       0.323  -6.963   3.728  0.00  0.00    +0.243 C 
ATOM      9  O   UNL     1      -0.141  -7.761   4.520  0.00  0.00    -0.270 OA
ATOM     10  N   UNL     1       0.916  -7.399   2.599  0.00  0.00    -0.325 N 
ATOM     11  H   UNL     1       1.286  -6.763   1.968  0.00  0.00    +0.145 HD
ATOM     12  H   UNL     1       0.973  -8.351   2.418  0.00  0.00    +0.145 HD
ENDBRANCH   3   8
BRANCH   4  13
ATOM     13  N   UNL     1      -1.128  -5.957   5.955  0.00  0.00    -0.357 N 
ATOM     14  H   UNL     1      -1.008  -6.910   5.825  0.00  0.00    +0.142 HD
ATOM     15  H   UNL     1      -1.694  -5.632   6.673  0.00  0.00    +0.142 HD
ENDBRANCH   4  13
BRANCH   1  16
ATOM     16  N   UNL     1       1.431  -2.331   2.580  0.00  0.00    -0.328 N 
ATOM     17  C   UNL     1       2.813  -1.929   2.850  0.00  0.00    +0.129 C 
BRANCH  16  23
ATOM     18  C   UNL     1      -0.182   1.852   0.495  0.00  0.00    +0.007 C 
ATOM     19  C   UNL     1      -0.105   0.330   0.360  0.00  0.00    -0.012 C 
ATOM     20  C   UNL     1       0.643  -0.030  -0.925  0.00  0.00    +0.003 C 
ATOM     21  C   UNL     1       0.721  -1.552  -1.061  0.00  0.00    +0.002 C 
ATOM     22  C   UNL     1       1.465  -2.134   0.142  0.00  0.00    +0.022 C 
ATOM     23  C   UNL     1       0.718  -1.774   1.428  0.00  0.00    +0.073 C 
ATOM     24  C   UNL     1       0.640  -0.252   1.563  0.00  0.00    +0.025 C 
ENDBRANCH  16  23
ENDBRANCH   1  16
TORSDOF 4
