REMARK  Name = ZINC04177339
REMARK  10 active torsions:
REMARK  status: ('A' for Active; 'I' for Inactive)
REMARK    1  A    between atoms: C_1  and  C_2
REMARK    2  A    between atoms: C_2  and  C_3
REMARK    3  A    between atoms: C_3  and  C_4
REMARK    4  A    between atoms: C_3  and  C_5
REMARK    5  A    between atoms: C_3  and  C_6
REMARK    6  A    between atoms: C_13  and  N_18
REMARK    7  A    between atoms: C_14  and  C_15
REMARK    8  A    between atoms: C_19  and  C_21
REMARK    9  A    between atoms: C_24  and  C_30
REMARK   10  A    between atoms: C_25  and  N_27
REMARK                            x       y       z     vdW  Elec       q    Type
REMARK                         _______ _______ _______ _____ _____    ______ ____
ROOT
ATOM      1  C   UNL     1       3.821  -1.504   0.546  0.00  0.00    -0.000 C 
ATOM      2  C   UNL     1       4.439  -0.212   0.006  0.00  0.00    +0.009 C 
ATOM      3  C   UNL     1       3.721   0.999   0.605  0.00  0.00    +0.037 C 
ATOM      4  C   UNL     1       2.222   0.838   0.386  0.00  0.00    -0.023 A 
ATOM      5  C   UNL     1       1.687  -0.368   0.095  0.00  0.00    -0.004 A 
ATOM      6  S   UNL     1      -0.050  -0.064  -0.069  0.00  0.00    -0.077 S 
ATOM      7  C   UNL     1      -0.067   1.640   0.244  0.00  0.00    +0.085 A 
ATOM      8  C   UNL     1       1.271   1.933   0.468  0.00  0.00    +0.068 A 
ATOM      9  C   UNL     1       2.416  -1.668  -0.052  0.00  0.00    +0.046 C 
ENDROOT
BRANCH   8  10
ATOM     10  C   UNL     1       1.709   3.299   0.775  0.00  0.00    +0.244 C 
ATOM     11  O   UNL     1       1.760   3.675   1.932  0.00  0.00    -0.270 OA
ATOM     12  N   UNL     1       2.054   4.136  -0.222  0.00  0.00    -0.325 N 
ATOM     13  H   UNL     1       2.013   3.837  -1.144  0.00  0.00    +0.145 HD
ATOM     14  H   UNL     1       2.343   5.040  -0.018  0.00  0.00    +0.145 HD
ENDBRANCH   8  10
BRANCH   7  15
ATOM     15  N   UNL     1      -1.152   2.501   0.261  0.00  0.00    -0.275 N 
ATOM     16  C   UNL     1      -2.390   2.030   0.012  0.00  0.00    +0.249 C 
ATOM     17  O   UNL     1      -2.554   0.850  -0.228  0.00  0.00    -0.270 OA
ATOM     18  H   UNL     1      -1.020   3.443   0.452  0.00  0.00    +0.156 HD
BRANCH  16  19
ATOM     19  C   UNL     1      -3.547   2.949   0.030  0.00  0.00    +0.039 A 
ATOM     20  C   UNL     1      -3.362   4.305   0.305  0.00  0.00    +0.013 A 
ATOM     21  C   UNL     1      -4.446   5.157   0.320  0.00  0.00    +0.006 A 
ATOM     22  C   UNL     1      -5.716   4.670   0.064  0.00  0.00    -0.020 A 
ATOM     23  C   UNL     1      -5.907   3.328  -0.210  0.00  0.00    +0.130 A 
ATOM     24  C   UNL     1      -4.830   2.466  -0.234  0.00  0.00    +0.046 A 
ATOM     25  C   UNL     1      -6.896   5.607   0.083  0.00  0.00    +0.046 C 
BRANCH  23  26
ATOM     26  N   UNL     1      -7.269   2.816  -0.483  0.00  0.00    +0.057 N 
ATOM     27  O   UNL     1      -7.455   1.619  -0.612  0.00  0.00    -0.126 OA
ATOM     28  O   UNL     1      -8.203   3.592  -0.578  0.00  0.00    -0.126 OA
ENDBRANCH  23  26
ENDBRANCH  16  19
ENDBRANCH   7  15
BRANCH   1  29
ATOM     29  C   UNL     1       4.691  -2.697   0.143  0.00  0.00    -0.032 C 
ATOM     30  C   UNL     1       4.777  -2.773  -1.383  0.00  0.00    +0.011 C 
ATOM     31  C   UNL     1       6.096  -2.523   0.725  0.00  0.00    +0.011 C 
BRANCH  29  33
ATOM     32  C   UNL     1       4.941  -5.179   0.281  0.00  0.00    +0.004 C 
ATOM     33  C   UNL     1       4.071  -3.987   0.684  0.00  0.00    +0.003 C 
ENDBRANCH  29  33
ENDBRANCH   1  29
TORSDOF 6
