REMARK  Name = ZINC02616723
REMARK  9 active torsions:
REMARK  status: ('A' for Active; 'I' for Inactive)
REMARK    1  A    between atoms: C_4  and  N_20
REMARK    2  A    between atoms: C_5  and  C_7
REMARK    3  A    between atoms: N_9  and  N_10
REMARK    4  A    between atoms: N_10  and  C_11
REMARK    5  A    between atoms: C_11  and  N_13
REMARK    6  A    between atoms: N_13  and  C_14
REMARK    7  A    between atoms: C_14  and  C_15
REMARK    8  A    between atoms: N_20  and  S_21
REMARK    9  A    between atoms: S_21  and  C_24
REMARK                            x       y       z     vdW  Elec       q    Type
REMARK                         _______ _______ _______ _____ _____    ______ ____
ROOT
ATOM      1  C   UNL     1      -3.301  -1.179   0.522  0.00  0.00    +0.001 A 
ATOM      2  C   UNL     1      -4.560  -0.607   0.434  0.00  0.00    +0.002 A 
ATOM      3  C   UNL     1      -4.699   0.756   0.273  0.00  0.00    +0.025 A 
ATOM      4  C   UNL     1      -3.572   1.566   0.198  0.00  0.00    +0.060 A 
ATOM      5  C   UNL     1      -2.296   0.990   0.288  0.00  0.00    +0.060 A 
ATOM      6  C   UNL     1      -2.172  -0.393   0.445  0.00  0.00    +0.015 A 
ENDROOT
BRANCH   5   7
ATOM      7  C   UNL     1      -1.092   1.838   0.210  0.00  0.00    +0.262 C 
ATOM      8  O   UNL     1      -1.204   3.041   0.068  0.00  0.00    -0.269 OA
ATOM      9  N   UNL     1       0.132   1.281   0.297  0.00  0.00    -0.231 N 
ATOM     10  H   UNL     1       0.221   0.322   0.410  0.00  0.00    +0.173 HD
BRANCH   9  11
ATOM     11  N   UNL     1       1.275   2.086   0.217  0.00  0.00    -0.246 N 
ATOM     12  H   UNL     1       1.186   3.045   0.104  0.00  0.00    +0.172 HD
BRANCH  11  13
ATOM     13  C   UNL     1       2.499   1.528   0.298  0.00  0.00    +0.147 C 
ATOM     14  S   UNL     1       3.897   2.512   0.201  0.00  0.00    -0.017 S 
BRANCH  13  15
ATOM     15  N   UNL     1       2.623   0.195   0.456  0.00  0.00    -0.318 N 
ATOM     16  H   UNL     1       1.831  -0.362   0.511  0.00  0.00    +0.148 HD
BRANCH  15  17
ATOM     17  C   UNL     1       3.954  -0.411   0.544  0.00  0.00    +0.177 C 
BRANCH  17  18
ATOM     18  C   UNL     1       3.816  -1.902   0.716  0.00  0.00    +0.122 A 
ATOM     19  C   UNL     1       3.758  -2.807  -0.277  0.00  0.00    +0.046 A 
ATOM     20  C   UNL     1       3.630  -4.077   0.332  0.00  0.00    +0.041 A 
ATOM     21  C   UNL     1       3.617  -3.871   1.661  0.00  0.00    +0.195 A 
ATOM     22  O   UNL     1       3.736  -2.553   1.888  0.00  0.00    -0.466 OA
ENDBRANCH  17  18
ENDBRANCH  15  17
ENDBRANCH  13  15
ENDBRANCH  11  13
ENDBRANCH   9  11
ENDBRANCH   5   7
BRANCH   4  23
ATOM     23  N   UNL     1      -3.709   2.938   0.036  0.00  0.00    -0.215 N 
ATOM     24  H   UNL     1      -3.070   3.429  -0.503  0.00  0.00    +0.174 HD
BRANCH  23  25
ATOM     25  S   UNL     1      -4.964   3.737   0.764  0.00  0.00    +0.079 S 
ATOM     26  O   UNL     1      -4.756   5.123   0.528  0.00  0.00    -0.149 OA
ATOM     27  O   UNL     1      -6.154   3.068   0.370  0.00  0.00    -0.149 OA
BRANCH  25  28
ATOM     28  C   UNL     1      -4.800   3.492   2.501  0.00  0.00    +0.146 A 
ATOM     29  C   UNL     1      -4.129   4.242   3.409  0.00  0.00    +0.036 A 
ATOM     30  C   UNL     1      -4.138   3.855   4.736  0.00  0.00    +0.010 A 
ATOM     31  C   UNL     1      -4.817   2.736   5.090  0.00  0.00    +0.047 A 
ATOM     32  S   UNL     1      -5.481   2.196   3.523  0.00  0.00    -0.077 S 
ENDBRANCH  25  28
ENDBRANCH  23  25
ENDBRANCH   4  23
TORSDOF 9
