REMARK  Name = ZINC58414325
REMARK  7 active torsions:
REMARK  status: ('A' for Active; 'I' for Inactive)
REMARK    1  A    between atoms: C_1  and  C_2
REMARK    2  A    between atoms: C_4  and  N_28
REMARK    3  A    between atoms: C_6  and  S_8
REMARK    4  A    between atoms: S_8  and  C_9
REMARK    5  A    between atoms: C_9  and  C_11
REMARK    6  A    between atoms: C_9  and  C_12
REMARK    7  A    between atoms: C_18  and  C_23
REMARK                            x       y       z     vdW  Elec       q    Type
REMARK                         _______ _______ _______ _____ _____    ______ ____
ROOT
ATOM      1  C   UNL     1       0.216  -5.458   3.460  0.00  0.00    +0.124 A 
ATOM      2  N   UNL     1      -0.202  -4.968   4.656  0.00  0.00    -0.309 N 
ATOM      3  H   UNL     1      -0.586  -4.079   4.697  0.00  0.00    +0.170 HD
ATOM      4  C   UNL     1      -0.094  -5.694   5.784  0.00  0.00    +0.260 A 
ATOM      5  O   UNL     1      -0.475  -5.240   6.850  0.00  0.00    -0.267 OA
ATOM      6  C   UNL     1       0.474  -7.005   5.714  0.00  0.00    +0.083 A 
ATOM      7  C   UNL     1       0.694  -7.973   6.783  0.00  0.00    +0.039 A 
ATOM      8  C   UNL     1       1.256  -9.170   6.473  0.00  0.00    +0.059 A 
ATOM      9  S   UNL     1       1.519  -9.057   4.713  0.00  0.00    -0.076 S 
ATOM     10  C   UNL     1       0.878  -7.426   4.437  0.00  0.00    +0.116 A 
ATOM     11  N   UNL     1       0.733  -6.653   3.364  0.00  0.00    -0.225 NA
ENDROOT
BRANCH   7  12
ATOM     12  C   UNL     1       0.315  -7.658   8.175  0.00  0.00    +0.136 A 
ATOM     13  C   UNL     1      -0.420  -8.450   9.002  0.00  0.00    +0.050 A 
ATOM     14  C   UNL     1      -0.538  -7.761  10.226  0.00  0.00    +0.042 A 
ATOM     15  C   UNL     1       0.122  -6.595  10.088  0.00  0.00    +0.196 A 
ATOM     16  O   UNL     1       0.642  -6.539   8.850  0.00  0.00    -0.463 OA
ENDBRANCH   7  12
BRANCH   1  17
ATOM     17  C   UNL     1       0.075  -4.610   2.222  0.00  0.00    +0.117 C 
ATOM     18  C   UNL     1      -1.231  -4.963   1.508  0.00  0.00    +0.027 C 
BRANCH  17  19
ATOM     19  S   UNL     1       0.053  -2.857   2.690  0.00  0.00    -0.075 S 
BRANCH  19  25
ATOM     20  C   UNL     1      -0.018   1.503   0.010  0.00  0.00    +0.066 C 
ATOM     21  C   UNL     1       0.002  -0.004   0.002  0.00  0.00    +0.044 A 
ATOM     22  C   UNL     1       0.006  -0.696  -1.194  0.00  0.00    +0.066 A 
ATOM     23  C   UNL     1       0.025  -2.091  -1.157  0.00  0.00    +0.121 A 
ATOM     24  N   UNL     1       0.039  -2.705   0.022  0.00  0.00    -0.207 NA
ATOM     25  C   UNL     1       0.035  -2.005   1.147  0.00  0.00    +0.191 A 
ATOM     26  N   UNL     1       0.022  -0.679   1.141  0.00  0.00    -0.227 NA
BRANCH  23  27
ATOM     27  N   UNL     1       0.029  -2.826  -2.331  0.00  0.00    -0.343 N 
ATOM     28  H   UNL     1       0.018  -2.371  -3.188  0.00  0.00    +0.144 HD
ATOM     29  H   UNL     1       0.042  -3.795  -2.297  0.00  0.00    +0.144 HD
ENDBRANCH  23  27
ENDBRANCH  19  25
ENDBRANCH  17  19
ENDBRANCH   1  17
TORSDOF 5
