REMARK  Name = ZINC66201523
REMARK  15 active torsions:
REMARK  status: ('A' for Active; 'I' for Inactive)
REMARK    1  A    between atoms: C_1  and  C_2
REMARK    2  A    between atoms: C_5  and  C_36
REMARK    3  A    between atoms: C_6  and  O_8
REMARK    4  A    between atoms: O_8  and  C_9
REMARK    5  A    between atoms: C_9  and  C_10
REMARK    6  A    between atoms: C_10  and  C_11
REMARK    7  A    between atoms: C_11  and  C_12
REMARK    8  A    between atoms: C_12  and  C_13
REMARK    9  A    between atoms: C_12  and  C_14
REMARK   10  A    between atoms: C_12  and  C_15
REMARK   11  A    between atoms: N_17  and  C_18
REMARK   12  A    between atoms: C_18  and  N_20
REMARK   13  A    between atoms: N_20  and  C_21
REMARK   14  A    between atoms: C_26  and  C_27
REMARK   15  A    between atoms: N_29  and  C_30
REMARK                            x       y       z     vdW  Elec       q    Type
REMARK                         _______ _______ _______ _____ _____    ______ ____
ROOT
ATOM      1  C   UNL     1      -0.227  -2.153  10.904  0.00  0.00    +0.141 C 
ATOM      2  S   UNL     1      -0.568  -0.476  10.884  0.00  0.00    -0.018 S 
ENDROOT
BRANCH   1   5
ATOM      3  C   UNL     1      -0.599  -2.257   8.602  0.00  0.00    +0.224 C 
ATOM      4  O   UNL     1      -0.840  -1.069   8.588  0.00  0.00    -0.275 OA
ATOM      5  N   UNL     1      -0.278  -2.866   9.761  0.00  0.00    -0.267 N 
ATOM      6  H   UNL     1      -0.085  -3.816   9.773  0.00  0.00    +0.157 HD
BRANCH   3   7
ATOM      7  C   UNL     1      -0.656  -3.053   7.324  0.00  0.00    +0.042 C 
ATOM      8  C   UNL     1      -1.702  -4.162   7.461  0.00  0.00    +0.020 C 
ATOM      9  C   UNL     1       0.714  -3.676   7.048  0.00  0.00    +0.020 C 
BRANCH   7  10
ATOM     10  C   UNL     1      -1.040  -2.131   6.165  0.00  0.00    +0.019 C 
BRANCH  10  11
ATOM     11  C   UNL     1      -1.099  -2.939   4.868  0.00  0.00    +0.042 C 
BRANCH  11  12
ATOM     12  C   UNL     1      -1.482  -2.017   3.709  0.00  0.00    +0.229 C 
BRANCH  12  13
ATOM     13  O   UNL     1      -1.537  -2.772   2.497  0.00  0.00    -0.492 OA
BRANCH  13  19
ATOM     14  C   UNL     1      -2.754   1.425   0.323  0.00  0.00    +0.044 C 
ATOM     15  C   UNL     1      -2.466  -0.053   0.265  0.00  0.00    -0.047 A 
ATOM     16  C   UNL     1      -2.537  -0.724  -0.942  0.00  0.00    +0.004 A 
ATOM     17  C   UNL     1      -2.273  -2.080  -0.998  0.00  0.00    +0.007 A 
ATOM     18  C   UNL     1      -1.938  -2.768   0.152  0.00  0.00    -0.009 A 
ATOM     19  C   UNL     1      -1.866  -2.097   1.364  0.00  0.00    +0.124 A 
ATOM     20  C   UNL     1      -2.126  -0.735   1.417  0.00  0.00    +0.049 A 
ATOM     21  C   UNL     1      -1.652  -4.246   0.090  0.00  0.00    +0.047 C 
ENDBRANCH  13  19
ENDBRANCH  12  13
ENDBRANCH  11  12
ENDBRANCH  10  11
ENDBRANCH   7  10
ENDBRANCH   3   7
ENDBRANCH   1   5
BRANCH   1  22
ATOM     22  N   UNL     1       0.094  -2.762  12.064  0.00  0.00    -0.296 N 
ATOM     23  H   UNL     1       0.252  -3.719  12.082  0.00  0.00    +0.154 HD
BRANCH  22  24
ATOM     24  C   UNL     1       0.198  -2.017  13.235  0.00  0.00    +0.045 A 
ATOM     25  C   UNL     1       0.792  -0.762  13.213  0.00  0.00    +0.024 A 
ATOM     26  C   UNL     1       0.894  -0.025  14.376  0.00  0.00    +0.002 A 
ATOM     27  C   UNL     1       0.407  -0.530  15.571  0.00  0.00    +0.001 A 
ATOM     28  C   UNL     1      -0.185  -1.773  15.612  0.00  0.00    +0.015 A 
ATOM     29  C   UNL     1      -0.302  -2.528  14.442  0.00  0.00    +0.058 A 
BRANCH  29  30
ATOM     30  C   UNL     1      -0.940  -3.857  14.478  0.00  0.00    +0.250 C 
ATOM     31  O   UNL     1      -0.957  -4.550  13.479  0.00  0.00    -0.270 OA
ATOM     32  N   UNL     1      -1.504  -4.304  15.617  0.00  0.00    -0.281 N 
ATOM     33  H   UNL     1      -1.430  -3.782  16.432  0.00  0.00    +0.155 HD
BRANCH  32  34
ATOM     34  C   UNL     1      -2.194  -5.520  15.626  0.00  0.00    +0.034 A 
ATOM     35  C   UNL     1      -1.754  -6.576  14.839  0.00  0.00    +0.023 A 
ATOM     36  C   UNL     1      -2.438  -7.776  14.850  0.00  0.00    +0.002 A 
ATOM     37  C   UNL     1      -3.561  -7.926  15.643  0.00  0.00    +0.000 A 
ATOM     38  C   UNL     1      -4.002  -6.876  16.427  0.00  0.00    +0.002 A 
ATOM     39  C   UNL     1      -3.319  -5.676  16.426  0.00  0.00    +0.023 A 
ENDBRANCH  32  34
ENDBRANCH  29  30
ENDBRANCH  22  24
ENDBRANCH   1  22
TORSDOF 11
