REMARK  Name = ZINC08445082
REMARK  10 active torsions:
REMARK  status: ('A' for Active; 'I' for Inactive)
REMARK    1  A    between atoms: C_1  and  C_2
REMARK    2  A    between atoms: C_2  and  N_3
REMARK    3  A    between atoms: N_3  and  C_4
REMARK    4  A    between atoms: N_3  and  C_6
REMARK    5  A    between atoms: C_4  and  C_5
REMARK    6  A    between atoms: C_9  and  C_12
REMARK    7  A    between atoms: C_17  and  C_36
REMARK    8  A    between atoms: C_17  and  C_37
REMARK    9  A    between atoms: C_24  and  C_28
REMARK   10  A    between atoms: C_28  and  C_30
REMARK                            x       y       z     vdW  Elec       q    Type
REMARK                         _______ _______ _______ _____ _____    ______ ____
ROOT
ATOM      1  C   UNL     1       0.361  -6.098  -1.435  0.00  0.00    +0.136 C 
ATOM      2  C   UNL     1       1.151  -7.022  -2.330  0.00  0.00    +0.036 C 
ATOM      3  C   UNL     1       2.546  -6.998  -2.091  0.00  0.00    +0.163 C 
ATOM      4  C   UNL     1       3.510  -7.824  -2.889  0.00  0.00    +0.086 C 
ATOM      5  C   UNL     1       2.917  -8.046  -4.287  0.00  0.00    -0.023 C 
ATOM      6  C   UNL     1       1.553  -8.710  -4.112  0.00  0.00    +0.058 C 
ATOM      7  C   UNL     1       0.642  -7.819  -3.285  0.00  0.00    +0.017 C 
ATOM      8  N   UNL     1      -0.679  -7.917  -3.588  0.00  0.00    -0.316 N 
ATOM      9  C   UNL     1      -1.536  -6.844  -3.760  0.00  0.00    +0.052 A 
ATOM     10  C   UNL     1      -2.130  -6.561  -4.982  0.00  0.00    +0.026 A 
ATOM     11  C   UNL     1      -3.014  -5.506  -5.081  0.00  0.00    +0.013 A 
ATOM     12  C   UNL     1      -3.309  -4.729  -3.957  0.00  0.00    +0.024 A 
ATOM     13  C   UNL     1      -2.693  -5.008  -2.730  0.00  0.00    +0.036 A 
ATOM     14  C   UNL     1      -1.794  -6.052  -2.647  0.00  0.00    +0.050 A 
ATOM     15  N   UNL     1      -1.071  -6.297  -1.483  0.00  0.00    -0.331 N 
ATOM     16  C   UNL     1       2.753  -6.703  -5.000  0.00  0.00    +0.011 C 
ATOM     17  C   UNL     1       3.837  -8.958  -5.101  0.00  0.00    +0.011 C 
ATOM     18  O   UNL     1       2.977  -6.284  -1.208  0.00  0.00    -0.292 OA
ATOM     19  H   UNL     1      -1.538  -6.604  -0.690  0.00  0.00    +0.147 HD
ATOM     20  H   UNL     1      -1.049  -8.807  -3.691  0.00  0.00    +0.152 HD
ENDROOT
BRANCH   1  24
ATOM     21  C   UNL     1       1.209  -2.068  -2.571  0.00  0.00    +0.013 A 
ATOM     22  C   UNL     1       1.592  -2.530  -1.326  0.00  0.00    +0.022 A 
ATOM     23  C   UNL     1       1.317  -3.834  -0.958  0.00  0.00    +0.007 A 
ATOM     24  C   UNL     1       0.660  -4.676  -1.835  0.00  0.00    -0.023 A 
ATOM     25  C   UNL     1       0.276  -4.214  -3.080  0.00  0.00    +0.007 A 
ATOM     26  C   UNL     1       0.547  -2.909  -3.447  0.00  0.00    +0.022 A 
BRANCH  21  27
ATOM     27  N   UNL     1       1.487  -0.750  -2.943  0.00  0.00    -0.394 NA
ATOM     28  H   UNL     1       1.136  -0.582  -3.875  0.00  0.00    +0.126 HD
BRANCH  27  30
ATOM     29  C   UNL     1       1.035   1.612  -2.479  0.00  0.00    +0.022 C 
ATOM     30  C   UNL     1       0.836   0.172  -2.002  0.00  0.00    +0.081 C 
ENDBRANCH  27  30
BRANCH  27  31
ATOM     31  C   UNL     1       2.939  -0.529  -2.920  0.00  0.00    +0.081 C 
ATOM     32  C   UNL     1       3.604  -1.400  -3.987  0.00  0.00    +0.022 C 
ENDBRANCH  27  31
ENDBRANCH  21  27
ENDBRANCH   1  24
BRANCH  12  33
ATOM     33  C   UNL     1      -4.271  -3.616  -4.062  0.00  0.00    +0.193 C 
ATOM     34  O   UNL     1      -4.236  -2.704  -3.259  0.00  0.00    -0.287 OA
BRANCH  33  35
ATOM     35  C   UNL     1      -5.277  -3.609  -5.145  0.00  0.00    +0.022 A 
ATOM     36  C   UNL     1      -5.654  -4.805  -5.760  0.00  0.00    +0.012 A 
ATOM     37  C   UNL     1      -6.594  -4.790  -6.769  0.00  0.00    +0.001 A 
ATOM     38  C   UNL     1      -7.161  -3.595  -7.174  0.00  0.00    +0.000 A 
ATOM     39  C   UNL     1      -6.791  -2.406  -6.570  0.00  0.00    +0.001 A 
ATOM     40  C   UNL     1      -5.858  -2.407  -5.554  0.00  0.00    +0.012 A 
ENDBRANCH  33  35
ENDBRANCH  12  33
TORSDOF 6
