REMARK  Name = ZINC18209673
REMARK  5 active torsions:
REMARK  status: ('A' for Active; 'I' for Inactive)
REMARK    1  A    between atoms: C_3  and  C_6
REMARK    2  A    between atoms: C_9  and  C_27
REMARK    3  A    between atoms: C_14  and  C_16
REMARK    4  A    between atoms: N_18  and  C_19
REMARK    5  A    between atoms: C_22  and  O_25
REMARK                            x       y       z     vdW  Elec       q    Type
REMARK                         _______ _______ _______ _____ _____    ______ ____
ROOT
ATOM      1  C   UNL     1       3.608   0.648  -0.045  0.00  0.00    +0.140 C 
ATOM      2  C   UNL     1       4.132   0.377   1.370  0.00  0.00    +0.066 C 
ATOM      3  C   UNL     1       5.664   0.404   1.374  0.00  0.00    +0.215 C 
ATOM      4  N   UNL     1       6.157  -0.455   0.293  0.00  0.00    -0.238 N 
ATOM      5  C   UNL     1       5.396  -0.842  -0.774  0.00  0.00    +0.119 A 
ATOM      6  C   UNL     1       6.154  -1.624  -1.568  0.00  0.00    +0.078 A 
ATOM      7  C   UNL     1       7.432  -1.726  -0.973  0.00  0.00    +0.149 A 
ATOM      8  N   UNL     1       7.423  -1.019   0.144  0.00  0.00    -0.164 NA
ATOM      9  N   UNL     1       4.066  -0.438  -0.935  0.00  0.00    -0.319 N 
ATOM     10  H   UNL     1       3.479  -0.848  -1.589  0.00  0.00    +0.148 HD
ENDROOT
BRANCH   1  13
ATOM     11  C   UNL     1      -0.005   1.374  -0.008  0.00  0.00    +0.041 A 
ATOM     12  C   UNL     1       1.344   1.798  -0.023  0.00  0.00    +0.046 A 
ATOM     13  C   UNL     1       2.102   0.687  -0.029  0.00  0.00    +0.125 A 
ATOM     14  O   UNL     1       1.288  -0.382  -0.018  0.00  0.00    -0.466 OA
ATOM     15  C   UNL     1       0.010   0.029  -0.006  0.00  0.00    +0.195 A 
ENDBRANCH   1  13
BRANCH   7  16
ATOM     16  C   UNL     1       8.578  -2.489  -1.507  0.00  0.00    +0.268 C 
ATOM     17  O   UNL     1       8.466  -3.104  -2.550  0.00  0.00    -0.268 OA
ATOM     18  N   UNL     1       9.748  -2.503  -0.838  0.00  0.00    -0.280 N 
ATOM     19  H   UNL     1       9.859  -1.960  -0.042  0.00  0.00    +0.155 HD
BRANCH  18  20
ATOM     20  C   UNL     1      10.804  -3.304  -1.292  0.00  0.00    +0.034 A 
ATOM     21  C   UNL     1      11.653  -3.916  -0.379  0.00  0.00    +0.027 A 
ATOM     22  C   UNL     1      12.694  -4.705  -0.827  0.00  0.00    +0.047 A 
ATOM     23  C   UNL     1      12.891  -4.886  -2.188  0.00  0.00    +0.117 A 
ATOM     24  C   UNL     1      12.043  -4.275  -3.100  0.00  0.00    +0.047 A 
ATOM     25  C   UNL     1      10.999  -3.490  -2.654  0.00  0.00    +0.027 A 
BRANCH  23  26
ATOM     26  O   UNL     1      13.916  -5.663  -2.629  0.00  0.00    -0.507 OA
ATOM     27  H   UNL     1      13.684  -6.596  -2.739  0.00  0.00    +0.292 HD
ENDBRANCH  23  26
ENDBRANCH  18  20
ENDBRANCH   7  16
BRANCH   3  28
ATOM     28  C   UNL     1       6.182  -0.111   2.718  0.00  0.00    +0.412 C 
ATOM     29  F   UNL     1       5.740  -1.424   2.916  0.00  0.00    -0.168 F 
ATOM     30  F   UNL     1       7.581  -0.086   2.719  0.00  0.00    -0.168 F 
ATOM     31  F   UNL     1       5.700   0.704   3.747  0.00  0.00    -0.168 F 
ENDBRANCH   3  28
TORSDOF 5
