REMARK  Name = ZINC32859584
REMARK  15 active torsions:
REMARK  status: ('A' for Active; 'I' for Inactive)
REMARK    1  A    between atoms: C_1  and  C_2
REMARK    2  A    between atoms: C_2  and  O_3
REMARK    3  A    between atoms: O_3  and  C_4
REMARK    4  A    between atoms: C_4  and  C_6
REMARK    5  A    between atoms: C_7  and  C_31
REMARK    6  A    between atoms: C_10  and  N_11
REMARK    7  A    between atoms: C_12  and  C_14
REMARK    8  A    between atoms: C_14  and  N_15
REMARK    9  A    between atoms: C_18  and  C_22
REMARK   10  A    between atoms: C_18  and  C_23
REMARK   11  A    between atoms: C_27  and  O_29
REMARK   12  A    between atoms: O_29  and  C_30
REMARK   13  A    between atoms: C_31  and  C_32
REMARK   14  A    between atoms: C_32  and  C_33
REMARK   15  A    between atoms: C_32  and  C_34
REMARK                            x       y       z     vdW  Elec       q    Type
REMARK                         _______ _______ _______ _____ _____    ______ ____
ROOT
ATOM      1  N   UNL     1       8.467   2.260  -3.237  0.00  0.00    -0.278 N 
ATOM      2  C   UNL     1       7.397   2.440  -2.437  0.00  0.00    +0.236 C 
ATOM      3  O   UNL     1       7.529   2.979  -1.359  0.00  0.00    -0.274 OA
ATOM      4  H   UNL     1       8.346   1.771  -4.215  0.00  0.00    +0.155 HD
ENDROOT
BRANCH   1   9
ATOM      5  C   UNL     1      10.931   2.590  -3.501  0.00  0.00    +0.091 A 
ATOM      6  C   UNL     1      12.091   3.131  -2.834  0.00  0.00    -0.024 A 
ATOM      7  C   UNL     1      11.903   3.675  -1.618  0.00  0.00    +0.051 A 
ATOM      8  S   UNL     1      10.154   3.477  -1.346  0.00  0.00    -0.081 S 
ATOM      9  C   UNL     1       9.719   2.690  -2.826  0.00  0.00    +0.086 A 
BRANCH   5  10
ATOM     10  C   UNL     1      11.025   1.969  -4.824  0.00  0.00    +0.342 C 
ATOM     11  O   UNL     1      10.891   2.647  -5.825  0.00  0.00    -0.245 OA
BRANCH  10  12
ATOM     12  O   UNL     1      11.260   0.645  -4.933  0.00  0.00    -0.461 OA
BRANCH  12  14
ATOM     13  C   UNL     1      11.611  -1.405  -6.198  0.00  0.00    +0.048 C 
ATOM     14  C   UNL     1      11.341   0.099  -6.276  0.00  0.00    +0.229 C 
ENDBRANCH  12  14
ENDBRANCH  10  12
ENDBRANCH   5  10
BRANCH   6  15
ATOM     15  C   UNL     1      13.457   3.083  -3.470  0.00  0.00    +0.039 C 
BRANCH  15  16
ATOM     16  C   UNL     1      13.630   4.289  -4.395  0.00  0.00    -0.013 C 
ATOM     17  C   UNL     1      13.615   5.575  -3.566  0.00  0.00    +0.007 C 
ATOM     18  C   UNL     1      14.965   4.176  -5.136  0.00  0.00    +0.007 C 
ENDBRANCH  15  16
ENDBRANCH   6  15
ENDBRANCH   1   9
BRANCH   2  19
ATOM     19  C   UNL     1       6.035   1.972  -2.883  0.00  0.00    +0.214 C 
BRANCH  19  20
ATOM     20  N   UNL     1       5.048   2.281  -1.846  0.00  0.00    -0.215 N 
ATOM     21  C   UNL     1       4.725   1.449  -0.836  0.00  0.00    +0.251 C 
ATOM     22  O   UNL     1       5.178   0.345  -0.624  0.00  0.00    -0.272 OA
ATOM     23  C   UNL     1       3.677   2.181  -0.022  0.00  0.00    +0.135 C 
ATOM     24  N   UNL     1       3.516   3.461  -0.733  0.00  0.00    -0.281 N 
ATOM     25  C   UNL     1       4.358   3.426  -1.783  0.00  0.00    +0.310 C 
ATOM     26  O   UNL     1       4.477   4.332  -2.584  0.00  0.00    -0.252 OA
ATOM     27  C   UNL     1       4.169   2.418   1.407  0.00  0.00    +0.047 C 
ATOM     28  H   UNL     1       2.804   4.212  -0.361  0.00  0.00    +0.152 HD
BRANCH  23  29
ATOM     29  C   UNL     1       2.380   1.413  -0.013  0.00  0.00    -0.012 A 
ATOM     30  C   UNL     1       2.396   0.030  -0.021  0.00  0.00    +0.006 A 
ATOM     31  C   UNL     1       1.208  -0.677  -0.013  0.00  0.00    +0.004 A 
ATOM     32  C   UNL     1       0.002  -0.004   0.002  0.00  0.00    +0.045 A 
ATOM     33  C   UNL     1      -0.017   1.383   0.010  0.00  0.00    +0.120 A 
ATOM     34  C   UNL     1       1.177   2.091   0.002  0.00  0.00    +0.051 A 
BRANCH  33  35
ATOM     35  O   UNL     1      -1.202   2.047   0.019  0.00  0.00    -0.495 OA
ATOM     36  C   UNL     1      -2.391   1.254   0.020  0.00  0.00    +0.277 C 
ENDBRANCH  33  35
ENDBRANCH  23  29
ENDBRANCH  19  20
ENDBRANCH   2  19
TORSDOF 10
