REMARK  Name = ZINC08965885
REMARK  8 active torsions:
REMARK  status: ('A' for Active; 'I' for Inactive)
REMARK    1  A    between atoms: C_4  and  C_7
REMARK    2  A    between atoms: C_7  and  N_8
REMARK    3  A    between atoms: C_9  and  N_35
REMARK    4  A    between atoms: C_10  and  N_17
REMARK    5  A    between atoms: N_17  and  C_18
REMARK    6  A    between atoms: C_18  and  C_19
REMARK    7  A    between atoms: C_19  and  C_20
REMARK    8  A    between atoms: C_26  and  C_28
REMARK                            x       y       z     vdW  Elec       q    Type
REMARK                         _______ _______ _______ _____ _____    ______ ____
ROOT
ATOM      1  N   UNL     1       1.959   3.975  -1.315  0.00  0.00    -0.276 N 
ATOM      2  C   UNL     1       0.671   3.501  -1.222  0.00  0.00    +0.128 A 
ATOM      3  C   UNL     1      -0.164   4.005  -0.246  0.00  0.00    +0.140 A 
ATOM      4  C   UNL     1       0.334   4.984   0.635  0.00  0.00    +0.277 A 
ATOM      5  O   UNL     1      -0.381   5.443   1.510  0.00  0.00    -0.266 OA
ATOM      6  N   UNL     1       1.605   5.411   0.504  0.00  0.00    -0.273 N 
ATOM      7  H   UNL     1       1.960   6.106   1.129  0.00  0.00    +0.173 HD
ATOM      8  C   UNL     1       2.403   4.912  -0.457  0.00  0.00    +0.331 A 
ATOM      9  O   UNL     1       3.546   5.314  -0.552  0.00  0.00    -0.246 OA
ENDROOT
BRANCH   3  10
ATOM     10  N   UNL     1      -1.492   3.543  -0.129  0.00  0.00    -0.260 N 
ATOM     11  C   UNL     1      -1.732   2.249   0.163  0.00  0.00    +0.251 C 
ATOM     12  O   UNL     1      -2.875   1.838   0.205  0.00  0.00    -0.270 OA
BRANCH  11  13
ATOM     13  C   UNL     1      -0.606   1.332   0.431  0.00  0.00    +0.037 A 
ATOM     14  C   UNL     1       0.626   1.838   0.852  0.00  0.00    +0.016 A 
ATOM     15  C   UNL     1       1.675   0.977   1.096  0.00  0.00    +0.039 A 
ATOM     16  C   UNL     1       1.509  -0.388   0.924  0.00  0.00    +0.123 A 
ATOM     17  C   UNL     1       0.288  -0.896   0.507  0.00  0.00    +0.039 A 
ATOM     18  C   UNL     1      -0.768  -0.045   0.260  0.00  0.00    +0.016 A 
ATOM     19  F   UNL     1       2.540  -1.227   1.164  0.00  0.00    -0.205 F 
ENDBRANCH  11  13
BRANCH  10  20
ATOM     20  C   UNL     1      -2.610   4.470  -0.323  0.00  0.00    +0.118 C 
BRANCH  20  21
ATOM     21  C   UNL     1      -3.104   4.966   1.037  0.00  0.00    +0.050 C 
BRANCH  21  22
ATOM     22  C   UNL     1      -4.298   5.864   0.841  0.00  0.00    -0.072 C 
ATOM     23  C   UNL     1      -5.476   5.337   0.938  0.00  0.00    -0.028 C 
ATOM     24  C   UNL     1      -6.756   6.100   0.759  0.00  0.00    +0.027 C 
ATOM     25  C   UNL     1      -6.494   7.603   0.874  0.00  0.00    +0.004 C 
ATOM     26  C   UNL     1      -5.309   7.960  -0.032  0.00  0.00    +0.005 C 
ATOM     27  C   UNL     1      -4.047   7.315   0.550  0.00  0.00    +0.030 C 
ENDBRANCH  21  22
ENDBRANCH  20  21
ENDBRANCH  10  20
ENDBRANCH   3  10
BRANCH   2  28
ATOM     28  N   UNL     1       0.219   2.540  -2.095  0.00  0.00    -0.343 N 
ATOM     29  H   UNL     1      -0.709   2.259  -2.069  0.00  0.00    +0.144 HD
ATOM     30  H   UNL     1       0.829   2.142  -2.736  0.00  0.00    +0.144 HD
ENDBRANCH   2  28
BRANCH   1  31
ATOM     31  C   UNL     1       2.854   3.453  -2.350  0.00  0.00    +0.163 C 
BRANCH  31  35
ATOM     32  C   UNL     1       4.921   0.029  -0.849  0.00  0.00    +0.000 A 
ATOM     33  C   UNL     1       3.772  -0.132  -1.600  0.00  0.00    +0.000 A 
ATOM     34  C   UNL     1       3.103   0.976  -2.086  0.00  0.00    +0.005 A 
ATOM     35  C   UNL     1       3.583   2.245  -1.820  0.00  0.00    -0.028 A 
ATOM     36  C   UNL     1       4.735   2.405  -1.073  0.00  0.00    +0.005 A 
ATOM     37  C   UNL     1       5.401   1.298  -0.583  0.00  0.00    +0.000 A 
ENDBRANCH  31  35
ENDBRANCH   1  31
TORSDOF 8
