REMARK  Name = ZINC39206064
REMARK  10 active torsions:
REMARK  status: ('A' for Active; 'I' for Inactive)
REMARK    1  A    between atoms: C_1  and  C_2
REMARK    2  A    between atoms: C_2  and  O_3
REMARK    3  A    between atoms: O_3  and  C_4
REMARK    4  A    between atoms: C_6  and  C_11
REMARK    5  A    between atoms: C_9  and  O_10
REMARK    6  A    between atoms: C_13  and  C_26
REMARK    7  A    between atoms: C_14  and  N_25
REMARK    8  A    between atoms: C_19  and  C_22
REMARK    9  A    between atoms: C_22  and  O_23
REMARK   10  A    between atoms: O_23  and  C_24
REMARK                            x       y       z     vdW  Elec       q    Type
REMARK                         _______ _______ _______ _____ _____    ______ ____
ROOT
ATOM      1  C   UNL     1      -0.217  -4.963  -0.535  0.00  0.00    +0.098 C 
ATOM      2  C   UNL     1      -1.226  -5.898   0.105  0.00  0.00    +0.097 C 
ATOM      3  C   UNL     1      -1.162  -7.236  -0.065  0.00  0.00    +0.195 C 
ATOM      4  O   UNL     1      -0.234  -7.913  -0.766  0.00  0.00    -0.448 OA
ATOM      5  C   UNL     1       0.492  -7.190  -1.763  0.00  0.00    +0.343 C 
ATOM      6  C   UNL     1       0.851  -5.853  -1.108  0.00  0.00    +0.032 C 
ATOM      7  C   UNL     1       2.157  -5.774  -1.188  0.00  0.00    +0.094 C 
ATOM      8  N   UNL     1       2.667  -6.919  -1.709  0.00  0.00    -0.153 NA
ATOM      9  N   UNL     1       1.809  -7.774  -2.033  0.00  0.00    -0.138 NA
ENDROOT
BRANCH   1  12
ATOM     10  C   UNL     1       0.802  -1.825   1.306  0.00  0.00    +0.162 A 
ATOM     11  C   UNL     1       0.261  -2.673   0.353  0.00  0.00    +0.054 A 
ATOM     12  C   UNL     1       0.372  -4.043   0.502  0.00  0.00    -0.031 A 
ATOM     13  C   UNL     1       1.024  -4.570   1.602  0.00  0.00    +0.008 A 
ATOM     14  C   UNL     1       1.566  -3.730   2.557  0.00  0.00    +0.049 A 
ATOM     15  C   UNL     1       1.462  -2.356   2.410  0.00  0.00    +0.158 A 
BRANCH  15  16
ATOM     16  O   UNL     1       2.000  -1.528   3.345  0.00  0.00    -0.503 OA
ATOM     17  H   UNL     1       1.395  -1.301   4.064  0.00  0.00    +0.292 HD
ENDBRANCH  15  16
BRANCH  10  18
ATOM     18  O   UNL     1       0.693  -0.477   1.160  0.00  0.00    -0.489 OA
BRANCH  18  20
ATOM     19  C   UNL     1      -0.019   1.526   0.010  0.00  0.00    +0.048 C 
ATOM     20  C   UNL     1       0.002  -0.004   0.002  0.00  0.00    +0.226 C 
ENDBRANCH  18  20
ENDBRANCH  10  18
ENDBRANCH   1  12
BRANCH   3  21
ATOM     21  N   UNL     1      -2.143  -7.981   0.540  0.00  0.00    -0.329 N 
ATOM     22  H   UNL     1      -2.835  -7.542   1.058  0.00  0.00    +0.145 HD
ATOM     23  H   UNL     1      -2.143  -8.947   0.449  0.00  0.00    +0.145 HD
ENDBRANCH   3  21
BRANCH   2  24
ATOM     24  C   UNL     1      -2.274  -5.348   0.912  0.00  0.00    +0.101 C 
ATOM     25  N   UNL     1      -3.105  -4.911   1.551  0.00  0.00    -0.191 NA
ENDBRANCH   2  24
BRANCH   7  26
ATOM     26  C   UNL     1       2.975  -4.582  -0.763  0.00  0.00    +0.216 C 
BRANCH  26  27
ATOM     27  O   UNL     1       3.807  -4.946   0.341  0.00  0.00    -0.377 OA
ATOM     28  C   UNL     1       4.628  -3.881   0.825  0.00  0.00    +0.194 C 
ENDBRANCH  26  27
ENDBRANCH   7  26
TORSDOF 8
