REMARK  Name = ZINC08940329
REMARK  7 active torsions:
REMARK  status: ('A' for Active; 'I' for Inactive)
REMARK    1  A    between atoms: C_1  and  C_2
REMARK    2  A    between atoms: C_6  and  C_25
REMARK    3  A    between atoms: C_7  and  O_8
REMARK    4  A    between atoms: O_8  and  C_9
REMARK    5  A    between atoms: C_9  and  C_10
REMARK    6  A    between atoms: C_10  and  N_11
REMARK    7  A    between atoms: C_19  and  C_21
REMARK                            x       y       z     vdW  Elec       q    Type
REMARK                         _______ _______ _______ _____ _____    ______ ____
ROOT
ATOM      1  N   UNL     1      -0.670   3.054  -1.286  0.00  0.00    -0.221 N 
ATOM      2  C   UNL     1      -1.572   3.886  -0.726  0.00  0.00    +0.247 C 
ATOM      3  O   UNL     1      -2.567   3.580  -0.104  0.00  0.00    -0.273 OA
ATOM      4  C   UNL     1      -1.079   5.282  -1.033  0.00  0.00    +0.115 C 
ATOM      5  C   UNL     1      -0.772   6.038   0.255  0.00  0.00    +0.035 C 
ATOM      6  C   UNL     1      -2.060   6.225   1.060  0.00  0.00    +0.003 C 
ATOM      7  C   UNL     1      -3.076   7.003   0.221  0.00  0.00    +0.000 C 
ATOM      8  C   UNL     1      -3.393   6.220  -1.054  0.00  0.00    +0.006 C 
ATOM      9  C   UNL     1      -2.110   6.034  -1.868  0.00  0.00    +0.018 C 
ATOM     10  C   UNL     1      -2.421   5.233  -3.134  0.00  0.00    +0.010 C 
ATOM     11  N   UNL     1       0.150   5.064  -1.807  0.00  0.00    -0.285 N 
ATOM     12  C   UNL     1       0.307   3.730  -1.903  0.00  0.00    +0.309 C 
ATOM     13  O   UNL     1       1.233   3.199  -2.485  0.00  0.00    -0.252 OA
ATOM     14  H   UNL     1       0.733   5.746  -2.176  0.00  0.00    +0.151 HD
ENDROOT
BRANCH   1  15
ATOM     15  C   UNL     1      -0.753   1.593  -1.232  0.00  0.00    +0.159 C 
BRANCH  15  16
ATOM     16  C   UNL     1      -0.013   1.086   0.008  0.00  0.00    +0.248 C 
BRANCH  16  17
ATOM     17  O   UNL     1      -0.682   1.547   1.184  0.00  0.00    -0.490 OA
BRANCH  17  24
ATOM     18  C   UNL     1      -1.599  -0.863   2.338  0.00  0.00    +0.047 C 
ATOM     19  C   UNL     1      -0.560   0.009   2.995  0.00  0.00    -0.009 A 
ATOM     20  C   UNL     1      -0.013  -0.362   4.208  0.00  0.00    +0.007 A 
ATOM     21  C   UNL     1       0.936   0.440   4.814  0.00  0.00    +0.001 A 
ATOM     22  C   UNL     1       1.344   1.613   4.205  0.00  0.00    +0.007 A 
ATOM     23  C   UNL     1       0.803   1.986   2.990  0.00  0.00    -0.009 A 
ATOM     24  C   UNL     1      -0.149   1.182   2.380  0.00  0.00    +0.126 A 
ATOM     25  C   UNL     1       1.249   3.264   2.327  0.00  0.00    +0.047 C 
ENDBRANCH  17  24
ENDBRANCH  16  17
ENDBRANCH  15  16
ENDBRANCH   1  15
TORSDOF 4
