REMARK  Name = ZINC00673299
REMARK  4 active torsions:
REMARK  status: ('A' for Active; 'I' for Inactive)
REMARK    1  A    between atoms: C_3  and  N_22
REMARK    2  A    between atoms: C_4  and  C_8
REMARK    3  A    between atoms: N_10  and  C_11
REMARK    4  A    between atoms: C_12  and  C_19
REMARK                            x       y       z     vdW  Elec       q    Type
REMARK                         _______ _______ _______ _____ _____    ______ ____
ROOT
ATOM      1  C   UNL     1      -1.273  -0.750   0.087  0.00  0.00    +0.251 C 
ATOM      2  O   UNL     1      -2.332  -0.158   0.012  0.00  0.00    -0.270 OA
ATOM      3  N   UNL     1      -1.257  -2.091   0.214  0.00  0.00    -0.275 N 
ATOM      4  H   UNL     1      -0.412  -2.563   0.274  0.00  0.00    +0.156 HD
ENDROOT
BRANCH   3   5
ATOM      5  C   UNL     1      -2.449  -2.796   0.259  0.00  0.00    +0.085 A 
ATOM      6  C   UNL     1      -2.636  -4.163   0.379  0.00  0.00    +0.068 A 
ATOM      7  C   UNL     1      -4.012  -4.658   0.406  0.00  0.00    -0.023 A 
ATOM      8  C   UNL     1      -4.962  -3.711   0.300  0.00  0.00    -0.004 A 
ATOM      9  S   UNL     1      -4.065  -2.183   0.171  0.00  0.00    -0.077 S 
ATOM     10  C   UNL     1      -6.348  -4.296   0.333  0.00  0.00    +0.043 C 
ATOM     11  C   UNL     1      -6.157  -5.716   0.910  0.00  0.00    +0.010 C 
ATOM     12  C   UNL     1      -4.697  -6.021   0.521  0.00  0.00    +0.037 C 
BRANCH   6  13
ATOM     13  C   UNL     1      -1.497  -5.080   0.479  0.00  0.00    +0.244 C 
ATOM     14  O   UNL     1      -1.041  -5.367   1.571  0.00  0.00    -0.270 OA
ATOM     15  N   UNL     1      -0.955  -5.606  -0.637  0.00  0.00    -0.325 N 
ATOM     16  H   UNL     1      -1.319  -5.377  -1.507  0.00  0.00    +0.145 HD
ATOM     17  H   UNL     1      -0.201  -6.213  -0.571  0.00  0.00    +0.145 HD
ENDBRANCH   6  13
ENDBRANCH   3   5
BRANCH   1  21
ATOM     18  C   UNL     1       2.381   1.413  -0.052  0.00  0.00    +0.022 A 
ATOM     19  C   UNL     1       1.456   1.556  -1.071  0.00  0.00    +0.035 A 
ATOM     20  C   UNL     1       0.268   0.857  -1.032  0.00  0.00    +0.138 A 
ATOM     21  C   UNL     1      -0.001   0.003   0.039  0.00  0.00    +0.069 A 
ATOM     22  C   UNL     1       0.935  -0.138   1.065  0.00  0.00    +0.035 A 
ATOM     23  C   UNL     1       2.121   0.569   1.014  0.00  0.00    +0.042 A 
ATOM     24 CL   UNL     1       3.287   0.396   2.288  0.00  0.00    -0.084 Cl
BRANCH  20  25
ATOM     25  N   UNL     1      -0.717   1.006  -2.127  0.00  0.00    +0.057 N 
ATOM     26  O   UNL     1      -0.534   1.835  -3.001  0.00  0.00    -0.126 OA
ATOM     27  O   UNL     1      -1.710   0.302  -2.153  0.00  0.00    -0.126 OA
ENDBRANCH  20  25
ENDBRANCH   1  21
TORSDOF 4
