REMARK  Name = ZINC48560574
REMARK  6 active torsions:
REMARK  status: ('A' for Active; 'I' for Inactive)
REMARK    1  A    between atoms: C_1  and  O_2
REMARK    2  A    between atoms: O_2  and  C_3
REMARK    3  A    between atoms: C_3  and  C_4
REMARK    4  A    between atoms: C_4  and  N_5
REMARK    5  A    between atoms: N_8  and  C_9
REMARK    6  A    between atoms: C_12  and  N_16
REMARK                            x       y       z     vdW  Elec       q    Type
REMARK                         _______ _______ _______ _____ _____    ______ ____
ROOT
ATOM      1  C   UNL     1       2.215  -5.597  -1.860  0.00  0.00    +0.036 A 
ATOM      2  C   UNL     1       1.492  -6.492  -1.083  0.00  0.00    +0.025 A 
ATOM      3  C   UNL     1       1.495  -7.837  -1.396  0.00  0.00    +0.026 A 
ATOM      4  C   UNL     1       2.220  -8.295  -2.488  0.00  0.00    +0.049 A 
ATOM      5  C   UNL     1       2.943  -7.399  -3.266  0.00  0.00    +0.064 A 
ATOM      6  C   UNL     1       2.936  -6.052  -2.955  0.00  0.00    +0.045 A 
ATOM      7 CL   UNL     1       3.851  -7.970  -4.631  0.00  0.00    -0.082 Cl
ENDROOT
BRANCH   4   8
ATOM      8  N   UNL     1       2.223  -9.658  -2.804  0.00  0.00    -0.318 N 
ATOM      9  C   UNL     1       3.226 -10.575  -2.235  0.00  0.00    +0.124 C 
ATOM     10  C   UNL     1       2.491 -11.632  -1.408  0.00  0.00    +0.123 C 
ATOM     11  N   UNL     1       1.355 -12.166  -2.145  0.00  0.00    -0.313 N 
ATOM     12  C   UNL     1       0.745 -11.543  -3.154  0.00  0.00    +0.230 C 
ATOM     13  O   UNL     1      -0.242 -12.054  -3.639  0.00  0.00    -0.274 OA
ATOM     14  C   UNL     1       1.222 -10.235  -3.714  0.00  0.00    +0.200 C 
ATOM     15  H   UNL     1       1.018 -13.038  -1.884  0.00  0.00    +0.149 HD
ENDBRANCH   4   8
BRANCH   1  19
ATOM     16  N   UNL     1       2.149  -2.000  -2.224  0.00  0.00    -0.297 N 
ATOM     17  C   UNL     1       2.245  -3.310  -2.525  0.00  0.00    +0.304 C 
ATOM     18  O   UNL     1       2.361  -3.661  -3.683  0.00  0.00    -0.253 OA
ATOM     19  N   UNL     1       2.212  -4.231  -1.541  0.00  0.00    -0.269 N 
ATOM     20  H   UNL     1       2.056  -1.720  -1.299  0.00  0.00    +0.150 HD
ATOM     21  H   UNL     1       2.187  -3.950  -0.614  0.00  0.00    +0.156 HD
BRANCH  16  22
ATOM     22  C   UNL     1       2.184  -0.998  -3.292  0.00  0.00    +0.133 C 
BRANCH  22  23
ATOM     23  C   UNL     1       2.057   0.400  -2.685  0.00  0.00    +0.178 C 
BRANCH  23  25
ATOM     24  C   UNL     1       3.182   1.961  -1.256  0.00  0.00    +0.194 C 
ATOM     25  O   UNL     1       3.201   0.673  -1.873  0.00  0.00    -0.381 OA
ENDBRANCH  23  25
ENDBRANCH  22  23
ENDBRANCH  16  22
ENDBRANCH   1  19
TORSDOF 5
