REMARK  Name = ZINC09456784
REMARK  6 active torsions:
REMARK  status: ('A' for Active; 'I' for Inactive)
REMARK    1  A    between atoms: C_1  and  C_2
REMARK    2  A    between atoms: C_2  and  C_4
REMARK    3  A    between atoms: C_2  and  S_10
REMARK    4  A    between atoms: S_10  and  C_11
REMARK    5  A    between atoms: C_14  and  C_15
REMARK    6  A    between atoms: N_24  and  C_25
REMARK                            x       y       z     vdW  Elec       q    Type
REMARK                         _______ _______ _______ _____ _____    ______ ____
ROOT
ATOM      1  C   UNL     1       4.467  -0.795   1.042  0.00  0.00    +0.169 C 
ATOM      2  N   UNL     1       5.587  -1.371   0.690  0.00  0.00    -0.220 NA
ATOM      3  C   UNL     1       5.544  -1.659  -0.645  0.00  0.00    +0.129 C 
ATOM      4  C   UNL     1       6.519  -2.261  -1.388  0.00  0.00    +0.041 C 
ATOM      5  C   UNL     1       4.227  -1.191  -1.119  0.00  0.00    +0.275 C 
ATOM      6  O   UNL     1       3.783  -1.260  -2.250  0.00  0.00    -0.268 OA
ATOM      7  N   UNL     1       3.619  -0.666  -0.032  0.00  0.00    -0.212 N 
ENDROOT
BRANCH   7   8
ATOM      8  C   UNL     1       2.339  -0.094  -0.004  0.00  0.00    +0.063 A 
ATOM      9  C   UNL     1       2.180   1.265  -0.235  0.00  0.00    +0.025 A 
ATOM     10  C   UNL     1       0.918   1.827  -0.206  0.00  0.00    +0.003 A 
ATOM     11  C   UNL     1      -0.187   1.037   0.053  0.00  0.00    +0.021 A 
ATOM     12  C   UNL     1      -0.033  -0.318   0.285  0.00  0.00    +0.061 A 
ATOM     13  C   UNL     1       1.229  -0.886   0.257  0.00  0.00    +0.081 A 
ATOM     14 CL   UNL     1       1.423  -2.587   0.547  0.00  0.00    -0.080 Cl
ATOM     15 CL   UNL     1      -1.422  -1.307   0.610  0.00  0.00    -0.082 Cl
ENDBRANCH   7   8
BRANCH   4  16
ATOM     16  C   UNL     1       7.714  -2.800  -0.731  0.00  0.00    -0.023 A 
ATOM     17  C   UNL     1       8.783  -3.281  -1.498  0.00  0.00    +0.009 A 
ATOM     18  C   UNL     1       9.905  -3.781  -0.873  0.00  0.00    +0.020 A 
ATOM     19  C   UNL     1       9.973  -3.819   0.511  0.00  0.00    +0.041 A 
ATOM     20  C   UNL     1       8.917  -3.350   1.277  0.00  0.00    +0.020 A 
ATOM     21  C   UNL     1       7.791  -2.842   0.667  0.00  0.00    +0.009 A 
ATOM     22 CL   UNL     1      11.388  -4.456   1.289  0.00  0.00    -0.084 Cl
ENDBRANCH   4  16
BRANCH   1  23
ATOM     23  S   UNL     1       4.094  -0.254   2.677  0.00  0.00    -0.077 S 
BRANCH  23  25
ATOM     24  C   UNL     1       6.790   0.080   2.967  0.00  0.00    +0.029 C 
ATOM     25  C   UNL     1       5.621  -0.735   3.522  0.00  0.00    +0.137 C 
BRANCH  25  26
ATOM     26  C   UNL     1       5.481  -0.472   5.000  0.00  0.00    +0.233 C 
ATOM     27  O   UNL     1       4.641   0.304   5.400  0.00  0.00    -0.274 OA
ATOM     28  N   UNL     1       6.290  -1.100   5.875  0.00  0.00    -0.239 N 
ATOM     29  C   UNL     1       6.166  -0.865   7.197  0.00  0.00    +0.303 C 
ATOM     30  O   UNL     1       5.323  -0.086   7.598  0.00  0.00    -0.253 OA
ATOM     31  N   UNL     1       6.975  -1.492   8.072  0.00  0.00    -0.313 N 
ATOM     32  H   UNL     1       6.963  -1.721   5.555  0.00  0.00    +0.159 HD
ATOM     33  H   UNL     1       7.648  -2.114   7.752  0.00  0.00    +0.146 HD
ATOM     34  H   UNL     1       6.885  -1.323   9.023  0.00  0.00    +0.146 HD
ENDBRANCH  25  26
ENDBRANCH  23  25
ENDBRANCH   1  23
TORSDOF 5
