REMARK  Name = ZINC10000289
REMARK  14 active torsions:
REMARK  status: ('A' for Active; 'I' for Inactive)
REMARK    1  A    between atoms: C_1  and  C_2
REMARK    2  A    between atoms: C_2  and  O_3
REMARK    3  A    between atoms: O_3  and  C_4
REMARK    4  A    between atoms: C_6  and  C_15
REMARK    5  A    between atoms: C_9  and  O_10
REMARK    6  A    between atoms: O_10  and  C_11
REMARK    7  A    between atoms: C_11  and  C_12
REMARK    8  A    between atoms: N_16  and  N_17
REMARK    9  A    between atoms: C_18  and  C_20
REMARK   10  A    between atoms: C_20  and  C_22
REMARK   11  A    between atoms: C_20  and  N_25
REMARK   12  A    between atoms: C_22  and  C_23
REMARK   13  A    between atoms: C_22  and  C_24
REMARK   14  A    between atoms: C_26  and  C_28
REMARK                            x       y       z     vdW  Elec       q    Type
REMARK                         _______ _______ _______ _____ _____    ______ ____
ROOT
ATOM      1  N   UNL     1       4.707   1.456   0.846  0.00  0.00    -0.205 N 
ATOM      2  C   UNL     1       3.445   1.923   0.918  0.00  0.00    +0.253 C 
ATOM      3  O   UNL     1       3.224   2.995   1.441  0.00  0.00    -0.272 OA
ATOM      4  H   UNL     1       4.876   0.568   0.493  0.00  0.00    +0.177 HD
ENDROOT
BRANCH   1   6
ATOM      5  C   UNL     1       6.990   1.802   1.209  0.00  0.00    +0.138 C 
ATOM      6  N   UNL     1       5.775   2.252   1.279  0.00  0.00    -0.188 NA
BRANCH   5   9
ATOM      7  C   UNL     1      10.473   2.948   2.019  0.00  0.00    +0.163 A 
ATOM      8  C   UNL     1       9.423   2.158   1.590  0.00  0.00    +0.059 A 
ATOM      9  C   UNL     1       8.114   2.640   1.665  0.00  0.00    -0.002 A 
ATOM     10  C   UNL     1       7.873   3.922   2.167  0.00  0.00    +0.013 A 
ATOM     11  C   UNL     1       8.925   4.702   2.599  0.00  0.00    +0.050 A 
ATOM     12  C   UNL     1      10.225   4.222   2.525  0.00  0.00    +0.163 A 
BRANCH   7  13
ATOM     13  O   UNL     1      11.748   2.481   1.948  0.00  0.00    -0.489 OA
BRANCH  13  15
ATOM     14  C   UNL     1      13.419   0.817   1.418  0.00  0.00    +0.048 C 
ATOM     15  C   UNL     1      11.930   1.166   1.419  0.00  0.00    +0.226 C 
ENDBRANCH  13  15
ENDBRANCH   7  13
BRANCH  12  16
ATOM     16  O   UNL     1      11.259   4.997   2.946  0.00  0.00    -0.479 OA
BRANCH  16  17
ATOM     17  C   UNL     1      10.933   6.293   3.454  0.00  0.00    +0.324 C 
BRANCH  17  18
ATOM     18  C   UNL     1      12.197   7.002   3.870  0.00  0.00    +0.248 C 
ATOM     19  O   UNL     1      13.270   6.451   3.744  0.00  0.00    -0.272 OA
ATOM     20  N   UNL     1      12.134   8.247   4.381  0.00  0.00    -0.327 N 
ATOM     21  H   UNL     1      11.275   8.687   4.481  0.00  0.00    +0.145 HD
ATOM     22  H   UNL     1      12.947   8.703   4.649  0.00  0.00    +0.145 HD
ENDBRANCH  17  18
ENDBRANCH  16  17
ENDBRANCH  12  16
ENDBRANCH   5   9
ENDBRANCH   1   6
BRANCH   2  23
ATOM     23  C   UNL     1       2.308   1.113   0.350  0.00  0.00    +0.163 C 
BRANCH  23  24
ATOM     24  N   UNL     1       1.043   1.578   0.925  0.00  0.00    -0.300 N 
ATOM     25  C   UNL     1      -0.015   0.746   0.987  0.00  0.00    +0.246 C 
ATOM     26  O   UNL     1       0.080  -0.391   0.568  0.00  0.00    -0.270 OA
ATOM     27  H   UNL     1       0.967   2.485   1.260  0.00  0.00    +0.150 HD
BRANCH  25  28
ATOM     28  C   UNL     1      -1.293   1.217   1.561  0.00  0.00    +0.055 A 
ATOM     29  C   UNL     1      -1.405   2.520   2.049  0.00  0.00    +0.014 A 
ATOM     30  C   UNL     1      -2.602   2.955   2.578  0.00  0.00    +0.001 A 
ATOM     31  C   UNL     1      -3.688   2.100   2.636  0.00  0.00    +0.001 A 
ATOM     32  C   UNL     1      -3.585   0.806   2.160  0.00  0.00    +0.021 A 
ATOM     33  C   UNL     1      -2.393   0.358   1.622  0.00  0.00    +0.053 A 
ATOM     34 CL   UNL     1      -2.264  -1.267   1.025  0.00  0.00    -0.083 Cl
ENDBRANCH  25  28
ENDBRANCH  23  24
BRANCH  23  35
ATOM     35  C   UNL     1       2.271   1.282  -1.170  0.00  0.00    +0.012 C 
ATOM     36  C   UNL     1       1.191   0.372  -1.758  0.00  0.00    +0.009 C 
ATOM     37  C   UNL     1       1.952   2.739  -1.513  0.00  0.00    +0.009 C 
ENDBRANCH  23  35
ENDBRANCH   2  23
TORSDOF 11
