REMARK  Name = ZINC06128202
REMARK  9 active torsions:
REMARK  status: ('A' for Active; 'I' for Inactive)
REMARK    1  A    between atoms: C_1  and  C_2
REMARK    2  A    between atoms: C_2  and  C_3
REMARK    3  A    between atoms: C_3  and  C_4
REMARK    4  A    between atoms: C_4  and  O_5
REMARK    5  A    between atoms: O_5  and  C_6
REMARK    6  A    between atoms: C_6  and  C_8
REMARK    7  A    between atoms: C_11  and  N_14
REMARK    8  A    between atoms: C_15  and  C_17
REMARK    9  A    between atoms: C_17  and  N_18
REMARK                            x       y       z     vdW  Elec       q    Type
REMARK                         _______ _______ _______ _____ _____    ______ ____
ROOT
ATOM      1  N   UNL     1       7.834   0.944   1.597  0.00  0.00    -0.284 N 
ATOM      2  C   UNL     1       6.794   0.145   1.288  0.00  0.00    +0.235 C 
ATOM      3  O   UNL     1       6.286  -0.548   2.143  0.00  0.00    -0.274 OA
ATOM      4  H   UNL     1       8.290   1.440   0.899  0.00  0.00    +0.155 HD
ENDROOT
BRANCH   1   8
ATOM      5  C   UNL     1       9.094   1.282   5.553  0.00  0.00    +0.059 A 
ATOM      6  C   UNL     1      10.025   1.358   4.513  0.00  0.00    +0.017 A 
ATOM      7  C   UNL     1       9.605   1.246   3.207  0.00  0.00    +0.024 A 
ATOM      8  C   UNL     1       8.256   1.057   2.921  0.00  0.00    +0.033 A 
ATOM      9  C   UNL     1       7.326   0.987   3.954  0.00  0.00    +0.024 A 
ATOM     10  C   UNL     1       7.740   1.093   5.263  0.00  0.00    +0.017 A 
BRANCH   5  11
ATOM     11  C   UNL     1       9.540   1.401   6.954  0.00  0.00    +0.339 C 
ATOM     12  O   UNL     1      10.718   1.566   7.204  0.00  0.00    -0.245 OA
BRANCH  11  13
ATOM     13  O   UNL     1       8.642   1.328   7.955  0.00  0.00    -0.461 OA
BRANCH  13  14
ATOM     14  C   UNL     1       9.153   1.454   9.309  0.00  0.00    +0.232 C 
BRANCH  14  15
ATOM     15  C   UNL     1       7.995   1.347  10.303  0.00  0.00    +0.041 C 
BRANCH  15  17
ATOM     16  C   UNL     1       7.374   1.371  12.723  0.00  0.00    +0.004 C 
ATOM     17  C   UNL     1       8.532   1.479  11.729  0.00  0.00    -0.000 C 
ENDBRANCH  15  17
ENDBRANCH  14  15
ENDBRANCH  13  14
ENDBRANCH  11  13
ENDBRANCH   5  11
ENDBRANCH   1   8
BRANCH   2  18
ATOM     18  C   UNL     1       6.262   0.113  -0.122  0.00  0.00    +0.210 C 
BRANCH  18  19
ATOM     19  N   UNL     1       5.140  -0.826  -0.200  0.00  0.00    -0.258 N 
ATOM     20  C   UNL     1       3.809  -0.490   0.012  0.00  0.00    +0.046 A 
ATOM     21  C   UNL     1       3.090   0.648   0.328  0.00  0.00    +0.024 A 
ATOM     22  C   UNL     1       1.704   0.583   0.462  0.00  0.00    +0.002 A 
ATOM     23  C   UNL     1       0.988  -0.572   0.297  0.00  0.00    +0.008 A 
ATOM     24  C   UNL     1       1.681  -1.750  -0.026  0.00  0.00    -0.015 A 
ATOM     25  C   UNL     1       3.067  -1.656  -0.153  0.00  0.00    +0.016 A 
ATOM     26  C   UNL     1       3.907  -2.734  -0.469  0.00  0.00    +0.047 A 
ATOM     27  C   UNL     1       3.298  -3.962  -0.662  0.00  0.00    +0.014 A 
ATOM     28  C   UNL     1       1.913  -4.073  -0.539  0.00  0.00    +0.001 A 
ATOM     29  C   UNL     1       1.102  -3.014  -0.230  0.00  0.00    +0.008 A 
ATOM     30  C   UNL     1       5.253  -2.149  -0.489  0.00  0.00    +0.252 C 
ATOM     31  O   UNL     1       6.288  -2.744  -0.724  0.00  0.00    -0.270 OA
ENDBRANCH  18  19
ENDBRANCH   2  18
TORSDOF 8
