REMARK  Name = ZINC01065389
REMARK  6 active torsions:
REMARK  status: ('A' for Active; 'I' for Inactive)
REMARK    1  A    between atoms: C_4  and  N_26
REMARK    2  A    between atoms: C_5  and  C_7
REMARK    3  A    between atoms: N_9  and  C_10
REMARK    4  A    between atoms: C_10  and  N_12
REMARK    5  A    between atoms: N_12  and  C_13
REMARK    6  A    between atoms: C_18  and  N_19
REMARK                            x       y       z     vdW  Elec       q    Type
REMARK                         _______ _______ _______ _____ _____    ______ ____
ROOT
ATOM      1  C   UNL     1      -0.328  -4.268  -1.095  0.00  0.00    +0.141 C 
ATOM      2  S   UNL     1       0.851  -5.109  -2.009  0.00  0.00    -0.018 S 
ENDROOT
BRANCH   1   5
ATOM      3  C   UNL     1       0.592  -2.235  -1.781  0.00  0.00    +0.252 C 
ATOM      4  O   UNL     1       1.429  -2.832  -2.429  0.00  0.00    -0.270 OA
ATOM      5  N   UNL     1      -0.331  -2.920  -1.079  0.00  0.00    -0.264 N 
ATOM      6  H   UNL     1      -0.999  -2.443  -0.561  0.00  0.00    +0.157 HD
BRANCH   3  11
ATOM      7  C   UNL     1      -0.561   1.325  -2.102  0.00  0.00    +0.001 A 
ATOM      8  C   UNL     1       0.580   2.012  -1.729  0.00  0.00    +0.002 A 
ATOM      9  C   UNL     1       1.726   1.322  -1.373  0.00  0.00    +0.033 A 
ATOM     10  C   UNL     1       1.736  -0.057  -1.388  0.00  0.00    +0.138 A 
ATOM     11  C   UNL     1       0.588  -0.757  -1.763  0.00  0.00    +0.067 A 
ATOM     12  C   UNL     1      -0.564  -0.055  -2.121  0.00  0.00    +0.015 A 
BRANCH  10  13
ATOM     13  N   UNL     1       2.963  -0.793  -1.007  0.00  0.00    +0.057 N 
ATOM     14  O   UNL     1       3.990  -0.191  -0.800  0.00  0.00    -0.126 OA
ATOM     15  O   UNL     1       2.937  -1.998  -0.903  0.00  0.00    -0.126 OA
ENDBRANCH  10  13
ENDBRANCH   3  11
ENDBRANCH   1   5
BRANCH   1  16
ATOM     16  N   UNL     1      -1.251  -4.953  -0.393  0.00  0.00    -0.295 N 
ATOM     17  H   UNL     1      -1.947  -4.477   0.087  0.00  0.00    +0.154 HD
BRANCH  16  18
ATOM     18  C   UNL     1      -1.206  -6.353  -0.355  0.00  0.00    +0.055 A 
ATOM     19  C   UNL     1       0.014  -7.008  -0.289  0.00  0.00    +0.045 A 
ATOM     20  C   UNL     1       0.056  -8.390  -0.252  0.00  0.00    +0.043 A 
ATOM     21  C   UNL     1      -1.118  -9.123  -0.281  0.00  0.00    +0.022 A 
ATOM     22  C   UNL     1      -2.338  -8.477  -0.348  0.00  0.00    +0.026 A 
ATOM     23  C   UNL     1      -2.389  -7.091  -0.379  0.00  0.00    +0.051 A 
ATOM     24 CL   UNL     1       1.585  -9.208  -0.168  0.00  0.00    -0.083 Cl
BRANCH  23  25
ATOM     25  N   UNL     1      -3.624  -6.436  -0.441  0.00  0.00    -0.324 N 
ATOM     26  C   UNL     1      -4.250  -6.119  -1.734  0.00  0.00    +0.133 C 
ATOM     27  C   UNL     1      -5.698  -6.621  -1.707  0.00  0.00    +0.178 C 
ATOM     28  O   UNL     1      -6.352  -6.110  -0.543  0.00  0.00    -0.377 OA
ATOM     29  C   UNL     1      -5.780  -6.550   0.691  0.00  0.00    +0.178 C 
ATOM     30  C   UNL     1      -4.338  -6.049   0.786  0.00  0.00    +0.133 C 
ENDBRANCH  23  25
ENDBRANCH  16  18
ENDBRANCH   1  16
TORSDOF 6
