REMARK  Name = ZINC09828841
REMARK  9 active torsions:
REMARK  status: ('A' for Active; 'I' for Inactive)
REMARK    1  A    between atoms: C_4  and  N_7
REMARK    2  A    between atoms: C_12  and  C_14
REMARK    3  A    between atoms: C_12  and  C_30
REMARK    4  A    between atoms: C_12  and  N_63
REMARK    5  A    between atoms: C_14  and  N_15
REMARK    6  A    between atoms: C_16  and  C_18
REMARK    7  A    between atoms: N_20  and  C_21
REMARK    8  A    between atoms: C_21  and  C_22
REMARK    9  A    between atoms: C_22  and  C_23
REMARK                            x       y       z     vdW  Elec       q    Type
REMARK                         _______ _______ _______ _____ _____    ______ ____
ROOT
ATOM      1  C   UNL     1       0.002  -0.004   0.002  0.00  0.00    +0.017 C 
ENDROOT
BRANCH   1   7
ATOM      2  N   UNL     1       1.197   3.973  -0.774  0.00  0.00    -0.333 N 
ATOM      3  C   UNL     1       1.957   3.208   0.224  0.00  0.00    +0.086 C 
ATOM      4  C   UNL     1       1.711   1.712   0.013  0.00  0.00    -0.059 C 
ATOM      5  C   UNL     1      -0.488   2.200  -0.873  0.00  0.00    -0.059 C 
ATOM      6  C   UNL     1      -0.242   3.696  -0.662  0.00  0.00    +0.086 C 
ATOM      7  N   UNL     1       0.264   1.444   0.150  0.00  0.00    +0.389 N 
ATOM      8  H   UNL     1      -0.045   1.745   1.081  0.00  0.00    -0.081 HD
BRANCH   2  12
ATOM      9  C   UNL     1       1.960   8.051  -0.426  0.00  0.00    +0.000 A 
ATOM     10  C   UNL     1       1.085   7.593  -1.394  0.00  0.00    +0.002 A 
ATOM     11  C   UNL     1       0.830   6.242  -1.512  0.00  0.00    +0.023 A 
ATOM     12  C   UNL     1       1.453   5.341  -0.657  0.00  0.00    +0.030 A 
ATOM     13  C   UNL     1       2.327   5.805   0.318  0.00  0.00    +0.023 A 
ATOM     14  C   UNL     1       2.582   7.158   0.427  0.00  0.00    +0.002 A 
ENDBRANCH   2  12
ENDBRANCH   1   7
BRANCH   1  15
ATOM     15  C   UNL     1       0.482  -0.493  -1.340  0.00  0.00    +0.093 A 
ATOM     16  C   UNL     1       1.235  -1.586  -1.556  0.00  0.00    +0.043 A 
ATOM     17  C   UNL     1       1.449  -1.667  -2.951  0.00  0.00    +0.041 A 
ATOM     18  C   UNL     1       0.815  -0.618  -3.505  0.00  0.00    +0.195 A 
ATOM     19  O   UNL     1       0.226   0.087  -2.525  0.00  0.00    -0.469 OA
ENDBRANCH   1  15
BRANCH   1  20
ATOM     20  C   UNL     1      -1.502  -0.253   0.128  0.00  0.00    +0.097 C 
BRANCH  20  21
ATOM     21  N   UNL     1      -1.991   0.328   1.380  0.00  0.00    -0.309 N 
ATOM     22  C   UNL     1      -3.295   0.230   1.705  0.00  0.00    +0.299 C 
ATOM     23  O   UNL     1      -4.065  -0.340   0.960  0.00  0.00    -0.265 OA
ATOM     24  H   UNL     1      -1.375   0.783   1.976  0.00  0.00    +0.149 HD
BRANCH  22  25
ATOM     25  C   UNL     1      -3.793   0.823   2.983  0.00  0.00    +0.299 C 
ATOM     26  O   UNL     1      -3.024   1.393   3.729  0.00  0.00    -0.265 OA
ATOM     27  N   UNL     1      -5.098   0.725   3.308  0.00  0.00    -0.307 N 
ATOM     28  H   UNL     1      -5.713   0.269   2.712  0.00  0.00    +0.149 HD
BRANCH  27  29
ATOM     29  C   UNL     1      -5.586   1.306   4.561  0.00  0.00    +0.109 C 
BRANCH  29  30
ATOM     30  C   UNL     1      -7.091   1.056   4.686  0.00  0.00    +0.054 C 
BRANCH  30  31
ATOM     31  C   UNL     1      -7.593   1.654   5.975  0.00  0.00    -0.046 A 
ATOM     32  C   UNL     1      -7.611   0.894   7.129  0.00  0.00    +0.005 A 
ATOM     33  C   UNL     1      -8.066   1.443   8.313  0.00  0.00    +0.020 A 
ATOM     34  C   UNL     1      -8.515   2.751   8.340  0.00  0.00    +0.041 A 
ATOM     35  C   UNL     1      -8.503   3.511   7.183  0.00  0.00    +0.020 A 
ATOM     36  C   UNL     1      -8.042   2.962   6.002  0.00  0.00    +0.005 A 
ATOM     37 CL   UNL     1      -9.094   3.440   9.825  0.00  0.00    -0.084 Cl
ENDBRANCH  30  31
ENDBRANCH  29  30
ENDBRANCH  27  29
ENDBRANCH  22  25
ENDBRANCH  20  21
ENDBRANCH   1  20
TORSDOF 9
