REMARK  Name = ZINC43464667
REMARK  6 active torsions:
REMARK  status: ('A' for Active; 'I' for Inactive)
REMARK    1  A    between atoms: C_1  and  O_2
REMARK    2  A    between atoms: O_2  and  C_3
REMARK    3  A    between atoms: C_3  and  C_5
REMARK    4  A    between atoms: C_5  and  C_6
REMARK    5  A    between atoms: C_5  and  C_8
REMARK    6  A    between atoms: C_5  and  N_12
REMARK                            x       y       z     vdW  Elec       q    Type
REMARK                         _______ _______ _______ _____ _____    ______ ____
ROOT
ATOM      1  C   UNL     1      -1.244  -2.135   0.003  0.00  0.00    +0.271 C 
ENDROOT
BRANCH   1   2
ATOM      2  C   UNL     1      -1.124  -2.658   1.436  0.00  0.00    +0.429 C 
ATOM      3  F   UNL     1      -2.179  -2.154   2.205  0.00  0.00    -0.167 F 
ATOM      4  F   UNL     1      -1.179  -4.056   1.429  0.00  0.00    -0.167 F 
ATOM      5  F   UNL     1       0.093  -2.241   1.984  0.00  0.00    -0.167 F 
ENDBRANCH   1   2
BRANCH   1   6
ATOM      6  N   UNL     1      -0.137  -2.664  -0.805  0.00  0.00    -0.299 NA
ATOM      7  H   UNL     1      -0.116  -3.673  -0.774  0.00  0.00    +0.120 HD
ATOM      8  H   UNL     1      -0.194  -2.334  -1.757  0.00  0.00    +0.120 HD
ENDBRANCH   1   6
BRANCH   1   9
ATOM      9  C   UNL     1      -1.185  -0.630   0.010  0.00  0.00    +0.349 C 
ATOM     10  O   UNL     1      -2.208   0.015   0.023  0.00  0.00    -0.247 OA
BRANCH   9  12
ATOM     11  C   UNL     1      -0.017   1.425   0.010  0.00  0.00    +0.280 C 
ATOM     12  O   UNL     1       0.002  -0.004   0.002  0.00  0.00    -0.466 OA
ENDBRANCH   9  12
ENDBRANCH   1   9
BRANCH   1  13
ATOM     13  C   UNL     1      -2.525  -2.574  -0.574  0.00  0.00    -0.063 C 
ATOM     14  C   UNL     1      -3.547  -2.924  -1.034  0.00  0.00    +0.006 C 
ENDBRANCH   1  13
TORSDOF 5
