REMARK  Name = ZINC03427089
REMARK  13 active torsions:
REMARK  status: ('A' for Active; 'I' for Inactive)
REMARK    1  A    between atoms: C_1  and  C_2
REMARK    2  A    between atoms: C_3  and  C_22
REMARK    3  A    between atoms: C_4  and  N_10
REMARK    4  A    between atoms: C_6  and  C_7
REMARK    5  A    between atoms: C_11  and  C_13
REMARK    6  A    between atoms: C_13  and  N_50
REMARK    7  A    between atoms: C_14  and  C_15
REMARK    8  A    between atoms: C_14  and  N_50
REMARK    9  A    between atoms: C_22  and  O_24
REMARK   10  A    between atoms: O_24  and  C_25
REMARK   11  A    between atoms: C_25  and  C_26
REMARK   12  A    between atoms: C_26  and  O_27
REMARK   13  A    between atoms: O_27  and  C_28
REMARK                            x       y       z     vdW  Elec       q    Type
REMARK                         _______ _______ _______ _____ _____    ______ ____
ROOT
ATOM      1  C   UNL     1      -1.214  -2.129   2.524  0.00  0.00    +0.046 C 
ATOM      2  C   UNL     1      -1.259  -2.822   1.186  0.00  0.00    -0.015 A 
ATOM      3  C   UNL     1      -1.248  -2.099   0.003  0.00  0.00    +0.091 A 
ATOM      4  C   UNL     1      -1.287  -2.815  -1.198  0.00  0.00    +0.087 A 
ATOM      5  S   UNL     1      -1.345  -4.463  -0.664  0.00  0.00    -0.068 S 
ATOM      6  C   UNL     1      -1.318  -4.186   1.097  0.00  0.00    +0.079 A 
ENDROOT
BRANCH   6   7
ATOM      7  C   UNL     1      -1.346  -5.173   2.178  0.00  0.00    +0.248 C 
ATOM      8  O   UNL     1      -1.321  -4.805   3.338  0.00  0.00    -0.270 OA
ATOM      9  N   UNL     1      -1.399  -6.488   1.889  0.00  0.00    -0.325 N 
ATOM     10  H   UNL     1      -1.419  -6.781   0.965  0.00  0.00    +0.145 HD
ATOM     11  H   UNL     1      -1.418  -7.142   2.606  0.00  0.00    +0.145 HD
ENDBRANCH   6   7
BRANCH   4  12
ATOM     12  N   UNL     1      -1.280  -2.329  -2.491  0.00  0.00    -0.281 N 
ATOM     13  C   UNL     1      -1.323  -3.183  -3.533  0.00  0.00    +0.201 C 
ATOM     14  O   UNL     1      -1.367  -4.379  -3.334  0.00  0.00    -0.278 OA
ATOM     15  H   UNL     1      -1.244  -1.373  -2.650  0.00  0.00    +0.155 HD
BRANCH  13  16
ATOM     16  C   UNL     1      -1.315  -2.653  -4.943  0.00  0.00    +0.016 C 
BRANCH  16  17
ATOM     17  N   UNL     1      -1.368  -3.786  -5.886  0.00  0.00    +0.387 N 
ATOM     18  H   UNL     1      -2.227  -4.325  -5.720  0.00  0.00    -0.085 HD
ATOM     19  H   UNL     1      -0.551  -4.390  -5.736  0.00  0.00    -0.085 HD
BRANCH  17  20
ATOM     20  C   UNL     1      -1.362  -3.296  -7.277  0.00  0.00    -0.046 C 
BRANCH  20  21
ATOM     21  C   UNL     1      -1.417  -4.473  -8.216  0.00  0.00    -0.064 A 
ATOM     22  C   UNL     1      -0.245  -5.056  -8.662  0.00  0.00    +0.003 A 
ATOM     23  C   UNL     1      -0.294  -6.139  -9.519  0.00  0.00    +0.020 A 
ATOM     24  C   UNL     1      -1.516  -6.634  -9.939  0.00  0.00    +0.041 A 
ATOM     25  C   UNL     1      -2.688  -6.047  -9.496  0.00  0.00    +0.020 A 
ATOM     26  C   UNL     1      -2.638  -4.967  -8.635  0.00  0.00    +0.003 A 
ATOM     27 CL   UNL     1      -1.579  -7.991 -11.020  0.00  0.00    -0.084 Cl
ENDBRANCH  20  21
ENDBRANCH  17  20
ENDBRANCH  16  17
ENDBRANCH  13  16
ENDBRANCH   4  12
BRANCH   3  28
ATOM     28  C   UNL     1      -1.191  -0.632   0.010  0.00  0.00    +0.342 C 
ATOM     29  O   UNL     1      -2.220   0.016   0.023  0.00  0.00    -0.245 OA
BRANCH  28  30
ATOM     30  O   UNL     1       0.002  -0.004   0.002  0.00  0.00    -0.459 OA
BRANCH  30  31
ATOM     31  C   UNL     1      -0.018   1.448   0.010  0.00  0.00    +0.260 C 
BRANCH  31  32
ATOM     32  C   UNL     1       1.418   1.977  -0.001  0.00  0.00    +0.200 C 
BRANCH  32  33
ATOM     33  O   UNL     1       2.050   1.615  -1.230  0.00  0.00    -0.380 OA
ATOM     34  C   UNL     1       3.402   2.063  -1.343  0.00  0.00    +0.194 C 
ENDBRANCH  32  33
ENDBRANCH  31  32
ENDBRANCH  30  31
ENDBRANCH  28  30
ENDBRANCH   3  28
TORSDOF 11
