REMARK  Name = ZINC48951697
REMARK  6 active torsions:
REMARK  status: ('A' for Active; 'I' for Inactive)
REMARK    1  A    between atoms: C_1  and  N_2
REMARK    2  A    between atoms: N_2  and  C_3
REMARK    3  A    between atoms: N_2  and  C_10
REMARK    4  A    between atoms: C_3  and  C_4
REMARK    5  A    between atoms: C_13  and  N_19
REMARK    6  A    between atoms: C_14  and  C_16
REMARK                            x       y       z     vdW  Elec       q    Type
REMARK                         _______ _______ _______ _____ _____    ______ ____
ROOT
ATOM      1  C   UNL     1      -0.026  -0.581  -1.290  0.00  0.00    +0.030 A 
ATOM      2  C   UNL     1       0.000  -1.966  -1.155  0.00  0.00    +0.025 A 
ATOM      3  C   UNL     1       0.024  -2.775  -2.273  0.00  0.00    +0.025 A 
ATOM      4  C   UNL     1       0.022  -2.211  -3.542  0.00  0.00    +0.037 A 
ATOM      5  C   UNL     1      -0.005  -0.815  -3.685  0.00  0.00    +0.059 A 
ATOM      6  C   UNL     1      -0.035  -0.004  -2.547  0.00  0.00    +0.038 A 
ENDROOT
BRANCH   5   7
ATOM      7  C   UNL     1      -0.007  -0.208  -5.029  0.00  0.00    +0.243 C 
ATOM      8  O   UNL     1      -0.090  -0.914  -6.015  0.00  0.00    -0.270 OA
ATOM      9  N   UNL     1       0.083   1.130  -5.163  0.00  0.00    -0.325 N 
ATOM     10  H   UNL     1       0.149   1.693  -4.376  0.00  0.00    +0.145 HD
ATOM     11  H   UNL     1       0.081   1.530  -6.047  0.00  0.00    +0.145 HD
ENDBRANCH   5   7
BRANCH   4  12
ATOM     12  N   UNL     1       0.047  -3.027  -4.669  0.00  0.00    -0.357 N 
ATOM     13  H   UNL     1       0.148  -3.987  -4.570  0.00  0.00    +0.142 HD
ATOM     14  H   UNL     1      -0.036  -2.637  -5.553  0.00  0.00    +0.142 HD
ENDBRANCH   4  12
BRANCH   1  16
ATOM     15  C   UNL     1      -0.085   1.688  -0.288  0.00  0.00    +0.129 C 
ATOM     16  N   UNL     1      -0.051   0.230  -0.149  0.00  0.00    -0.330 N 
BRANCH  16  17
ATOM     17  C   UNL     1      -0.043  -0.378   1.183  0.00  0.00    +0.136 C 
BRANCH  17  18
ATOM     18  C   UNL     1      -1.482  -0.625   1.641  0.00  0.00    +0.135 C 
ATOM     19  C   UNL     1      -1.487  -1.153   3.091  0.00  0.00    +0.035 C 
ATOM     20  C   UNL     1      -2.614  -2.221   3.048  0.00  0.00    +0.031 C 
ATOM     21  C   UNL     1      -2.449  -2.766   1.607  0.00  0.00    +0.160 C 
ATOM     22  O   UNL     1      -2.091  -1.622   0.812  0.00  0.00    -0.375 OA
ENDBRANCH  17  18
ENDBRANCH  16  17
ENDBRANCH   1  16
TORSDOF 5
