REMARK  Name = ZINC10069351
REMARK  7 active torsions:
REMARK  status: ('A' for Active; 'I' for Inactive)
REMARK    1  A    between atoms: C_1  and  C_2
REMARK    2  A    between atoms: C_5  and  C_29
REMARK    3  A    between atoms: C_6  and  N_8
REMARK    4  A    between atoms: C_9  and  C_11
REMARK    5  A    between atoms: C_12  and  C_28
REMARK    6  A    between atoms: C_15  and  C_19
REMARK    7  A    between atoms: C_23  and  N_25
REMARK                            x       y       z     vdW  Elec       q    Type
REMARK                         _______ _______ _______ _____ _____    ______ ____
ROOT
ATOM      1  C   UNL     1      -0.553   9.786   0.049  0.00  0.00    +0.097 A 
ATOM      2  C   UNL     1      -1.326   8.676   0.045  0.00  0.00    +0.041 A 
ATOM      3  N   UNL     1      -0.757   7.434   0.021  0.00  0.00    -0.296 N 
ATOM      4  C   UNL     1      -1.177   6.107   0.004  0.00  0.00    +0.121 A 
ATOM      5  C   UNL     1      -0.069   5.328  -0.015  0.00  0.00    +0.090 A 
ATOM      6  N   UNL     1       1.013   6.135  -0.019  0.00  0.00    -0.221 NA
ATOM      7  C   UNL     1       0.615   7.372   0.002  0.00  0.00    +0.179 A 
ATOM      8  S   UNL     1       1.090   9.086   0.017  0.00  0.00    -0.044 S 
ATOM      9  C   UNL     1      -2.827   8.810   0.067  0.00  0.00    +0.065 C 
ENDROOT
BRANCH   5  10
ATOM     10  C   UNL     1      -0.049   3.845  -0.035  0.00  0.00    +0.004 A 
ATOM     11  C   UNL     1      -1.245   3.128  -0.028  0.00  0.00    +0.010 A 
ATOM     12  C   UNL     1      -1.220   1.749  -0.051  0.00  0.00    +0.003 A 
ATOM     13  C   UNL     1      -0.011   1.077  -0.070  0.00  0.00    +0.033 A 
ATOM     14  C   UNL     1       1.178   1.782  -0.077  0.00  0.00    +0.127 A 
ATOM     15  C   UNL     1       1.165   3.162  -0.060  0.00  0.00    +0.042 A 
BRANCH  14  16
ATOM     16  N   UNL     1       2.468   1.056  -0.104  0.00  0.00    +0.056 N 
ATOM     17  O   UNL     1       2.481  -0.162  -0.119  0.00  0.00    -0.126 OA
ATOM     18  O   UNL     1       3.516   1.676  -0.111  0.00  0.00    -0.126 OA
ENDBRANCH  14  16
ENDBRANCH   5  10
BRANCH   1  20
ATOM     19  N   UNL     1      -0.022  12.167   0.071  0.00  0.00    -0.281 N 
ATOM     20  C   UNL     1      -0.958  11.197   0.071  0.00  0.00    +0.257 C 
ATOM     21  O   UNL     1      -2.139  11.491   0.090  0.00  0.00    -0.269 OA
ATOM     22  H   UNL     1       0.917  11.934   0.137  0.00  0.00    +0.155 HD
BRANCH  19  28
ATOM     23  C   UNL     1      -3.308  15.539  -1.344  0.00  0.00    +0.044 C 
ATOM     24  C   UNL     1      -1.993  15.171  -0.705  0.00  0.00    -0.049 A 
ATOM     25  C   UNL     1      -1.164  16.163  -0.212  0.00  0.00    +0.004 A 
ATOM     26  C   UNL     1       0.043  15.830   0.374  0.00  0.00    +0.005 A 
ATOM     27  C   UNL     1       0.425  14.506   0.470  0.00  0.00    -0.029 A 
ATOM     28  C   UNL     1      -0.406  13.508  -0.024  0.00  0.00    +0.037 A 
ATOM     29  C   UNL     1      -1.615  13.846  -0.617  0.00  0.00    +0.027 A 
ATOM     30  C   UNL     1       1.741  14.145   1.109  0.00  0.00    +0.045 C 
ENDBRANCH  19  28
ENDBRANCH   1  20
TORSDOF 4
