REMARK  Name = ZINC61685438
REMARK  1 active torsions:
REMARK  status: ('A' for Active; 'I' for Inactive)
REMARK    1  A    between atoms: C_5  and  N_7
REMARK                            x       y       z     vdW  Elec       q    Type
REMARK                         _______ _______ _______ _____ _____    ______ ____
ROOT
ATOM      1  C   UNL     1      -0.017   1.374   0.010  0.00  0.00    +0.003 A 
ATOM      2  C   UNL     1       1.169   2.097   0.002  0.00  0.00    +0.014 A 
ATOM      3  C   UNL     1       2.383   1.434  -0.013  0.00  0.00    +0.052 A 
ATOM      4  C   UNL     1       2.412   0.022  -0.021  0.00  0.00    +0.070 A 
ATOM      5  C   UNL     1       1.217  -0.694  -0.013  0.00  0.00    +0.038 A 
ATOM      6  C   UNL     1       0.002  -0.004   0.002  0.00  0.00    +0.023 A 
ATOM      7  C   UNL     1       3.836  -0.353  -0.037  0.00  0.00    +0.261 C 
ATOM      8  O   UNL     1       4.270  -1.488  -0.047  0.00  0.00    -0.269 OA
ATOM      9  N   UNL     1       4.577   0.770  -0.038  0.00  0.00    -0.183 N 
ATOM     10  C   UNL     1       3.796   1.866  -0.025  0.00  0.00    +0.259 C 
ATOM     11  O   UNL     1       4.186   3.016  -0.022  0.00  0.00    -0.269 OA
ATOM     12  C   UNL     1       5.974   0.796  -0.051  0.00  0.00    +0.177 A 
ATOM     13  C   UNL     1       6.825  -0.326  -0.171  0.00  0.00    +0.088 A 
ATOM     14  C   UNL     1       8.097   0.111  -0.142  0.00  0.00    +0.232 A 
ATOM     15  O   UNL     1       8.078   1.446  -0.012  0.00  0.00    -0.361 OA
ATOM     16  N   UNL     1       6.726   1.863   0.038  0.00  0.00    -0.062 NA
ENDROOT
BRANCH   5  17
ATOM     17  N   UNL     1       1.232  -2.081  -0.020  0.00  0.00    -0.357 N 
ATOM     18  H   UNL     1       2.078  -2.556  -0.031  0.00  0.00    +0.142 HD
ATOM     19  H   UNL     1       0.398  -2.575  -0.014  0.00  0.00    +0.142 HD
ENDBRANCH   5  17
TORSDOF 1
