REMARK  Name = ZINC63315590
REMARK  6 active torsions:
REMARK  status: ('A' for Active; 'I' for Inactive)
REMARK    1  A    between atoms: C_5  and  C_7
REMARK    2  A    between atoms: C_13  and  C_14
REMARK    3  A    between atoms: N_16  and  CA_17
REMARK    4  A    between atoms: CA_17  and  CB_19
REMARK    5  A    between atoms: CA_17  and  C_29
REMARK    6  A    between atoms: CB_19  and  CG_20
REMARK                            x       y       z     vdW  Elec       q    Type
REMARK                         _______ _______ _______ _____ _____    ______ ____
ROOT
ATOM      1  C   UNK A   0      -2.889  -2.888  -0.246  0.00  0.00    +0.239 C 
ATOM      2  O   UNK A   0      -2.369  -2.247  -1.142  0.00  0.00    -0.271 OA
ATOM      3  N   TRP A   1      -4.232  -2.949  -0.154  0.00  0.00    -0.298 N 
ATOM      4  H   TRP A   1      -4.647  -3.459   0.559  0.00  0.00    +0.150 HD
ENDROOT
BRANCH   1  10
ATOM      5  C   UNK A   0       1.280  -2.740  -0.484  0.00  0.00    +0.162 C 
ATOM      6  N   UNK A   0      -0.138  -3.136  -0.572  0.00  0.00    -0.331 N 
ATOM      7  C   UNK A   0      -0.745  -3.608   0.536  0.00  0.00    +0.020 C 
ATOM      8  C   UNK A   0       0.185  -4.188   1.595  0.00  0.00    +0.121 C 
ATOM      9  S   UNK A   0       1.712  -3.203   1.246  0.00  0.00    -0.128 S 
ATOM     10  C   UNK A   0      -2.084  -3.569   0.696  0.00  0.00    +0.086 C 
ATOM     11  H   UNK A   0      -0.623  -3.059  -1.409  0.00  0.00    +0.147 HD
BRANCH   5  16
ATOM     12  C   UNK A   0       0.470   0.926  -0.882  0.00  0.00    +0.001 A 
ATOM     13  C   UNK A   0       1.725   1.467  -1.091  0.00  0.00    +0.003 A 
ATOM     14  C   UNK A   0       2.837   0.647  -1.103  0.00  0.00    +0.039 A 
ATOM     15  C   UNK A   0       2.695  -0.716  -0.906  0.00  0.00    +0.129 A 
ATOM     16  C   UNK A   0       1.437  -1.256  -0.698  0.00  0.00    +0.018 A 
ATOM     17  C   UNK A   0       0.326  -0.434  -0.686  0.00  0.00    +0.009 A 
ATOM     18  F   UNK A   0       3.781  -1.518  -0.919  0.00  0.00    -0.205 F 
ENDBRANCH   5  16
ENDBRANCH   1  10
BRANCH   3  19
ATOM     19  CA  TRP A   1      -5.067  -2.243  -1.130  0.00  0.00    +0.191 C 
BRANCH  19  20
ATOM     20  C   TRP A   1      -5.256  -3.110  -2.348  0.00  0.00    +0.376 C 
ATOM     21  O   TRP A   1      -4.901  -4.276  -2.328  0.00  0.00    -0.244 OA
ATOM     22  OXT TRP A   1      -5.764  -2.645  -3.354  0.00  0.00    -0.244 OA
ENDBRANCH  19  20
BRANCH  19  23
ATOM     23  CB  TRP A   1      -6.430  -1.934  -0.508  0.00  0.00    +0.067 C 
BRANCH  23  24
ATOM     24  CG  TRP A   1      -6.252  -0.969   0.636  0.00  0.00    -0.039 C 
ATOM     25  CD2 TRP A   1      -6.377   0.377   0.591  0.00  0.00    -0.001 A 
ATOM     26  CE3 TRP A   1      -6.702   1.310  -0.494  0.00  0.00    +0.010 A 
ATOM     27  CZ3 TRP A   1      -6.754   2.635  -0.228  0.00  0.00    +0.001 A 
ATOM     28  CH2 TRP A   1      -6.505   3.138   1.057  0.00  0.00    +0.002 A 
ATOM     29  CZ2 TRP A   1      -6.200   2.344   2.105  0.00  0.00    +0.026 A 
ATOM     30  CE2 TRP A   1      -6.119   0.934   1.938  0.00  0.00    +0.043 A 
ATOM     31  NE1 TRP A   1      -5.845  -0.030   2.783  0.00  0.00    -0.380 N 
ATOM     32  CD1 TRP A   1      -5.905  -1.310   2.068  0.00  0.00    +0.144 C 
ATOM     33  HE1 TRP A   1      -5.642   0.083   3.725  0.00  0.00    +0.160 HD
ENDBRANCH  23  24
ENDBRANCH  19  23
ENDBRANCH   3  19
TORSDOF 6
