REMARK  Name = ZINC15016831
REMARK  9 active torsions:
REMARK  status: ('A' for Active; 'I' for Inactive)
REMARK    1  A    between atoms: C_1  and  C_2
REMARK    2  A    between atoms: C_2  and  O_3
REMARK    3  A    between atoms: O_3  and  C_4
REMARK    4  A    between atoms: C_6  and  C_12
REMARK    5  A    between atoms: C_9  and  O_10
REMARK    6  A    between atoms: C_14  and  C_23
REMARK    7  A    between atoms: C_15  and  C_22
REMARK    8  A    between atoms: C_23  and  O_25
REMARK    9  A    between atoms: O_25  and  C_26
REMARK                            x       y       z     vdW  Elec       q    Type
REMARK                         _______ _______ _______ _____ _____    ______ ____
ROOT
ATOM      1  C   UNL     1       0.718  -4.969   0.076  0.00  0.00    +0.181 C 
ATOM      2  C   UNL     1       0.824  -5.791  -1.181  0.00  0.00    +0.082 C 
ATOM      3  C   UNL     1       0.494  -7.091  -1.236  0.00  0.00    +0.020 C 
ATOM      4  N   UNL     1       0.043  -7.780  -0.138  0.00  0.00    -0.286 N 
ATOM      5  C   UNL     1       0.177  -7.168   1.099  0.00  0.00    +0.240 A 
ATOM      6  N   UNL     1       0.498  -5.852   1.215  0.00  0.00    -0.201 N 
ATOM      7  N   UNL     1       0.551  -5.599   2.585  0.00  0.00    -0.042 NA
ATOM      8  N   UNL     1       0.270  -6.715   3.176  0.00  0.00    -0.021 NA
ATOM      9  N   UNL     1       0.046  -7.641   2.305  0.00  0.00    -0.092 NA
ATOM     10  C   UNL     1       0.624  -7.819  -2.550  0.00  0.00    +0.061 C 
ATOM     11  H   UNL     1      -0.355  -8.661  -0.224  0.00  0.00    +0.155 HD
ENDROOT
BRANCH   1  14
ATOM     12  C   UNL     1      -1.273  -1.762  -0.078  0.00  0.00    +0.163 A 
ATOM     13  C   UNL     1      -0.213  -2.647   0.034  0.00  0.00    +0.055 A 
ATOM     14  C   UNL     1      -0.436  -4.009  -0.046  0.00  0.00    -0.014 A 
ATOM     15  C   UNL     1      -1.717  -4.492  -0.240  0.00  0.00    +0.024 A 
ATOM     16  C   UNL     1      -2.780  -3.614  -0.353  0.00  0.00    +0.059 A 
ATOM     17  C   UNL     1      -2.563  -2.248  -0.267  0.00  0.00    +0.172 A 
ATOM     18  I   UNL     1      -4.720  -4.351  -0.647  0.00  0.00    -0.040 I 
BRANCH  17  19
ATOM     19  O   UNL     1      -3.608  -1.384  -0.372  0.00  0.00    -0.503 OA
ATOM     20  H   UNL     1      -3.795  -1.101  -1.277  0.00  0.00    +0.292 HD
ENDBRANCH  17  19
BRANCH  12  21
ATOM     21  O   UNL     1      -1.054  -0.422   0.001  0.00  0.00    -0.489 OA
BRANCH  21  23
ATOM     22  C   UNL     1       0.343   1.532   0.259  0.00  0.00    +0.048 C 
ATOM     23  C   UNL     1       0.295   0.004   0.195  0.00  0.00    +0.226 C 
ENDBRANCH  21  23
ENDBRANCH  12  21
ENDBRANCH   1  14
BRANCH   2  24
ATOM     24  C   UNL     1       1.291  -5.165  -2.358  0.00  0.00    +0.339 C 
ATOM     25  O   UNL     1       2.485  -5.010  -2.532  0.00  0.00    -0.245 OA
BRANCH  24  26
ATOM     26  O   UNL     1       0.412  -4.738  -3.290  0.00  0.00    -0.465 OA
ATOM     27  C   UNL     1       0.955  -4.113  -4.455  0.00  0.00    +0.280 C 
ENDBRANCH  24  26
ENDBRANCH   2  24
TORSDOF 6
