REMARK  Name = ZINC57003478
REMARK  5 active torsions:
REMARK  status: ('A' for Active; 'I' for Inactive)
REMARK    1  A    between atoms: C_1  and  C_2
REMARK    2  A    between atoms: C_7  and  N_12
REMARK    3  A    between atoms: C_9  and  C_11
REMARK    4  A    between atoms: N_15  and  C_16
REMARK    5  A    between atoms: C_25  and  O_27
REMARK                            x       y       z     vdW  Elec       q    Type
REMARK                         _______ _______ _______ _____ _____    ______ ____
ROOT
ATOM      1  N   UNL     1       1.471  -2.526   2.420  0.00  0.00    -0.296 N 
ATOM      2  C   UNL     1       1.207  -3.754   2.907  0.00  0.00    +0.300 C 
ATOM      3  O   UNL     1       0.380  -4.460   2.362  0.00  0.00    -0.253 OA
ATOM      4  N   UNL     1       1.859  -4.201   3.999  0.00  0.00    -0.290 N 
ATOM      5  H   UNL     1       2.131  -1.963   2.855  0.00  0.00    +0.151 HD
ATOM      6  H   UNL     1       2.518  -3.638   4.434  0.00  0.00    +0.151 HD
ENDROOT
BRANCH   4   7
ATOM      7  C   UNL     1       1.571  -5.536   4.529  0.00  0.00    +0.134 C 
ATOM      8  C   UNL     1       0.418  -5.476   5.508  0.00  0.00    -0.021 A 
ATOM      9  C   UNL     1      -0.946  -5.391   5.283  0.00  0.00    +0.006 A 
ATOM     10  C   UNL     1      -1.825  -5.347   6.348  0.00  0.00    +0.000 A 
ATOM     11  C   UNL     1      -1.341  -5.388   7.643  0.00  0.00    +0.000 A 
ATOM     12  C   UNL     1       0.018  -5.472   7.869  0.00  0.00    +0.004 A 
ATOM     13  C   UNL     1       0.901  -5.516   6.802  0.00  0.00    -0.040 A 
ATOM     14  C   UNL     1       2.412  -5.606   6.782  0.00  0.00    +0.069 C 
ATOM     15  C   UNL     1       2.771  -6.057   5.348  0.00  0.00    +0.143 C 
BRANCH  15  16
ATOM     16  O   UNL     1       3.987  -5.447   4.911  0.00  0.00    -0.389 OA
ATOM     17  H   UNL     1       4.771  -5.741   5.395  0.00  0.00    +0.210 HD
ENDBRANCH  15  16
ENDBRANCH   4   7
BRANCH   1  23
ATOM     18  C   UNL     1      -0.019   1.526   0.010  0.00  0.00    +0.008 C 
ATOM     19  C   UNL     1       0.002  -0.004   0.002  0.00  0.00    -0.009 C 
ATOM     20  C   UNL     1       0.718  -0.497  -1.257  0.00  0.00    +0.003 C 
ATOM     21  C   UNL     1       0.739  -2.027  -1.265  0.00  0.00    +0.002 C 
ATOM     22  C   UNL     1       1.479  -2.534  -0.026  0.00  0.00    +0.022 C 
ATOM     23  C   UNL     1       0.763  -2.041   1.233  0.00  0.00    +0.078 C 
ATOM     24  C   UNL     1       0.742  -0.511   1.242  0.00  0.00    +0.009 C 
ATOM     25  C   UNL     1       0.026  -0.018   2.500  0.00  0.00    +0.009 C 
ENDBRANCH   1  23
TORSDOF 3
