REMARK  Name = ZINC39558771
REMARK  7 active torsions:
REMARK  status: ('A' for Active; 'I' for Inactive)
REMARK    1  A    between atoms: C_6  and  O_7
REMARK    2  A    between atoms: O_7  and  C_8
REMARK    3  A    between atoms: C_8  and  C_9
REMARK    4  A    between atoms: C_12  and  C_14
REMARK    5  A    between atoms: N_16  and  C_17
REMARK    6  A    between atoms: C_17  and  C_18
REMARK    7  A    between atoms: N_20  and  C_21
REMARK                            x       y       z     vdW  Elec       q    Type
REMARK                         _______ _______ _______ _____ _____    ______ ____
ROOT
ATOM      1  C   UNL     1      -5.417  -3.995   1.644  0.00  0.00    +0.280 C 
ATOM      2  O   UNL     1      -6.459  -4.431   1.192  0.00  0.00    -0.267 OA
ATOM      3  N   UNL     1      -5.235  -3.930   2.978  0.00  0.00    -0.300 N 
ATOM      4  H   UNL     1      -4.404  -3.583   3.339  0.00  0.00    +0.150 HD
ENDROOT
BRANCH   1   8
ATOM      5  C   UNL     1      -2.453  -2.728   0.011  0.00  0.00    +0.143 A 
ATOM      6  C   UNL     1      -3.188  -3.030  -1.082  0.00  0.00    +0.049 A 
ATOM      7  C   UNL     1      -4.410  -3.550  -0.627  0.00  0.00    +0.055 A 
ATOM      8  C   UNL     1      -4.357  -3.540   0.738  0.00  0.00    +0.190 A 
ATOM      9  O   UNL     1      -3.159  -3.042   1.105  0.00  0.00    -0.452 OA
BRANCH   5  10
ATOM     10  C   UNL     1      -1.065  -2.142   0.000  0.00  0.00    +0.303 C 
BRANCH  10  11
ATOM     11  O   UNL     1      -1.150  -0.716   0.014  0.00  0.00    -0.484 OA
BRANCH  11  17
ATOM     12  C   UNL     1       0.013   1.360   0.019  0.00  0.00    +0.048 A 
ATOM     13  C   UNL     1       1.205   2.058   0.012  0.00  0.00    +0.042 A 
ATOM     14  C   UNL     1       2.409   1.374  -0.007  0.00  0.00    +0.124 A 
ATOM     15  C   UNL     1       2.420  -0.011  -0.020  0.00  0.00    +0.042 A 
ATOM     16  C   UNL     1       1.229  -0.711  -0.014  0.00  0.00    +0.048 A 
ATOM     17  C   UNL     1       0.022  -0.027   0.007  0.00  0.00    +0.121 A 
ATOM     18  F   UNL     1       3.574   2.058  -0.014  0.00  0.00    -0.205 F 
ENDBRANCH  11  17
ENDBRANCH  10  11
ENDBRANCH   5  10
ENDBRANCH   1   8
BRANCH   3  19
ATOM     19  C   UNL     1      -6.293  -4.385   3.884  0.00  0.00    +0.200 C 
BRANCH  19  20
ATOM     20  C   UNL     1      -5.843  -4.207   5.311  0.00  0.00    +0.234 C 
ATOM     21  O   UNL     1      -4.747  -3.747   5.549  0.00  0.00    -0.274 OA
ATOM     22  N   UNL     1      -6.659  -4.561   6.324  0.00  0.00    -0.284 N 
ATOM     23  H   UNL     1      -7.561  -4.866   6.137  0.00  0.00    +0.155 HD
BRANCH  22  24
ATOM     24  C   UNL     1      -6.205  -4.487   7.647  0.00  0.00    +0.036 A 
ATOM     25  C   UNL     1      -6.620  -5.434   8.577  0.00  0.00    +0.025 A 
ATOM     26  C   UNL     1      -6.176  -5.367   9.882  0.00  0.00    +0.029 A 
ATOM     27  C   UNL     1      -5.315  -4.352  10.269  0.00  0.00    +0.067 A 
ATOM     28  C   UNL     1      -4.897  -3.399   9.338  0.00  0.00    +0.069 A 
ATOM     29  C   UNL     1      -5.340  -3.472   8.027  0.00  0.00    +0.051 A 
ATOM     30  N   UNL     1      -4.050  -2.522  10.012  0.00  0.00    -0.306 N 
ATOM     31  H   UNL     1      -3.603  -1.753   9.623  0.00  0.00    +0.170 HD
ATOM     32  C   UNL     1      -3.956  -2.922  11.294  0.00  0.00    +0.325 A 
ATOM     33  O   UNL     1      -3.293  -2.372  12.153  0.00  0.00    -0.247 OA
ATOM     34  N   UNL     1      -4.708  -4.023  11.481  0.00  0.00    -0.306 N 
ATOM     35  H   UNL     1      -4.810  -4.506  12.316  0.00  0.00    +0.170 HD
ENDBRANCH  22  24
ENDBRANCH  19  20
ENDBRANCH   3  19
TORSDOF 7
