REMARK  Name = ZINC39670194
REMARK  5 active torsions:
REMARK  status: ('A' for Active; 'I' for Inactive)
REMARK    1  A    between atoms: C_1  and  C_2
REMARK    2  A    between atoms: C_7  and  C_11
REMARK    3  A    between atoms: C_11  and  N_12
REMARK    4  A    between atoms: C_13  and  C_15
REMARK    5  A    between atoms: C_26  and  C_28
REMARK                            x       y       z     vdW  Elec       q    Type
REMARK                         _______ _______ _______ _____ _____    ______ ____
ROOT
ATOM      1  C   UNL     1       3.154  -7.368   3.688  0.00  0.00    +0.100 C 
ATOM      2  C   UNL     1       3.796  -6.243   4.529  0.00  0.00    +0.121 C 
ATOM      3  N   UNL     1       3.604  -6.670   5.935  0.00  0.00    -0.297 N 
ATOM      4  C   UNL     1       3.839  -8.134   5.910  0.00  0.00    +0.115 C 
ATOM      5  C   UNL     1       3.187  -8.609   4.596  0.00  0.00    -0.004 C 
ATOM      6  C   UNL     1       1.769  -9.107   4.862  0.00  0.00    -0.010 C 
ATOM      7  C   UNL     1       1.831 -10.374   5.720  0.00  0.00    -0.082 C 
ATOM      8  N   UNL     1       2.611 -11.403   5.022  0.00  0.00    +0.379 N 
ATOM      9  C   UNL     1       3.998 -10.952   4.853  0.00  0.00    -0.082 C 
ATOM     10  C   UNL     1       4.027  -9.710   3.958  0.00  0.00    -0.010 C 
ATOM     11  C   UNL     1       3.288  -5.902   6.997  0.00  0.00    +0.260 C 
ATOM     12  O   UNL     1       3.166  -6.405   8.094  0.00  0.00    -0.271 OA
ATOM     13  H   UNL     1       2.599 -12.255   5.561  0.00  0.00    -0.086 HD
ATOM     14  H   UNL     1       2.202 -11.575   4.116  0.00  0.00    -0.086 HD
ENDROOT
BRANCH  11  15
ATOM     15  C   UNL     1       3.087  -4.419   6.820  0.00  0.00    +0.296 C 
ATOM     16  C   UNL     1       4.412  -3.763   6.411  0.00  0.00    +0.283 C 
ATOM     17  O   UNL     1       4.190  -2.356   6.266  0.00  0.00    -0.484 OA
ATOM     18  C   UNL     1       3.489  -1.742   7.259  0.00  0.00    +0.162 A 
ATOM     19  C   UNL     1       3.544  -0.361   7.377  0.00  0.00    +0.049 A 
ATOM     20  C   UNL     1       2.835   0.276   8.378  0.00  0.00    +0.004 A 
ATOM     21  C   UNL     1       2.070  -0.460   9.264  0.00  0.00    +0.004 A 
ATOM     22  C   UNL     1       2.013  -1.836   9.152  0.00  0.00    +0.049 A 
ATOM     23  C   UNL     1       2.722  -2.482   8.151  0.00  0.00    +0.163 A 
ATOM     24  O   UNL     1       2.662  -3.839   8.058  0.00  0.00    -0.473 OA
ENDBRANCH  11  15
BRANCH   1  26
ATOM     25  N   UNL     1       1.176  -7.500   2.208  0.00  0.00    -0.309 N 
ATOM     26  C   UNL     1       1.732  -7.014   3.335  0.00  0.00    +0.219 C 
ATOM     27  O   UNL     1       1.088  -6.292   4.066  0.00  0.00    -0.275 OA
ATOM     28  H   UNL     1       1.691  -8.077   1.623  0.00  0.00    +0.149 HD
BRANCH  25  29
ATOM     29  C   UNL     1      -0.206  -7.155   1.865  0.00  0.00    +0.159 C 
BRANCH  29  36
ATOM     30  C   UNL     1      -1.404  -9.194  -5.154  0.00  0.00    +0.044 C 
ATOM     31  C   UNL     1      -1.385  -9.199  -3.647  0.00  0.00    -0.046 A 
ATOM     32  C   UNL     1      -1.952 -10.270  -2.938  0.00  0.00    +0.021 A 
ATOM     33  C   UNL     1      -1.936 -10.278  -1.588  0.00  0.00    +0.093 A 
ATOM     34  N   UNL     1      -1.371  -9.248  -0.894  0.00  0.00    -0.308 N 
ATOM     35  C   UNL     1      -1.222  -9.005   0.444  0.00  0.00    +0.115 A 
ATOM     36  C   UNL     1      -0.582  -7.821   0.567  0.00  0.00    +0.051 A 
ATOM     37  N   UNL     1      -0.340  -7.339  -0.655  0.00  0.00    -0.342 N 
ATOM     38  C   UNL     1      -0.810  -8.188  -1.558  0.00  0.00    +0.116 A 
ATOM     39  C   UNL     1      -0.814  -8.168  -2.968  0.00  0.00    +0.048 A 
ATOM     40  H   UNL     1       0.108  -6.502  -0.850  0.00  0.00    +0.167 HD
ENDBRANCH  29  36
ENDBRANCH  25  29
ENDBRANCH   1  26
TORSDOF 4
