REMARK  Name = ZINC13639765
REMARK  6 active torsions:
REMARK  status: ('A' for Active; 'I' for Inactive)
REMARK    1  A    between atoms: C_1  and  O_2
REMARK    2  A    between atoms: O_2  and  C_3
REMARK    3  A    between atoms: C_6  and  N_27
REMARK    4  A    between atoms: C_10  and  C_19
REMARK    5  A    between atoms: C_22  and  O_26
REMARK    6  A    between atoms: C_24  and  O_25
REMARK                            x       y       z     vdW  Elec       q    Type
REMARK                         _______ _______ _______ _____ _____    ______ ____
ROOT
ATOM      1  C   UNL     1      -1.414  -0.477   0.325  0.00  0.00    +0.141 A 
ATOM      2  C   UNL     1      -2.483   0.342   0.630  0.00  0.00    +0.050 A 
ATOM      3  C   UNL     1      -2.358   1.716   0.528  0.00  0.00    +0.037 A 
ATOM      4  C   UNL     1      -1.159   2.264   0.114  0.00  0.00    +0.132 A 
ATOM      5  C   UNL     1      -0.087   1.454  -0.198  0.00  0.00    +0.014 A 
ATOM      6  C   UNL     1      -0.192   0.066  -0.091  0.00  0.00    +0.076 A 
ATOM      7  N   UNL     1       0.850  -0.822  -0.364  0.00  0.00    -0.333 N 
ATOM      8  C   UNL     1       2.100  -0.237  -0.874  0.00  0.00    +0.109 C 
ATOM      9  C   UNL     1       2.320   1.062  -0.129  0.00  0.00    +0.029 C 
ATOM     10  C   UNL     1       1.202   2.014  -0.660  0.00  0.00    +0.051 C 
ATOM     11  C   UNL     1       1.682   3.357  -0.249  0.00  0.00    -0.023 C 
ATOM     12  C   UNL     1       3.009   3.331  -0.190  0.00  0.00    -0.030 C 
ATOM     13  C   UNL     1       3.520   1.928  -0.529  0.00  0.00    +0.033 C 
ATOM     14  H   UNL     1       1.028  -1.424   0.426  0.00  0.00    +0.147 HD
ENDROOT
BRANCH   8  15
ATOM     15  C   UNL     1       3.249  -1.179  -0.619  0.00  0.00    +0.015 A 
ATOM     16  C   UNL     1       4.128  -0.930   0.418  0.00  0.00    +0.012 A 
ATOM     17  C   UNL     1       5.182  -1.791   0.655  0.00  0.00    +0.046 A 
ATOM     18  C   UNL     1       5.361  -2.908  -0.149  0.00  0.00    +0.120 A 
ATOM     19  C   UNL     1       4.481  -3.160  -1.189  0.00  0.00    +0.091 A 
ATOM     20  C   UNL     1       3.421  -2.297  -1.422  0.00  0.00    +0.125 A 
BRANCH  20  21
ATOM     21  O   UNL     1       2.553  -2.544  -2.438  0.00  0.00    -0.506 OA
ATOM     22  H   UNL     1       2.847  -2.211  -3.296  0.00  0.00    +0.292 HD
ENDBRANCH  20  21
BRANCH  18  23
ATOM     23  O   UNL     1       6.398  -3.755   0.085  0.00  0.00    -0.507 OA
ATOM     24  H   UNL     1       6.190  -4.473   0.697  0.00  0.00    +0.292 HD
ENDBRANCH  18  23
ENDBRANCH   8  15
BRANCH   4  25
ATOM     25  N   UNL     1      -1.024   3.734   0.004  0.00  0.00    +0.057 N 
ATOM     26  O   UNL     1      -1.350   4.447   0.936  0.00  0.00    -0.126 OA
ATOM     27  O   UNL     1      -0.587   4.231  -1.019  0.00  0.00    -0.126 OA
ENDBRANCH   4  25
BRANCH   1  29
ATOM     28  C   UNL     1      -2.820  -2.320   0.857  0.00  0.00    +0.277 C 
ATOM     29  O   UNL     1      -1.550  -1.827   0.428  0.00  0.00    -0.493 OA
ENDBRANCH   1  29
TORSDOF 5
