REMARK  Name = ZINC42892598
REMARK  6 active torsions:
REMARK  status: ('A' for Active; 'I' for Inactive)
REMARK    1  A    between atoms: C_1  and  C_2
REMARK    2  A    between atoms: C_2  and  C_3
REMARK    3  A    between atoms: C_3  and  C_5
REMARK    4  A    between atoms: C_3  and  N_9
REMARK    5  A    between atoms: N_6  and  O_7
REMARK    6  A    between atoms: C_10  and  C_12
REMARK                            x       y       z     vdW  Elec       q    Type
REMARK                         _______ _______ _______ _____ _____    ______ ____
ROOT
ATOM      1  N   UNL     1       2.148  -0.104   1.172  0.00  0.00    -0.302 N 
ATOM      2  C   UNL     1       2.518   1.116   1.608  0.00  0.00    +0.246 C 
ATOM      3  O   UNL     1       1.686   1.880   2.060  0.00  0.00    -0.270 OA
ATOM      4  H   UNL     1       2.812  -0.712   0.811  0.00  0.00    +0.150 HD
ENDROOT
BRANCH   2   5
ATOM      5  C   UNL     1       3.927   1.524   1.538  0.00  0.00    +0.051 A 
ATOM      6  C   UNL     1       4.873   0.691   1.032  0.00  0.00    +0.059 A 
ATOM      7  S   UNL     1       6.317   1.538   1.138  0.00  0.00    -0.096 S 
ATOM      8  C   UNL     1       5.741   3.049   1.862  0.00  0.00    +0.020 A 
ATOM      9  C   UNL     1       4.355   2.845   2.006  0.00  0.00    +0.001 A 
ATOM     10  C   UNL     1       3.602   3.896   2.562  0.00  0.00    +0.010 A 
ATOM     11  C   UNL     1       4.213   5.066   2.937  0.00  0.00    +0.001 A 
ATOM     12  C   UNL     1       5.580   5.245   2.781  0.00  0.00    +0.001 A 
ATOM     13  C   UNL     1       6.346   4.226   2.247  0.00  0.00    +0.015 A 
ENDBRANCH   2   5
BRANCH   1  14
ATOM     14  C   UNL     1       0.742  -0.511   1.242  0.00  0.00    +0.139 C 
BRANCH  14  15
ATOM     15  C   UNL     1       0.657  -2.014   1.298  0.00  0.00    +0.152 C 
ATOM     16  N   UNL     1      -0.373  -2.583   1.832  0.00  0.00    -0.075 NA
ATOM     17  N   UNL     1       1.676  -2.782   0.780  0.00  0.00    -0.342 N 
ATOM     18  H   UNL     1       2.449  -2.355   0.379  0.00  0.00    +0.144 HD
ATOM     19  H   UNL     1       1.621  -3.750   0.816  0.00  0.00    +0.144 HD
BRANCH  16  20
ATOM     20  O   UNL     1      -0.453  -3.996   1.885  0.00  0.00    -0.408 OA
ATOM     21  H   UNL     1      -1.259  -4.329   2.302  0.00  0.00    +0.328 HD
ENDBRANCH  16  20
ENDBRANCH  14  15
BRANCH  14  23
ATOM     22  C   UNL     1      -0.019   1.526   0.010  0.00  0.00    +0.006 C 
ATOM     23  C   UNL     1       0.002  -0.004   0.002  0.00  0.00    +0.027 C 
ENDBRANCH  14  23
ENDBRANCH   1  14
TORSDOF 5
