REMARK  Name = ZINC28347389
REMARK  11 active torsions:
REMARK  status: ('A' for Active; 'I' for Inactive)
REMARK    1  A    between atoms: C_1  and  C_2
REMARK    2  A    between atoms: C_5  and  C_27
REMARK    3  A    between atoms: C_6  and  N_8
REMARK    4  A    between atoms: N_8  and  C_9
REMARK    5  A    between atoms: C_9  and  N_11
REMARK    6  A    between atoms: N_11  and  N_12
REMARK    7  A    between atoms: C_13  and  C_15
REMARK    8  A    between atoms: C_15  and  N_16
REMARK    9  A    between atoms: C_17  and  C_19
REMARK   10  A    between atoms: C_21  and  C_26
REMARK   11  A    between atoms: C_23  and  C_25
REMARK                            x       y       z     vdW  Elec       q    Type
REMARK                         _______ _______ _______ _____ _____    ______ ____
ROOT
ATOM      1  N   UNL     1       4.713   5.232  -0.219  0.00  0.00    -0.234 N 
ATOM      2  C   UNL     1       5.869   5.917  -0.329  0.00  0.00    +0.246 C 
ATOM      3  O   UNL     1       5.851   7.126  -0.413  0.00  0.00    -0.273 OA
ATOM      4  H   UNL     1       4.729   4.135  -0.142  0.00  0.00    +0.173 HD
ENDROOT
BRANCH   1   5
ATOM      5  N   UNL     1       3.491   5.918  -0.204  0.00  0.00    -0.246 N 
ATOM      6  H   UNL     1       3.476   7.015  -0.281  0.00  0.00    +0.172 HD
BRANCH   5   7
ATOM      7  C   UNL     1       2.336   5.233  -0.094  0.00  0.00    +0.151 C 
ATOM      8  S   UNL     1       0.843   6.071  -0.075  0.00  0.00    -0.017 S 
BRANCH   7   9
ATOM      9  N   UNL     1       2.355   3.889   0.000  0.00  0.00    -0.296 N 
ATOM     10  H   UNL     1       3.315   3.357   0.079  0.00  0.00    +0.154 HD
BRANCH   9  16
ATOM     11  C   UNL     1      -2.114   3.121  -1.898  0.00  0.00    +0.044 C 
ATOM     12  C   UNL     1      -1.028   2.776  -0.912  0.00  0.00    -0.049 A 
ATOM     13  C   UNL     1      -1.216   1.744  -0.011  0.00  0.00    +0.004 A 
ATOM     14  C   UNL     1      -0.224   1.428   0.900  0.00  0.00    +0.005 A 
ATOM     15  C   UNL     1       0.962   2.136   0.905  0.00  0.00    -0.029 A 
ATOM     16  C   UNL     1       1.155   3.170  -0.002  0.00  0.00    +0.036 A 
ATOM     17  C   UNL     1       0.155   3.488  -0.912  0.00  0.00    +0.027 A 
ATOM     18  C   UNL     1       2.045   1.787   1.893  0.00  0.00    +0.045 C 
ENDBRANCH   9  16
ENDBRANCH   7   9
ENDBRANCH   5   7
ENDBRANCH   1   5
BRANCH   2  19
ATOM     19  C   UNL     1       7.183   5.179  -0.345  0.00  0.00    +0.202 C 
BRANCH  19  20
ATOM     20  N   UNL     1       8.281   6.141  -0.471  0.00  0.00    -0.303 N 
ATOM     21  C   UNL     1       9.556   5.706  -0.508  0.00  0.00    +0.244 C 
ATOM     22  O   UNL     1       9.796   4.517  -0.436  0.00  0.00    -0.270 OA
ATOM     23  H   UNL     1       8.065   7.217  -0.536  0.00  0.00    +0.150 HD
BRANCH  21  24
ATOM     24  C   UNL     1      10.665   6.677  -0.635  0.00  0.00    +0.037 A 
ATOM     25  C   UNL     1      10.393   8.043  -0.723  0.00  0.00    +0.016 A 
ATOM     26  C   UNL     1      11.432   8.944  -0.836  0.00  0.00    -0.049 A 
ATOM     27  C   UNL     1      12.740   8.494  -0.873  0.00  0.00    +0.006 A 
ATOM     28  C   UNL     1      13.016   7.141  -0.792  0.00  0.00    -0.049 A 
ATOM     29  C   UNL     1      11.986   6.230  -0.673  0.00  0.00    +0.016 A 
ATOM     30  C   UNL     1      14.444   6.660  -0.833  0.00  0.00    +0.044 C 
ATOM     31  C   UNL     1      11.141  10.419  -0.926  0.00  0.00    +0.044 C 
ENDBRANCH  21  24
ENDBRANCH  19  20
ENDBRANCH   2  19
TORSDOF 7
