REMARK  Name = ZINC07501359
REMARK  5 active torsions:
REMARK  status: ('A' for Active; 'I' for Inactive)
REMARK    1  A    between atoms: C_1  and  N_2
REMARK    2  A    between atoms: C_3  and  C_17
REMARK    3  A    between atoms: C_6  and  S_7
REMARK    4  A    between atoms: S_7  and  C_8
REMARK    5  A    between atoms: C_8  and  C_9
REMARK                            x       y       z     vdW  Elec       q    Type
REMARK                         _______ _______ _______ _____ _____    ______ ____
ROOT
ATOM      1  S   UNL     1       3.780   0.850   0.382  0.00  0.00    -0.078 S 
ENDROOT
BRANCH   1   7
ATOM      2  C   UNL     1       1.824  -1.762  -0.143  0.00  0.00    +0.153 C 
ATOM      3  N   UNL     1       1.313  -0.392  -0.065  0.00  0.00    -0.305 N 
ATOM      4  C   UNL     1       0.006   0.017  -0.190  0.00  0.00    +0.166 A 
ATOM      5  N   UNL     1      -0.005   1.323  -0.054  0.00  0.00    -0.128 NA
ATOM      6  N   UNL     1       1.190   1.752   0.145  0.00  0.00    -0.122 NA
ATOM      7  C   UNL     1       2.037   0.747   0.148  0.00  0.00    +0.192 A 
BRANCH   4   8
ATOM      8  C   UNL     1      -1.166  -0.851  -0.433  0.00  0.00    +0.038 A 
ATOM      9  C   UNL     1      -1.121  -1.827  -1.429  0.00  0.00    +0.013 A 
ATOM     10  C   UNL     1      -2.218  -2.634  -1.650  0.00  0.00    +0.001 A 
ATOM     11  C   UNL     1      -3.362  -2.478  -0.887  0.00  0.00    +0.001 A 
ATOM     12  C   UNL     1      -3.414  -1.512   0.102  0.00  0.00    +0.021 A 
ATOM     13  C   UNL     1      -2.322  -0.701   0.338  0.00  0.00    +0.052 A 
ATOM     14 CL   UNL     1      -2.386   0.506   1.584  0.00  0.00    -0.083 Cl
ENDBRANCH   4   8
ENDBRANCH   1   7
BRANCH   1  15
ATOM     15  C   UNL     1       3.963   2.638   0.594  0.00  0.00    +0.153 C 
BRANCH  15  16
ATOM     16  C   UNL     1       5.417   2.971   0.816  0.00  0.00    +0.146 A 
ATOM     17  N   UNL     1       5.906   3.003   2.043  0.00  0.00    -0.199 NA
ATOM     18  C   UNL     1       7.190   3.292   2.242  0.00  0.00    +0.217 A 
ATOM     19  N   UNL     1       7.977   3.559   1.206  0.00  0.00    -0.181 NA
ATOM     20  C   UNL     1       7.481   3.531  -0.026  0.00  0.00    +0.217 A 
ATOM     21  N   UNL     1       6.197   3.236  -0.217  0.00  0.00    -0.199 NA
ATOM     22  N   UNL     1       8.294   3.808  -1.105  0.00  0.00    -0.327 N 
ATOM     23  N   UNL     1       7.701   3.320   3.524  0.00  0.00    -0.327 N 
ATOM     24  H   UNL     1       7.931   3.787  -2.004  0.00  0.00    +0.145 HD
ATOM     25  H   UNL     1       9.230   4.023  -0.965  0.00  0.00    +0.145 HD
ATOM     26  H   UNL     1       8.636   3.535   3.669  0.00  0.00    +0.145 HD
ATOM     27  H   UNL     1       7.125   3.125   4.280  0.00  0.00    +0.145 HD
ENDBRANCH  15  16
ENDBRANCH   1  15
TORSDOF 4
