REMARK  Name = ZINC37563014
REMARK  4 active torsions:
REMARK  status: ('A' for Active; 'I' for Inactive)
REMARK    1  A    between atoms: C_4  and  N_12
REMARK    2  A    between atoms: N_12  and  C_13
REMARK    3  A    between atoms: C_13  and  C_14
REMARK    4  A    between atoms: C_16  and  N_19
REMARK                            x       y       z     vdW  Elec       q    Type
REMARK                         _______ _______ _______ _____ _____    ______ ____
ROOT
ATOM      1  C   UNL     1      -0.017   1.388   0.010  0.00  0.00    +0.020 A 
ATOM      2  C   UNL     1       1.159   2.086   0.002  0.00  0.00    +0.013 A 
ATOM      3  C   UNL     1       2.361   1.359  -0.013  0.00  0.00    +0.023 A 
ATOM      4  C   UNL     1       3.613   2.011  -0.021  0.00  0.00    +0.037 A 
ATOM      5  C   UNL     1       4.768   1.258  -0.036  0.00  0.00    +0.025 A 
ATOM      6  C   UNL     1       4.707  -0.133  -0.043  0.00  0.00    +0.024 A 
ATOM      7  C   UNL     1       3.512  -0.786  -0.035  0.00  0.00    +0.067 A 
ATOM      8  C   UNL     1       2.310  -0.056  -0.020  0.00  0.00    +0.091 A 
ATOM      9  N   UNL     1       1.127  -0.678  -0.012  0.00  0.00    -0.253 NA
ATOM     10  C   UNL     1       0.002  -0.004   0.002  0.00  0.00    +0.111 A 
ATOM     11 CL   UNL     1       3.473  -2.522  -0.045  0.00  0.00    -0.081 Cl
ENDROOT
BRANCH   4  12
ATOM     12  N   UNL     1       3.681   3.402  -0.015  0.00  0.00    -0.339 N 
ATOM     13  H   UNL     1       2.866   3.928  -0.004  0.00  0.00    +0.146 HD
BRANCH  12  14
ATOM     14  C   UNL     1       4.984   4.072  -0.023  0.00  0.00    +0.137 C 
BRANCH  14  15
ATOM     15  C   UNL     1       4.782   5.565  -0.013  0.00  0.00    -0.021 A 
ATOM     16  C   UNL     1       4.672   6.266  -1.200  0.00  0.00    +0.045 A 
ATOM     17  C   UNL     1       4.490   7.608  -1.156  0.00  0.00    +0.164 A 
ATOM     18  S   UNL     1       4.469   7.921   0.601  0.00  0.00    -0.073 S 
ATOM     19  C   UNL     1       4.699   6.241   1.159  0.00  0.00    +0.052 A 
BRANCH  17  20
ATOM     20  N   UNL     1       4.346   8.566  -2.275  0.00  0.00    +0.063 N 
ATOM     21  O   UNL     1       4.386   8.172  -3.418  0.00  0.00    -0.126 OA
ATOM     22  O   UNL     1       4.189   9.743  -2.047  0.00  0.00    -0.126 OA
ENDBRANCH  17  20
ENDBRANCH  14  15
ENDBRANCH  12  14
ENDBRANCH   4  12
TORSDOF 4
