REMARK  Name = ZINC08323130
REMARK  7 active torsions:
REMARK  status: ('A' for Active; 'I' for Inactive)
REMARK    1  A    between atoms: C_1  and  C_2
REMARK    2  A    between atoms: C_2  and  N_3
REMARK    3  A    between atoms: C_4  and  C_23
REMARK    4  A    between atoms: C_5  and  C_19
REMARK    5  A    between atoms: C_6  and  C_11
REMARK    6  A    between atoms: C_19  and  O_21
REMARK    7  A    between atoms: O_21  and  C_22
REMARK                            x       y       z     vdW  Elec       q    Type
REMARK                         _______ _______ _______ _____ _____    ______ ____
ROOT
ATOM      1  N   UNL     1      -3.076   6.253  -1.277  0.00  0.00    -0.259 N 
ATOM      2  C   UNL     1      -3.362   5.068  -1.893  0.00  0.00    +0.024 C 
ATOM      3  C   UNL     1      -3.138   3.889  -1.275  0.00  0.00    +0.078 C 
ATOM      4  C   UNL     1      -2.559   3.925   0.125  0.00  0.00    +0.146 C 
ATOM      5  N   UNL     1      -2.286   5.253   0.699  0.00  0.00    -0.288 N 
ATOM      6  C   UNL     1      -2.564   6.343  -0.043  0.00  0.00    +0.307 C 
ATOM      7  O   UNL     1      -2.343   7.444   0.423  0.00  0.00    -0.252 OA
ATOM      8  C   UNL     1      -3.938   5.077  -3.286  0.00  0.00    +0.061 C 
ATOM      9  H   UNL     1      -1.916   5.342   1.591  0.00  0.00    +0.151 HD
ENDROOT
BRANCH   4  10
ATOM     10  C   UNL     1      -1.267   3.149   0.114  0.00  0.00    +0.013 A 
ATOM     11  C   UNL     1      -1.204   1.904   0.710  0.00  0.00    +0.011 A 
ATOM     12  C   UNL     1      -0.020   1.191   0.701  0.00  0.00    +0.039 A 
ATOM     13  C   UNL     1       1.105   1.725   0.093  0.00  0.00    +0.126 A 
ATOM     14  C   UNL     1       1.042   2.971  -0.504  0.00  0.00    +0.077 A 
ATOM     15  C   UNL     1      -0.143   3.687  -0.489  0.00  0.00    +0.131 A 
ATOM     16  F   UNL     1      -0.203   4.907  -1.066  0.00  0.00    -0.205 F 
ATOM     17  F   UNL     1       2.262   1.028   0.083  0.00  0.00    -0.205 F 
ENDBRANCH   4  10
BRANCH   1  19
ATOM     18  C   UNL     1      -4.813   7.883  -1.830  0.00  0.00    +0.025 C 
ATOM     19  C   UNL     1      -3.344   7.494  -2.007  0.00  0.00    +0.111 C 
ENDBRANCH   1  19
BRANCH   3  20
ATOM     20  C   UNL     1      -3.434   2.661  -1.912  0.00  0.00    +0.339 C 
ATOM     21  O   UNL     1      -3.791   2.650  -3.075  0.00  0.00    -0.245 OA
BRANCH  20  22
ATOM     22  O   UNL     1      -3.320   1.502  -1.230  0.00  0.00    -0.465 OA
ATOM     23  C   UNL     1      -3.634   0.300  -1.937  0.00  0.00    +0.280 C 
ENDBRANCH  20  22
ENDBRANCH   3  20
TORSDOF 4
