REMARK  Name = ZINC21625836
REMARK  5 active torsions:
REMARK  status: ('A' for Active; 'I' for Inactive)
REMARK    1  A    between atoms: C_1  and  C_2
REMARK    2  A    between atoms: C_7  and  C_9
REMARK    3  A    between atoms: C_7  and  C_10
REMARK    4  A    between atoms: N_13  and  C_17
REMARK    5  A    between atoms: C_17  and  C_18
REMARK                            x       y       z     vdW  Elec       q    Type
REMARK                         _______ _______ _______ _____ _____    ______ ____
ROOT
ATOM      1  C   UNL     1      -0.061   1.649   0.498  0.00  0.00    +0.007 C 
ATOM      2  C   UNL     1      -0.046   0.132   0.299  0.00  0.00    -0.011 C 
ATOM      3  C   UNL     1       0.612  -0.200  -1.042  0.00  0.00    +0.038 C 
ATOM      4  C   UNL     1       0.646  -1.713  -1.232  0.00  0.00    +0.113 C 
ATOM      5  C   UNL     1       1.417  -2.381  -0.099  0.00  0.00    +0.041 C 
ATOM      6  C   UNL     1       0.756  -2.041   1.240  0.00  0.00    -0.032 C 
ATOM      7  C   UNL     1       0.748  -0.523   1.431  0.00  0.00    +0.009 C 
ATOM      8  C   UNL     1      -0.682  -2.564   1.246  0.00  0.00    +0.011 C 
ATOM      9  C   UNL     1       1.542  -2.695   2.378  0.00  0.00    +0.011 C 
ATOM     10  C   UNL     1       1.261  -2.063  -2.567  0.00  0.00    +0.247 C 
ATOM     11  O   UNL     1       2.385  -1.813  -2.946  0.00  0.00    -0.273 OA
ATOM     12  N   UNL     1       0.296  -2.715  -3.249  0.00  0.00    -0.215 N 
ATOM     13  C   UNL     1      -0.829  -2.819  -2.531  0.00  0.00    +0.310 C 
ATOM     14  O   UNL     1      -1.838  -3.366  -2.931  0.00  0.00    -0.252 OA
ATOM     15  N   UNL     1      -0.717  -2.252  -1.315  0.00  0.00    -0.285 N 
ATOM     16  H   UNL     1      -1.402  -2.208  -0.629  0.00  0.00    +0.151 HD
ENDROOT
BRANCH  12  17
ATOM     17  C   UNL     1       0.458  -3.241  -4.606  0.00  0.00    +0.213 C 
BRANCH  17  18
ATOM     18  C   UNL     1       0.970  -4.657  -4.537  0.00  0.00    +0.234 C 
ATOM     19  O   UNL     1       1.179  -5.175  -3.461  0.00  0.00    -0.274 OA
ATOM     20  N   UNL     1       1.197  -5.348  -5.673  0.00  0.00    -0.295 N 
ATOM     21  C   UNL     1       1.690  -6.732  -5.617  0.00  0.00    +0.113 C 
ATOM     22  C   UNL     1       0.608  -7.654  -6.199  0.00  0.00    +0.061 C 
ATOM     23  C   UNL     1       0.050  -7.020  -7.432  0.00  0.00    -0.004 A 
ATOM     24  C   UNL     1       0.165  -5.724  -7.831  0.00  0.00    -0.020 A 
ATOM     25  C   UNL     1      -0.461  -5.380  -9.028  0.00  0.00    +0.013 A 
ATOM     26  C   UNL     1      -1.134  -6.318  -9.733  0.00  0.00    +0.046 A 
ATOM     27  S   UNL     1      -0.914  -7.771  -8.717  0.00  0.00    -0.101 S 
ATOM     28  C   UNL     1       0.947  -4.730  -6.982  0.00  0.00    +0.143 C 
ENDBRANCH  17  18
ENDBRANCH  12  17
TORSDOF 2
