REMARK  Name = ZINC16846447
REMARK  4 active torsions:
REMARK  status: ('A' for Active; 'I' for Inactive)
REMARK    1  A    between atoms: C_1  and  C_2
REMARK    2  A    between atoms: N_18  and  C_19
REMARK    3  A    between atoms: C_19  and  C_20
REMARK    4  A    between atoms: C_20  and  O_21
REMARK                            x       y       z     vdW  Elec       q    Type
REMARK                         _______ _______ _______ _____ _____    ______ ____
ROOT
ATOM      1  C   UNL     1       8.563  -3.013   0.256  0.00  0.00    +0.008 C 
ATOM      2  C   UNL     1       7.699  -1.763   0.433  0.00  0.00    -0.009 C 
ATOM      3  C   UNL     1       8.289  -0.615  -0.392  0.00  0.00    +0.009 C 
ATOM      4  C   UNL     1       7.573   0.687  -0.007  0.00  0.00    +0.043 C 
ATOM      5  C   UNL     1       6.097   0.434  -0.012  0.00  0.00    -0.004 A 
ATOM      6  C   UNL     1       5.472  -0.761  -0.024  0.00  0.00    -0.024 A 
ATOM      7  C   UNL     1       4.008  -0.746  -0.026  0.00  0.00    +0.051 A 
ATOM      8  C   UNL     1       3.076  -1.892  -0.038  0.00  0.00    +0.133 A 
ATOM      9  N   UNL     1       1.778  -1.679  -0.037  0.00  0.00    -0.194 NA
ATOM     10  C   UNL     1       1.251  -0.449  -0.025  0.00  0.00    +0.276 A 
ATOM     11  N   UNL     1       0.002  -0.004  -0.022  0.00  0.00    -0.087 NA
ATOM     12  N   UNL     1      -0.015   1.280  -0.010  0.00  0.00    -0.021 NA
ATOM     13  N   UNL     1       1.184   1.754  -0.005  0.00  0.00    -0.037 NA
ATOM     14  N   UNL     1       2.058   0.657  -0.015  0.00  0.00    -0.170 N 
ATOM     15  C   UNL     1       3.410   0.516  -0.015  0.00  0.00    +0.119 A 
ATOM     16  S   UNL     1       4.789   1.631  -0.002  0.00  0.00    -0.073 S 
ATOM     17  N   UNL     1       3.566  -3.182  -0.051  0.00  0.00    -0.326 N 
ATOM     18  C   UNL     1       6.274  -2.060  -0.035  0.00  0.00    +0.040 C 
ATOM     19  H   UNL     1       4.520  -3.338  -0.133  0.00  0.00    +0.148 HD
ENDROOT
BRANCH  17  20
ATOM     20  C   UNL     1       2.645  -4.316   0.062  0.00  0.00    +0.130 C 
BRANCH  20  21
ATOM     21  C   UNL     1       3.439  -5.624   0.022  0.00  0.00    +0.174 C 
BRANCH  21  22
ATOM     22  O   UNL     1       4.281  -5.705   1.174  0.00  0.00    -0.393 OA
ATOM     23  H   UNL     1       4.815  -6.510   1.215  0.00  0.00    +0.209 HD
ENDBRANCH  21  22
ENDBRANCH  20  21
ENDBRANCH  17  20
TORSDOF 3
