REMARK  Name = ZINC34887956
REMARK  16 active torsions:
REMARK  status: ('A' for Active; 'I' for Inactive)
REMARK    1  A    between atoms: C_1  and  C_2
REMARK    2  A    between atoms: C_2  and  C_3
REMARK    3  A    between atoms: C_2  and  C_4
REMARK    4  A    between atoms: C_2  and  N_5
REMARK    5  A    between atoms: C_9  and  C_11
REMARK    6  A    between atoms: C_11  and  O_12
REMARK    7  A    between atoms: O_12  and  C_13
REMARK    8  A    between atoms: C_13  and  C_15
REMARK    9  A    between atoms: C_16  and  C_17
REMARK   10  A    between atoms: C_17  and  O_19
REMARK   11  A    between atoms: O_19  and  C_20
REMARK   12  A    between atoms: C_20  and  C_21
REMARK   13  A    between atoms: N_26  and  C_27
REMARK   14  A    between atoms: C_27  and  C_28
REMARK   15  A    between atoms: C_27  and  C_29
REMARK   16  A    between atoms: C_27  and  C_30
REMARK                            x       y       z     vdW  Elec       q    Type
REMARK                         _______ _______ _______ _____ _____    ______ ____
ROOT
ATOM      1  C   UNL     1       8.099  -0.086  -5.136  0.00  0.00    +0.098 C 
ATOM      2  C   UNL     1       8.868  -0.430  -6.182  0.00  0.00    +0.098 C 
ENDROOT
BRANCH   1   3
ATOM      3  C   UNL     1       6.704  -0.560  -5.059  0.00  0.00    +0.333 C 
ATOM      4  O   UNL     1       6.251  -1.262  -5.940  0.00  0.00    -0.246 OA
BRANCH   3   5
ATOM      5  O   UNL     1       5.932  -0.214  -4.010  0.00  0.00    -0.452 OA
BRANCH   5   6
ATOM      6  C   UNL     1       4.591  -0.709  -3.999  0.00  0.00    +0.328 C 
BRANCH   6  11
ATOM      7  N   UNL     1       0.688  -0.476  -1.203  0.00  0.00    -0.294 N 
ATOM      8  C   UNL     1       1.972  -0.132  -1.427  0.00  0.00    +0.306 C 
ATOM      9  O   UNL     1       2.560   0.570  -0.629  0.00  0.00    -0.252 OA
ATOM     10  N   UNL     1       2.602  -0.567  -2.536  0.00  0.00    -0.237 N 
ATOM     11  C   UNL     1       3.886  -0.223  -2.760  0.00  0.00    +0.258 C 
ATOM     12  O   UNL     1       4.473   0.478  -1.963  0.00  0.00    -0.272 OA
ATOM     13  H   UNL     1       0.218  -1.037  -1.840  0.00  0.00    +0.151 HD
ATOM     14  H   UNL     1       2.132  -1.127  -3.173  0.00  0.00    +0.159 HD
BRANCH   7  16
ATOM     15  C   UNL     1      -0.019   1.526   0.010  0.00  0.00    +0.031 C 
ATOM     16  C   UNL     1       0.002  -0.004   0.002  0.00  0.00    +0.028 C 
ATOM     17  C   UNL     1       0.742  -0.511   1.242  0.00  0.00    +0.031 C 
ATOM     18  C   UNL     1      -1.433  -0.534   0.013  0.00  0.00    +0.031 C 
ENDBRANCH   7  16
ENDBRANCH   6  11
ENDBRANCH   5   6
ENDBRANCH   3   5
ENDBRANCH   1   3
BRANCH   2  19
ATOM     19  C   UNL     1      10.264   0.044  -6.260  0.00  0.00    +0.333 C 
ATOM     20  O   UNL     1      10.716   0.746  -5.378  0.00  0.00    -0.246 OA
BRANCH  19  21
ATOM     21  O   UNL     1      11.035  -0.302  -7.309  0.00  0.00    -0.452 OA
BRANCH  21  22
ATOM     22  C   UNL     1      12.376   0.193  -7.319  0.00  0.00    +0.328 C 
BRANCH  22  23
ATOM     23  C   UNL     1      13.081  -0.293  -8.559  0.00  0.00    +0.258 C 
ATOM     24  O   UNL     1      12.494  -0.994  -9.355  0.00  0.00    -0.272 OA
ATOM     25  N   UNL     1      14.365   0.051  -8.782  0.00  0.00    -0.237 N 
ATOM     26  C   UNL     1      14.996  -0.384  -9.891  0.00  0.00    +0.306 C 
ATOM     27  O   UNL     1      14.407  -1.086 -10.690  0.00  0.00    -0.252 OA
ATOM     28  N   UNL     1      16.279  -0.040 -10.115  0.00  0.00    -0.294 N 
ATOM     29  H   UNL     1      14.835   0.611  -8.145  0.00  0.00    +0.159 HD
ATOM     30  H   UNL     1      16.749   0.521  -9.478  0.00  0.00    +0.151 HD
BRANCH  28  31
ATOM     31  C   UNL     1      16.965  -0.512 -11.320  0.00  0.00    +0.028 C 
ATOM     32  C   UNL     1      16.225  -0.005 -12.560  0.00  0.00    +0.031 C 
ATOM     33  C   UNL     1      18.401   0.018 -11.331  0.00  0.00    +0.031 C 
ATOM     34  C   UNL     1      16.986  -2.042 -11.329  0.00  0.00    +0.031 C 
ENDBRANCH  28  31
ENDBRANCH  22  23
ENDBRANCH  21  22
ENDBRANCH  19  21
ENDBRANCH   2  19
TORSDOF 10
