REMARK  Name = ZINC04912170
REMARK  11 active torsions:
REMARK  status: ('A' for Active; 'I' for Inactive)
REMARK    1  A    between atoms: C_1  and  C_2
REMARK    2  A    between atoms: C_3  and  C_4
REMARK    3  A    between atoms: C_4  and  O_5
REMARK    4  A    between atoms: O_5  and  C_6
REMARK    5  A    between atoms: C_6  and  C_8
REMARK    6  A    between atoms: C_9  and  C_30
REMARK    7  A    between atoms: C_15  and  C_20
REMARK    8  A    between atoms: C_23  and  C_26
REMARK    9  A    between atoms: C_26  and  C_27
REMARK   10  A    between atoms: C_26  and  C_28
REMARK   11  A    between atoms: C_26  and  C_29
REMARK                            x       y       z     vdW  Elec       q    Type
REMARK                         _______ _______ _______ _____ _____    ______ ____
ROOT
ATOM      1  C   UNL     1      -1.126   2.305   0.019  0.00  0.00    +0.128 A 
ATOM      2  C   UNL     1      -0.018   1.503   0.010  0.00  0.00    -0.008 A 
ATOM      3  C   UNL     1       1.092   2.354   0.004  0.00  0.00    +0.042 A 
ATOM      4  C   UNL     1       0.620   3.667   0.017  0.00  0.00    +0.028 A 
ATOM      5  N   UNL     1      -0.712   3.624   0.027  0.00  0.00    -0.352 N 
ATOM      6  H   UNL     1      -1.298   4.396   0.036  0.00  0.00    +0.166 HD
ATOM      7  C   UNL     1       1.535   4.865   0.020  0.00  0.00    +0.062 C 
ATOM      8  C   UNL     1       2.922   4.441   0.511  0.00  0.00    +0.032 C 
ATOM      9  C   UNL     1       3.438   3.243  -0.293  0.00  0.00    +0.088 C 
ATOM     10  C   UNL     1       2.532   2.052  -0.016  0.00  0.00    +0.166 C 
ATOM     11  O   UNL     1       2.966   0.935   0.175  0.00  0.00    -0.292 OA
ATOM     12  C   UNL     1       0.002  -0.004   0.002  0.00  0.00    +0.047 C 
ENDROOT
BRANCH   8  13
ATOM     13  C   UNL     1       3.879   5.594   0.353  0.00  0.00    -0.043 A 
ATOM     14  C   UNL     1       4.119   6.127  -0.900  0.00  0.00    +0.004 A 
ATOM     15  C   UNL     1       4.993   7.188  -1.045  0.00  0.00    +0.004 A 
ATOM     16  C   UNL     1       5.636   7.709   0.062  0.00  0.00    -0.042 A 
ATOM     17  C   UNL     1       5.401   7.173   1.314  0.00  0.00    +0.004 A 
ATOM     18  C   UNL     1       4.522   6.115   1.460  0.00  0.00    +0.004 A 
BRANCH  16  19
ATOM     19  C   UNL     1       6.593   8.863  -0.096  0.00  0.00    -0.013 C 
ATOM     20  C   UNL     1       7.981   8.445   0.393  0.00  0.00    +0.015 C 
ATOM     21  C   UNL     1       6.671   9.262  -1.571  0.00  0.00    +0.015 C 
ATOM     22  C   UNL     1       6.098  10.052   0.729  0.00  0.00    +0.015 C 
ENDBRANCH  16  19
ENDBRANCH   8  13
BRANCH   1  23
ATOM     23  C   UNL     1      -2.519   1.844   0.022  0.00  0.00    +0.356 C 
ATOM     24  O   UNL     1      -2.765   0.653   0.016  0.00  0.00    -0.243 OA
BRANCH  23  25
ATOM     25  O   UNL     1      -3.526   2.741   0.031  0.00  0.00    -0.456 OA
BRANCH  25  26
ATOM     26  C   UNL     1      -4.879   2.213   0.033  0.00  0.00    +0.260 C 
BRANCH  26  29
ATOM     27  C   UNL     1      -7.886   4.471  -0.745  0.00  0.00    +0.035 C 
ATOM     28  C   UNL     1      -6.902   3.330  -0.755  0.00  0.00    -0.031 C 
ATOM     29  C   UNL     1      -5.863   3.354   0.043  0.00  0.00    +0.009 C 
ENDBRANCH  26  29
ENDBRANCH  25  26
ENDBRANCH  23  25
ENDBRANCH   1  23
TORSDOF 6
