REMARK  Name = ZINC04908787
REMARK  12 active torsions:
REMARK  status: ('A' for Active; 'I' for Inactive)
REMARK    1  A    between atoms: C_1  and  C_2
REMARK    2  A    between atoms: C_2  and  O_31
REMARK    3  A    between atoms: C_6  and  O_10
REMARK    4  A    between atoms: C_11  and  C_21
REMARK    5  A    between atoms: C_13  and  C_15
REMARK    6  A    between atoms: C_15  and  O_17
REMARK    7  A    between atoms: O_17  and  C_18
REMARK    8  A    between atoms: C_18  and  C_19
REMARK    9  A    between atoms: C_24  and  C_27
REMARK   10  A    between atoms: C_27  and  C_28
REMARK   11  A    between atoms: C_27  and  C_29
REMARK   12  A    between atoms: C_27  and  C_30
REMARK                            x       y       z     vdW  Elec       q    Type
REMARK                         _______ _______ _______ _____ _____    ______ ____
ROOT
ATOM      1  C   UNL     1       2.063   1.114   1.238  0.00  0.00    +0.042 C 
ATOM      2  C   UNL     1       1.286   1.562  -0.002  0.00  0.00    +0.082 C 
ATOM      3  C   UNL     1       2.042   1.125  -1.263  0.00  0.00    +0.090 C 
ATOM      4  C   UNL     1       3.296   1.955  -1.377  0.00  0.00    +0.046 A 
ATOM      5  C   UNL     1       3.508   3.112  -0.699  0.00  0.00    +0.044 A 
ATOM      6  C   UNL     1       4.772   3.592  -1.051  0.00  0.00    +0.235 A 
ATOM      7  N   UNL     1       5.299   2.752  -1.912  0.00  0.00    -0.136 NA
ATOM      8  N   UNL     1       4.382   1.714  -2.131  0.00  0.00    -0.278 N 
ATOM      9  H   UNL     1       4.513   0.932  -2.741  0.00  0.00    +0.189 HD
ATOM     10  C   UNL     1       2.516   3.726   0.256  0.00  0.00    +0.072 C 
ATOM     11  C   UNL     1       1.145   3.086   0.008  0.00  0.00    +0.141 C 
ENDROOT
BRANCH  10  12
ATOM     12  C   UNL     1       2.433   5.212   0.017  0.00  0.00    -0.039 A 
ATOM     13  C   UNL     1       2.070   5.693  -1.227  0.00  0.00    +0.004 A 
ATOM     14  C   UNL     1       1.990   7.055  -1.445  0.00  0.00    +0.004 A 
ATOM     15  C   UNL     1       2.283   7.938  -0.422  0.00  0.00    -0.042 A 
ATOM     16  C   UNL     1       2.651   7.457   0.821  0.00  0.00    +0.004 A 
ATOM     17  C   UNL     1       2.727   6.094   1.040  0.00  0.00    +0.004 A 
BRANCH  15  18
ATOM     18  C   UNL     1       2.199   9.423  -0.660  0.00  0.00    -0.013 C 
ATOM     19  C   UNL     1       3.569  10.058  -0.410  0.00  0.00    +0.015 C 
ATOM     20  C   UNL     1       1.773   9.684  -2.107  0.00  0.00    +0.015 C 
ATOM     21  C   UNL     1       1.171  10.036   0.293  0.00  0.00    +0.015 C 
ENDBRANCH  15  18
ENDBRANCH  10  12
BRANCH   6  22
ATOM     22  O   UNL     1       5.354   4.729  -0.584  0.00  0.00    -0.491 OA
ATOM     23  H   UNL     1       6.258   4.835  -0.998  0.00  0.00    +0.294 HD
ENDBRANCH   6  22
BRANCH  11  24
ATOM     24  C   UNL     1       0.194   3.495   1.103  0.00  0.00    +0.314 C 
ATOM     25  O   UNL     1       0.571   4.223   1.991  0.00  0.00    -0.250 OA
BRANCH  24  26
ATOM     26  O   UNL     1      -1.073   3.052   1.092  0.00  0.00    -0.460 OA
BRANCH  26  27
ATOM     27  C   UNL     1      -1.933   3.486   2.178  0.00  0.00    +0.259 C 
BRANCH  27  28
ATOM     28  C   UNL     1      -3.307   2.893   1.999  0.00  0.00    +0.006 C 
ATOM     29  C   UNL     1      -3.929   2.362   3.022  0.00  0.00    +0.007 C 
ENDBRANCH  27  28
ENDBRANCH  26  27
ENDBRANCH  24  26
ENDBRANCH  11  24
BRANCH   2  30
ATOM     30  O   UNL     1      -0.011   0.963   0.007  0.00  0.00    -0.388 OA
ATOM     31  H   UNL     1       0.002  -0.004   0.002  0.00  0.00    +0.210 HD
ENDBRANCH   2  30
TORSDOF 8
