REMARK  Name = ZINC39409720
REMARK  3 active torsions:
REMARK  status: ('A' for Active; 'I' for Inactive)
REMARK    1  A    between atoms: C_1  and  C_2
REMARK    2  A    between atoms: C_12  and  S_14
REMARK    3  A    between atoms: S_14  and  C_15
REMARK                            x       y       z     vdW  Elec       q    Type
REMARK                         _______ _______ _______ _____ _____    ______ ____
ROOT
ATOM      1  C   UNL     1      -0.018   1.503   0.010  0.00  0.00    +0.041 C 
ATOM      2  C   UNL     1       0.002  -0.004   0.002  0.00  0.00    -0.042 C 
ATOM      3  C   UNL     1       0.006  -0.705  -1.164  0.00  0.00    +0.000 A 
ATOM      4  C   UNL     1      -0.010  -0.012  -2.453  0.00  0.00    +0.059 A 
ATOM      5  C   UNL     1      -0.007  -0.741  -3.600  0.00  0.00    +0.167 A 
ATOM      6  C   UNL     1       0.013  -2.152  -3.568  0.00  0.00    +0.168 A 
ATOM      7  C   UNL     1       0.030  -2.852  -2.380  0.00  0.00    +0.073 A 
ATOM      8  C   UNL     1       0.027  -2.179  -1.151  0.00  0.00    +0.044 A 
ATOM      9  N   UNL     1       0.042  -2.875  -0.012  0.00  0.00    -0.284 N 
ATOM     10  C   UNL     1       0.040  -2.307   1.181  0.00  0.00    +0.235 C 
ATOM     11  O   UNL     1       0.054  -2.993   2.185  0.00  0.00    -0.274 OA
ATOM     12  C   UNL     1       0.025  -0.799   1.293  0.00  0.00    +0.166 C 
ATOM     13  O   UNL     1       0.013  -2.606  -4.854  0.00  0.00    -0.453 OA
ATOM     14  C   UNL     1      -0.428  -1.497  -5.658  0.00  0.00    +0.466 C 
ATOM     15  O   UNL     1      -0.021  -0.340  -4.907  0.00  0.00    -0.453 OA
ATOM     16  H   UNL     1       0.055  -3.844  -0.062  0.00  0.00    +0.155 HD
ENDROOT
BRANCH  12  17
ATOM     17  S   UNL     1      -1.437  -0.332   2.260  0.00  0.00    -0.071 S 
BRANCH  17  18
ATOM     18  C   UNL     1      -1.233  -1.193   3.783  0.00  0.00    +0.168 A 
ATOM     19  N   UNL     1      -0.224  -1.976   4.077  0.00  0.00    -0.222 NA
ATOM     20  C   UNL     1      -0.383  -2.475   5.330  0.00  0.00    +0.090 A 
ATOM     21  C   UNL     1       0.377  -3.339   6.123  0.00  0.00    +0.030 A 
ATOM     22  C   UNL     1      -0.058  -3.668   7.387  0.00  0.00    +0.002 A 
ATOM     23  C   UNL     1      -1.246  -3.149   7.880  0.00  0.00    +0.002 A 
ATOM     24  C   UNL     1      -2.009  -2.295   7.109  0.00  0.00    +0.028 A 
ATOM     25  C   UNL     1      -1.585  -1.952   5.834  0.00  0.00    +0.067 A 
ATOM     26  N   UNL     1      -2.101  -1.140   4.838  0.00  0.00    -0.333 N 
ATOM     27  H   UNL     1      -2.925  -0.630   4.879  0.00  0.00    +0.168 HD
ENDBRANCH  17  18
ENDBRANCH  12  17
TORSDOF 2
