REMARK  Name = ZINC38117548
REMARK  6 active torsions:
REMARK  status: ('A' for Active; 'I' for Inactive)
REMARK    1  A    between atoms: C_1  and  C_2
REMARK    2  A    between atoms: C_2  and  C_3
REMARK    3  A    between atoms: C_2  and  C_5
REMARK    4  A    between atoms: C_2  and  N_14
REMARK    5  A    between atoms: C_3  and  O_4
REMARK    6  A    between atoms: N_14  and  C_15
REMARK                            x       y       z     vdW  Elec       q    Type
REMARK                         _______ _______ _______ _____ _____    ______ ____
ROOT
ATOM      1  C   UNL     1       0.367   1.285   0.721  0.00  0.00    +0.039 C 
ATOM      2  C   UNL     1      -0.000  -0.059   0.088  0.00  0.00    +0.078 C 
ENDROOT
BRANCH   2   3
ATOM      3  C   UNL     1       0.839  -0.281  -1.143  0.00  0.00    -0.019 A 
ATOM      4  C   UNL     1       0.301  -0.933  -2.237  0.00  0.00    +0.009 A 
ATOM      5  C   UNL     1       1.067  -1.138  -3.369  0.00  0.00    +0.050 A 
ATOM      6  C   UNL     1       2.378  -0.691  -3.410  0.00  0.00    +0.166 A 
ATOM      7  C   UNL     1       2.920  -0.034  -2.308  0.00  0.00    +0.167 A 
ATOM      8  C   UNL     1       2.144   0.173  -1.179  0.00  0.00    +0.055 A 
ATOM      9  O   UNL     1       4.212   0.303  -2.594  0.00  0.00    -0.453 OA
ATOM     10  C   UNL     1       4.582  -0.512  -3.722  0.00  0.00    +0.466 C 
ATOM     11  O   UNL     1       3.329  -0.765  -4.386  0.00  0.00    -0.453 OA
ENDBRANCH   2   3
BRANCH   2  12
ATOM     12  N   UNL     1      -1.418  -0.053  -0.282  0.00  0.00    -0.332 N 
ATOM     13  H   UNL     1      -2.027  -0.693   0.120  0.00  0.00    +0.147 HD
BRANCH  12  14
ATOM     14  C   UNL     1      -1.893   0.874  -1.213  0.00  0.00    +0.042 A 
ATOM     15  C   UNL     1      -1.008   1.723  -1.864  0.00  0.00    +0.024 A 
ATOM     16  C   UNL     1      -1.480   2.638  -2.784  0.00  0.00    +0.002 A 
ATOM     17  C   UNL     1      -2.834   2.710  -3.058  0.00  0.00    +0.001 A 
ATOM     18  C   UNL     1      -3.719   1.867  -2.412  0.00  0.00    +0.017 A 
ATOM     19  C   UNL     1      -3.252   0.945  -1.494  0.00  0.00    +0.039 A 
ATOM     20 BR   UNL     1      -4.462  -0.213  -0.615  0.00  0.00    -0.048 Br
ENDBRANCH  12  14
ENDBRANCH   2  12
BRANCH   2  21
ATOM     21  C   UNL     1       0.260  -1.184   1.092  0.00  0.00    +0.186 C 
BRANCH  21  22
ATOM     22  O   UNL     1      -0.130  -2.433   0.519  0.00  0.00    -0.393 OA
ATOM     23  H   UNL     1       0.008  -3.193   1.101  0.00  0.00    +0.210 HD
ENDBRANCH  21  22
ENDBRANCH   2  21
TORSDOF 5
