REMARK  Name = ZINC22066299
REMARK  10 active torsions:
REMARK  status: ('A' for Active; 'I' for Inactive)
REMARK    1  A    between atoms: C_3  and  O_34
REMARK    2  A    between atoms: C_6  and  C_7
REMARK    3  A    between atoms: C_8  and  C_9
REMARK    4  A    between atoms: C_11  and  O_33
REMARK    5  A    between atoms: C_13  and  O_15
REMARK    6  A    between atoms: O_15  and  C_16
REMARK    7  A    between atoms: C_18  and  O_32
REMARK    8  A    between atoms: C_20  and  O_31
REMARK    9  A    between atoms: C_22  and  O_30
REMARK   10  A    between atoms: C_24  and  C_27
REMARK                            x       y       z     vdW  Elec       q    Type
REMARK                         _______ _______ _______ _____ _____    ______ ____
ROOT
ATOM      1  C   UNL     1       3.286   2.269   1.137  0.00  0.00    -0.018 A 
ATOM      2  C   UNL     1       1.952   1.865   1.049  0.00  0.00    +0.053 A 
ATOM      3  C   UNL     1       1.427   1.483  -0.174  0.00  0.00    +0.121 A 
ATOM      4  C   UNL     1       2.220   1.510  -1.312  0.00  0.00    +0.091 A 
ATOM      5  C   UNL     1       3.544   1.917  -1.230  0.00  0.00    +0.128 A 
ATOM      6  C   UNL     1       4.080   2.296  -0.011  0.00  0.00    +0.054 A 
ENDROOT
BRANCH   1   8
ATOM      7  C   UNL     1       4.742   3.676   2.500  0.00  0.00    +0.008 C 
ATOM      8  C   UNL     1       3.852   2.672   2.437  0.00  0.00    +0.009 C 
BRANCH   7  14
ATOM      9  C   UNL     1       6.290   4.963   1.039  0.00  0.00    +0.011 A 
ATOM     10  C   UNL     1       6.525   5.739  -0.075  0.00  0.00    +0.046 A 
ATOM     11  C   UNL     1       5.477   6.079  -0.921  0.00  0.00    +0.117 A 
ATOM     12  C   UNL     1       4.189   5.635  -0.650  0.00  0.00    +0.046 A 
ATOM     13  C   UNL     1       3.945   4.855   0.459  0.00  0.00    +0.011 A 
ATOM     14  C   UNL     1       4.997   4.510   1.312  0.00  0.00    -0.025 A 
BRANCH  11  15
ATOM     15  O   UNL     1       5.712   6.848  -2.016  0.00  0.00    -0.507 OA
ATOM     16  H   UNL     1       4.883   7.118  -2.687  0.00  0.00    +0.292 HD
ENDBRANCH  11  15
ENDBRANCH   7  14
ENDBRANCH   1   8
BRANCH   3  17
ATOM     17  O   UNL     1       0.130   1.085  -0.260  0.00  0.00    -0.507 OA
ATOM     18  H   UNL     1      -0.288   0.781  -1.231  0.00  0.00    +0.292 HD
ENDBRANCH   3  17
BRANCH   5  19
ATOM     19  O   UNL     1       4.316   1.942  -2.349  0.00  0.00    -0.461 OA
BRANCH  19  20
ATOM     20  C   UNL     1       3.699   1.537  -3.572  0.00  0.00    +0.340 C 
ATOM     21  C   UNL     1       4.677   1.749  -4.731  0.00  0.00    +0.214 C 
ATOM     22  C   UNL     1       5.909   0.865  -4.518  0.00  0.00    +0.180 C 
ATOM     23  C   UNL     1       5.461  -0.595  -4.394  0.00  0.00    +0.186 C 
ATOM     24  C   UNL     1       4.453  -0.716  -3.248  0.00  0.00    +0.266 C 
ATOM     25  O   UNL     1       3.347   0.154  -3.494  0.00  0.00    -0.322 OA
BRANCH  24  26
ATOM     26  C   UNL     1       3.963  -2.138  -3.158  0.00  0.00    +0.387 C 
ATOM     27  O   UNL     1       2.803  -2.393  -3.379  0.00  0.00    -0.243 OA
ATOM     28  O   UNL     1       4.816  -3.123  -2.832  0.00  0.00    -0.243 OA
ENDBRANCH  24  26
BRANCH  23  29
ATOM     29  O   UNL     1       4.848  -1.011  -5.615  0.00  0.00    -0.386 OA
ATOM     30  H   UNL     1       4.461  -2.036  -5.715  0.00  0.00    +0.210 HD
ENDBRANCH  23  29
BRANCH  22  31
ATOM     31  O   UNL     1       6.581   1.262  -3.320  0.00  0.00    -0.386 OA
ATOM     32  H   UNL     1       7.493   0.737  -3.002  0.00  0.00    +0.210 HD
ENDBRANCH  22  31
BRANCH  21  33
ATOM     33  O   UNL     1       5.075   3.120  -4.776  0.00  0.00    -0.383 OA
ATOM     34  H   UNL     1       5.780   3.464  -5.547  0.00  0.00    +0.210 HD
ENDBRANCH  21  33
ENDBRANCH  19  20
ENDBRANCH   5  19
TORSDOF 10
