REMARK  Name = ZINC33599085
REMARK  10 active torsions:
REMARK  status: ('A' for Active; 'I' for Inactive)
REMARK    1  A    between atoms: C_1  and  C_2
REMARK    2  A    between atoms: C_7  and  C_8
REMARK    3  A    between atoms: N_16  and  C_19
REMARK    4  A    between atoms: C_19  and  C_20
REMARK    5  A    between atoms: C_19  and  C_21
REMARK    6  A    between atoms: C_19  and  C_22
REMARK    7  A    between atoms: C_23  and  C_25
REMARK    8  A    between atoms: C_23  and  C_33
REMARK    9  A    between atoms: C_25  and  C_26
REMARK   10  A    between atoms: C_29  and  O_32
REMARK                            x       y       z     vdW  Elec       q    Type
REMARK                         _______ _______ _______ _____ _____    ______ ____
ROOT
ATOM      1  C   UNL     1       0.058  -0.146   2.604  0.00  0.00    -0.026 C 
ATOM      2  C   UNL     1      -1.355  -0.037   3.169  0.00  0.00    +0.077 C 
ATOM      3  C   UNL     1      -0.947   0.184   4.675  0.00  0.00    +0.086 C 
ATOM      4  C   UNL     1      -2.165   0.712   5.240  0.00  0.00    +0.225 C 
ATOM      5  O   UNL     1      -2.592   0.542   6.362  0.00  0.00    -0.275 OA
ATOM      6  N   UNL     1      -2.734   1.448   4.231  0.00  0.00    -0.236 N 
ATOM      7  C   UNL     1      -2.160   1.212   2.999  0.00  0.00    +0.225 C 
ATOM      8  O   UNL     1      -2.273   1.875   1.991  0.00  0.00    -0.275 OA
ATOM      9  C   UNL     1       0.043  -0.872   4.920  0.00  0.00    +0.052 C 
ATOM     10  N   UNL     1       0.758  -1.024   3.598  0.00  0.00    +0.396 N 
ATOM     11  H   UNL     1       0.708  -1.987   3.299  0.00  0.00    -0.083 HD
ATOM     12  H   UNL     1       1.723  -0.741   3.684  0.00  0.00    -0.083 HD
ENDROOT
BRANCH   1  19
ATOM     13  C   UNL     1       2.463  -0.220   1.005  0.00  0.00    +0.044 C 
ATOM     14  C   UNL     1       1.189  -0.828   0.478  0.00  0.00    -0.049 A 
ATOM     15  C   UNL     1       1.173  -1.426  -0.768  0.00  0.00    +0.003 A 
ATOM     16  C   UNL     1       0.004  -1.984  -1.252  0.00  0.00    +0.000 A 
ATOM     17  C   UNL     1      -1.148  -1.945  -0.489  0.00  0.00    +0.000 A 
ATOM     18  C   UNL     1      -1.131  -1.347   0.757  0.00  0.00    +0.002 A 
ATOM     19  C   UNL     1       0.038  -0.793   1.243  0.00  0.00    -0.058 A 
ENDBRANCH   1  19
BRANCH   6  20
ATOM     20  C   UNL     1      -3.847   2.380   4.435  0.00  0.00    +0.036 C 
ATOM     21  C   UNL     1      -3.426   3.468   5.425  0.00  0.00    +0.031 C 
ATOM     22  C   UNL     1      -4.224   3.023   3.100  0.00  0.00    +0.031 C 
ATOM     23  C   UNL     1      -5.052   1.620   4.994  0.00  0.00    +0.031 C 
ENDBRANCH   6  20
BRANCH   9  24
ATOM     24  C   UNL     1      -0.643  -2.151   5.325  0.00  0.00    +0.347 C 
ATOM     25  O   UNL     1      -0.501  -3.158   4.653  0.00  0.00    -0.248 OA
ATOM     26  O   UNL     1      -1.339  -2.179   6.326  0.00  0.00    -0.248 OA
ENDBRANCH   9  24
BRANCH   9  27
ATOM     27  C   UNL     1       1.036  -0.433   5.998  0.00  0.00    +0.035 C 
BRANCH  27  28
ATOM     28  C   UNL     1       2.112  -1.478   6.146  0.00  0.00    -0.048 A 
ATOM     29  C   UNL     1       1.946  -2.518   7.042  0.00  0.00    +0.007 A 
ATOM     30  C   UNL     1       2.930  -3.477   7.179  0.00  0.00    +0.045 A 
ATOM     31  C   UNL     1       4.087  -3.396   6.418  0.00  0.00    +0.117 A 
ATOM     32  C   UNL     1       4.251  -2.352   5.519  0.00  0.00    +0.045 A 
ATOM     33  C   UNL     1       3.261  -1.398   5.381  0.00  0.00    +0.007 A 
BRANCH  31  34
ATOM     34  O   UNL     1       5.058  -4.338   6.551  0.00  0.00    -0.507 OA
ATOM     35  H   UNL     1       4.956  -5.094   5.958  0.00  0.00    +0.292 HD
ENDBRANCH  31  34
ENDBRANCH  27  28
ENDBRANCH   9  27
TORSDOF 6
