REMARK  Name = ZINC02880897
REMARK  8 active torsions:
REMARK  status: ('A' for Active; 'I' for Inactive)
REMARK    1  A    between atoms: C_1  and  C_2
REMARK    2  A    between atoms: C_3  and  C_20
REMARK    3  A    between atoms: C_4  and  N_19
REMARK    4  A    between atoms: C_6  and  C_7
REMARK    5  A    between atoms: N_9  and  C_10
REMARK    6  A    between atoms: C_14  and  N_16
REMARK    7  A    between atoms: C_20  and  O_22
REMARK    8  A    between atoms: O_22  and  C_23
REMARK                            x       y       z     vdW  Elec       q    Type
REMARK                         _______ _______ _______ _____ _____    ______ ____
ROOT
ATOM      1  C   UNL     1      -0.012   1.090   0.007  0.00  0.00    +0.046 C 
ATOM      2  C   UNL     1      -0.719   1.566   1.250  0.00  0.00    -0.015 A 
ATOM      3  C   UNL     1      -0.023   1.800   2.427  0.00  0.00    +0.090 A 
ATOM      4  C   UNL     1      -0.753   2.241   3.538  0.00  0.00    +0.078 A 
ATOM      5  S   UNL     1      -2.374   2.321   2.929  0.00  0.00    -0.068 S 
ATOM      6  C   UNL     1      -2.069   1.789   1.255  0.00  0.00    +0.080 A 
ENDROOT
BRANCH   6   7
ATOM      7  C   UNL     1      -3.025   1.628   0.159  0.00  0.00    +0.255 C 
ATOM      8  O   UNL     1      -2.642   1.249  -0.933  0.00  0.00    -0.269 OA
ATOM      9  N   UNL     1      -4.330   1.900   0.358  0.00  0.00    -0.281 N 
ATOM     10  H   UNL     1      -4.647   2.137   1.244  0.00  0.00    +0.155 HD
BRANCH   9  11
ATOM     11  C   UNL     1      -5.228   1.839  -0.712  0.00  0.00    +0.036 A 
ATOM     12  C   UNL     1      -5.058   0.889  -1.711  0.00  0.00    +0.023 A 
ATOM     13  C   UNL     1      -5.947   0.832  -2.766  0.00  0.00    +0.004 A 
ATOM     14  C   UNL     1      -7.005   1.720  -2.830  0.00  0.00    +0.033 A 
ATOM     15  C   UNL     1      -7.178   2.667  -1.837  0.00  0.00    +0.128 A 
ATOM     16  C   UNL     1      -6.295   2.726  -0.776  0.00  0.00    +0.056 A 
BRANCH  15  17
ATOM     17  N   UNL     1      -8.312   3.615  -1.908  0.00  0.00    +0.056 N 
ATOM     18  O   UNL     1      -9.094   3.560  -2.841  0.00  0.00    -0.126 OA
ATOM     19  O   UNL     1      -8.465   4.449  -1.034  0.00  0.00    -0.126 OA
ENDBRANCH  15  17
ENDBRANCH   9  11
ENDBRANCH   6   7
BRANCH   4  20
ATOM     20  N   UNL     1      -0.297   2.538   4.801  0.00  0.00    -0.352 N 
ATOM     21  H   UNL     1       0.646   2.449   5.009  0.00  0.00    +0.143 HD
ATOM     22  H   UNL     1      -0.918   2.837   5.483  0.00  0.00    +0.143 HD
ENDBRANCH   4  20
BRANCH   3  23
ATOM     23  C   UNL     1       1.426   1.591   2.505  0.00  0.00    +0.342 C 
ATOM     24  O   UNL     1       2.186   2.504   2.245  0.00  0.00    -0.245 OA
BRANCH  23  25
ATOM     25  O   UNL     1       1.915   0.388   2.866  0.00  0.00    -0.464 OA
ATOM     26  C   UNL     1       3.360   0.254   2.923  0.00  0.00    +0.280 C 
ENDBRANCH  23  25
ENDBRANCH   3  23
TORSDOF 6
