REMARK  Name = ZINC49605871
REMARK  10 active torsions:
REMARK  status: ('A' for Active; 'I' for Inactive)
REMARK    1  A    between atoms: C_1  and  C_2
REMARK    2  A    between atoms: C_2  and  C_4
REMARK    3  A    between atoms: C_2  and  N_14
REMARK    4  A    between atoms: C_7  and  S_10
REMARK    5  A    between atoms: S_10  and  N_13
REMARK    6  A    between atoms: N_14  and  C_15
REMARK    7  A    between atoms: C_15  and  C_16
REMARK    8  A    between atoms: N_18  and  C_19
REMARK    9  A    between atoms: N_18  and  C_25
REMARK   10  A    between atoms: C_19  and  C_20
REMARK                            x       y       z     vdW  Elec       q    Type
REMARK                         _______ _______ _______ _____ _____    ______ ____
ROOT
ATOM      1  N   UNL     1       0.598  -0.587  -1.193  0.00  0.00    +0.389 N 
ATOM      2  H   UNL     1       1.521  -0.182  -1.229  0.00  0.00    -0.084 HD
ATOM      3  H   UNL     1       0.672  -1.593  -1.162  0.00  0.00    -0.084 HD
ENDROOT
BRANCH   1   5
ATOM      4  C   UNL     1      -0.103   1.418   0.025  0.00  0.00    -0.009 C 
ATOM      5  C   UNL     1      -0.100  -0.112   0.010  0.00  0.00    -0.043 C 
BRANCH   5   6
ATOM      6  C   UNL     1       0.609  -0.625   1.237  0.00  0.00    -0.062 A 
ATOM      7  C   UNL     1       1.990  -0.651   1.277  0.00  0.00    +0.004 A 
ATOM      8  C   UNL     1       2.640  -1.121   2.403  0.00  0.00    +0.029 A 
ATOM      9  C   UNL     1       1.908  -1.565   3.489  0.00  0.00    +0.105 A 
ATOM     10  C   UNL     1       0.527  -1.538   3.448  0.00  0.00    +0.029 A 
ATOM     11  C   UNL     1      -0.123  -1.064   2.324  0.00  0.00    +0.004 A 
BRANCH   9  12
ATOM     12  S   UNL     1       2.736  -2.166   4.923  0.00  0.00    +0.056 S 
ATOM     13  O   UNL     1       1.824  -3.030   5.587  0.00  0.00    -0.153 OA
ATOM     14  O   UNL     1       4.022  -2.597   4.499  0.00  0.00    -0.153 OA
BRANCH  12  15
ATOM     15  N   UNL     1       2.978  -0.872   5.927  0.00  0.00    -0.204 NA
ATOM     16  H   UNL     1       2.673   0.010   5.663  0.00  0.00    +0.144 HD
ATOM     17  H   UNL     1       3.424  -0.996   6.780  0.00  0.00    +0.144 HD
ENDBRANCH  12  15
ENDBRANCH   9  12
ENDBRANCH   5   6
ENDBRANCH   1   5
BRANCH   1  18
ATOM     18  C   UNL     1      -0.159  -0.188  -2.387  0.00  0.00    +0.016 C 
BRANCH  18  19
ATOM     19  C   UNL     1       0.556  -0.676  -3.621  0.00  0.00    +0.199 C 
ATOM     20  O   UNL     1       1.596  -1.292  -3.515  0.00  0.00    -0.278 OA
ATOM     21  N   UNL     1       0.041  -0.429  -4.841  0.00  0.00    -0.291 N 
BRANCH  21  22
ATOM     22  C   UNL     1       0.674  -0.998  -6.033  0.00  0.00    +0.099 C 
ATOM     23  C   UNL     1       0.720  -2.530  -5.915  0.00  0.00    +0.047 C 
ATOM     24  C   UNL     1       1.660  -3.114  -6.998  0.00  0.00    +0.168 C 
ATOM     25  S   UNL     1       2.855  -1.745  -7.277  0.00  0.00    -0.029 S 
ATOM     26  O   UNL     1       2.735  -1.293  -8.620  0.00  0.00    -0.174 OA
ATOM     27  O   UNL     1       4.128  -2.134  -6.782  0.00  0.00    -0.174 OA
ATOM     28  C   UNL     1       2.135  -0.477  -6.151  0.00  0.00    +0.188 C 
ENDBRANCH  21  22
BRANCH  21  29
ATOM     29  C   UNL     1      -1.153   0.410  -4.975  0.00  0.00    +0.182 C 
BRANCH  29  30
ATOM     30  C   UNL     1      -0.740   1.850  -5.135  0.00  0.00    +0.122 A 
ATOM     31  C   UNL     1      -0.498   2.475  -6.301  0.00  0.00    +0.046 A 
ATOM     32  C   UNL     1      -0.143   3.807  -5.987  0.00  0.00    +0.041 A 
ATOM     33  C   UNL     1      -0.188   3.916  -4.647  0.00  0.00    +0.195 A 
ATOM     34  O   UNL     1      -0.556   2.730  -4.136  0.00  0.00    -0.466 OA
ENDBRANCH  29  30
ENDBRANCH  21  29
ENDBRANCH  18  19
ENDBRANCH   1  18
TORSDOF 9
