REMARK  Name = ZINC58040526
REMARK  6 active torsions:
REMARK  status: ('A' for Active; 'I' for Inactive)
REMARK    1  A    between atoms: C_1  and  C_2
REMARK    2  A    between atoms: C_5  and  O_9
REMARK    3  A    between atoms: C_6  and  C_8
REMARK    4  A    between atoms: O_9  and  C_10
REMARK    5  A    between atoms: C_10  and  C_11
REMARK    6  A    between atoms: C_14  and  N_17
REMARK                            x       y       z     vdW  Elec       q    Type
REMARK                         _______ _______ _______ _____ _____    ______ ____
ROOT
ATOM      1  C   UNL     1       0.058  -4.771  -1.298  0.00  0.00    +0.305 C 
ENDROOT
BRANCH   1   2
ATOM      2  C   UNL     1       0.079  -6.266  -1.108  0.00  0.00    +0.167 A 
ATOM      3  N   UNL     1       1.240  -6.885  -1.028  0.00  0.00    -0.235 NA
ATOM      4  C   UNL     1       1.300  -8.195  -0.863  0.00  0.00    +0.137 A 
ATOM      5  C   UNL     1       0.115  -8.921  -0.772  0.00  0.00    +0.061 A 
ATOM      6  C   UNL     1      -1.090  -8.228  -0.861  0.00  0.00    +0.137 A 
ATOM      7  N   UNL     1      -1.065  -6.915  -1.022  0.00  0.00    -0.235 NA
BRANCH   5   8
ATOM      8  N   UNL     1       0.134 -10.307  -0.597  0.00  0.00    -0.356 N 
ATOM      9  H   UNL     1       0.980 -10.777  -0.537  0.00  0.00    +0.142 HD
ATOM     10  H   UNL     1      -0.700 -10.799  -0.536  0.00  0.00    +0.142 HD
ENDBRANCH   5   8
ENDBRANCH   1   2
BRANCH   1  11
ATOM     11  O   UNL     1       0.057  -4.129  -0.021  0.00  0.00    -0.484 OA
BRANCH  11  16
ATOM     12  C   UNL     1      -0.018   1.503   0.010  0.00  0.00    +0.044 C 
ATOM     13  C   UNL     1       0.002  -0.004   0.002  0.00  0.00    -0.050 A 
ATOM     14  C   UNL     1       0.006  -0.688  -1.200  0.00  0.00    +0.007 A 
ATOM     15  C   UNL     1       0.024  -2.069  -1.210  0.00  0.00    +0.046 A 
ATOM     16  C   UNL     1       0.039  -2.770  -0.013  0.00  0.00    +0.124 A 
ATOM     17  C   UNL     1       0.036  -2.082   1.191  0.00  0.00    -0.009 A 
ATOM     18  C   UNL     1       0.023  -0.701   1.196  0.00  0.00    +0.010 A 
ATOM     19  C   UNL     1       0.052  -2.841   2.493  0.00  0.00    +0.047 C 
ENDBRANCH  11  16
ENDBRANCH   1  11
TORSDOF 4
