REMARK  Name = ZINC12301717
REMARK  6 active torsions:
REMARK  status: ('A' for Active; 'I' for Inactive)
REMARK    1  A    between atoms: C_1  and  C_2
REMARK    2  A    between atoms: C_4  and  C_10
REMARK    3  A    between atoms: C_7  and  O_8
REMARK    4  A    between atoms: O_8  and  C_9
REMARK    5  A    between atoms: C_24  and  C_25
REMARK    6  A    between atoms: C_24  and  N_52
REMARK                            x       y       z     vdW  Elec       q    Type
REMARK                         _______ _______ _______ _____ _____    ______ ____
ROOT
ATOM      1  C   UNL     1       3.732  -3.435  -0.047  0.00  0.00    +0.011 C 
ATOM      2  C   UNL     1       2.957  -2.137  -0.035  0.00  0.00    +0.011 A 
ATOM      3  C   UNL     1       1.609  -2.088  -0.026  0.00  0.00    -0.022 A 
ATOM      4  C   UNL     1       1.222  -0.683  -0.013  0.00  0.00    +0.003 A 
ATOM      5  C   UNL     1       0.002  -0.004   0.002  0.00  0.00    +0.010 A 
ATOM      6  C   UNL     1      -0.016   1.362   0.009  0.00  0.00    +0.001 A 
ATOM      7  C   UNL     1       1.169   2.083   0.002  0.00  0.00    +0.002 A 
ATOM      8  C   UNL     1       2.385   1.435  -0.012  0.00  0.00    +0.026 A 
ATOM      9  C   UNL     1       2.428   0.045  -0.020  0.00  0.00    +0.047 A 
ATOM     10  N   UNL     1       3.460  -0.869  -0.032  0.00  0.00    -0.359 N 
ATOM     11  H   UNL     1       4.403  -0.644  -0.039  0.00  0.00    +0.166 HD
ATOM     12  C   UNL     1       0.726  -3.310  -0.032  0.00  0.00    +0.019 C 
ATOM     13  C   UNL     1       1.588  -4.513  -0.442  0.00  0.00    -0.072 C 
ATOM     14  N   UNL     1       2.816  -4.519   0.385  0.00  0.00    +0.393 N 
ATOM     15  H   UNL     1       2.557  -4.363   1.366  0.00  0.00    -0.080 HD
ENDROOT
BRANCH   1  19
ATOM     16  C   UNL     1       8.608  -2.756   0.844  0.00  0.00    +0.047 C 
ATOM     17  C   UNL     1       7.214  -3.023   1.350  0.00  0.00    -0.009 A 
ATOM     18  C   UNL     1       6.160  -3.108   0.460  0.00  0.00    +0.009 A 
ATOM     19  C   UNL     1       4.880  -3.348   0.925  0.00  0.00    -0.055 A 
ATOM     20  C   UNL     1       4.653  -3.515   2.278  0.00  0.00    +0.006 A 
ATOM     21  C   UNL     1       5.705  -3.437   3.171  0.00  0.00    +0.046 A 
ATOM     22  C   UNL     1       6.989  -3.191   2.708  0.00  0.00    +0.123 A 
BRANCH  22  23
ATOM     23  O   UNL     1       8.025  -3.113   3.584  0.00  0.00    -0.495 OA
ATOM     24  C   UNL     1       7.719  -3.295   4.968  0.00  0.00    +0.277 C 
ENDBRANCH  22  23
ENDBRANCH   1  19
BRANCH  14  25
ATOM     25  C   UNL     1       3.495  -5.826   0.269  0.00  0.00    -0.002 C 
BRANCH  25  26
ATOM     26  C   UNL     1       3.975  -6.053  -1.141  0.00  0.00    +0.090 A 
ATOM     27  N   UNL     1       5.214  -5.782  -1.604  0.00  0.00    -0.350 N 
ATOM     28  H   UNL     1       5.973  -5.398  -1.079  0.00  0.00    +0.166 HD
ATOM     29  C   UNL     1       5.238  -6.133  -2.928  0.00  0.00    +0.103 A 
ATOM     30  C   UNL     1       4.013  -6.605  -3.227  0.00  0.00    +0.130 A 
ATOM     31  N   UNL     1       3.263  -6.549  -2.116  0.00  0.00    -0.243 NA
ENDBRANCH  25  26
ENDBRANCH  14  25
TORSDOF 4
