REMARK  Name = ZINC06952521
REMARK  11 active torsions:
REMARK  status: ('A' for Active; 'I' for Inactive)
REMARK    1  A    between atoms: C_1  and  C_2
REMARK    2  A    between atoms: C_3  and  C_27
REMARK    3  A    between atoms: C_4  and  C_17
REMARK    4  A    between atoms: C_11  and  S_15
REMARK    5  A    between atoms: S_15  and  C_16
REMARK    6  A    between atoms: C_20  and  O_25
REMARK    7  A    between atoms: C_21  and  O_23
REMARK    8  A    between atoms: O_23  and  C_24
REMARK    9  A    between atoms: O_25  and  C_26
REMARK   10  A    between atoms: C_27  and  O_29
REMARK   11  A    between atoms: O_29  and  C_30
REMARK                            x       y       z     vdW  Elec       q    Type
REMARK                         _______ _______ _______ _____ _____    ______ ____
ROOT
ATOM      1  C   UNL     1       2.527  -3.706   6.207  0.00  0.00    +0.061 C 
ATOM      2  C   UNL     1       2.619  -2.206   6.092  0.00  0.00    +0.017 C 
ATOM      3  C   UNL     1       1.512  -1.464   6.253  0.00  0.00    +0.065 C 
ATOM      4  C   UNL     1       1.532   0.032   6.141  0.00  0.00    +0.096 C 
ATOM      5  C   UNL     1       2.935   0.559   6.235  0.00  0.00    +0.069 A 
ATOM      6  C   UNL     1       3.161   1.916   6.492  0.00  0.00    +0.258 A 
ATOM      7  O   UNL     1       2.225   2.685   6.643  0.00  0.00    -0.267 OA
ATOM      8  N   UNL     1       4.434   2.360   6.568  0.00  0.00    -0.302 N 
ATOM      9  H   UNL     1       4.610   3.297   6.747  0.00  0.00    +0.171 HD
ATOM     10  C   UNL     1       5.471   1.494   6.395  0.00  0.00    +0.171 A 
ATOM     11  N   UNL     1       5.264   0.215   6.154  0.00  0.00    -0.208 NA
ATOM     12  C   UNL     1       4.024  -0.280   6.071  0.00  0.00    +0.135 A 
ATOM     13  N   UNL     1       3.829  -1.628   5.827  0.00  0.00    -0.302 N 
ATOM     14  H   UNL     1       4.553  -2.164   5.466  0.00  0.00    +0.153 HD
ENDROOT
BRANCH   4  15
ATOM     15  C   UNL     1       0.938   0.439   4.817  0.00  0.00    -0.031 A 
ATOM     16  C   UNL     1       1.534   0.028   3.639  0.00  0.00    +0.008 A 
ATOM     17  C   UNL     1       0.990   0.393   2.422  0.00  0.00    +0.050 A 
ATOM     18  C   UNL     1      -0.148   1.182   2.380  0.00  0.00    +0.162 A 
ATOM     19  C   UNL     1      -0.748   1.595   3.566  0.00  0.00    +0.162 A 
ATOM     20  C   UNL     1      -0.201   1.221   4.783  0.00  0.00    +0.054 A 
BRANCH  19  21
ATOM     21  O   UNL     1      -1.869   2.365   3.531  0.00  0.00    -0.491 OA
ATOM     22  C   UNL     1      -2.430   2.752   4.787  0.00  0.00    +0.277 C 
ENDBRANCH  19  21
BRANCH  18  23
ATOM     23  O   UNL     1      -0.682   1.547   1.184  0.00  0.00    -0.491 OA
ATOM     24  C   UNL     1      -0.013   1.086   0.008  0.00  0.00    +0.277 C 
ENDBRANCH  18  23
ENDBRANCH   4  15
BRANCH  10  25
ATOM     25  S   UNL     1       7.124   2.096   6.495  0.00  0.00    -0.091 S 
ATOM     26  C   UNL     1       8.036   0.561   6.197  0.00  0.00    +0.093 C 
ENDBRANCH  10  25
BRANCH   3  27
ATOM     27  C   UNL     1       0.288  -2.114   6.535  0.00  0.00    +0.337 C 
ATOM     28  O   UNL     1       0.250  -3.326   6.629  0.00  0.00    -0.245 OA
BRANCH  27  29
ATOM     29  O   UNL     1      -0.838  -1.389   6.700  0.00  0.00    -0.465 OA
ATOM     30  C   UNL     1      -2.039  -2.110   6.983  0.00  0.00    +0.280 C 
ENDBRANCH  27  29
ENDBRANCH   3  27
TORSDOF 6
