REMARK  Name = ZINC39663914
REMARK  12 active torsions:
REMARK  status: ('A' for Active; 'I' for Inactive)
REMARK    1  A    between atoms: C_1  and  C_2
REMARK    2  A    between atoms: C_5  and  C_9
REMARK    3  A    between atoms: C_6  and  C_8
REMARK    4  A    between atoms: C_13  and  C_22
REMARK    5  A    between atoms: N_24  and  C_25
REMARK    6  A    between atoms: C_25  and  C_26
REMARK    7  A    between atoms: C_26  and  C_28
REMARK    8  A    between atoms: C_26  and  N_36
REMARK    9  A    between atoms: C_31  and  O_34
REMARK   10  A    between atoms: O_34  and  C_35
REMARK   11  A    between atoms: N_36  and  C_37
REMARK   12  A    between atoms: N_36  and  C_38
REMARK                            x       y       z     vdW  Elec       q    Type
REMARK                         _______ _______ _______ _____ _____    ______ ____
ROOT
ATOM      1  C   UNL     1      -0.041  -4.064  -0.271  0.00  0.00    +0.247 C 
ATOM      2  O   UNL     1       0.053  -4.790   0.699  0.00  0.00    -0.270 OA
ATOM      3  N   UNL     1      -0.214  -4.597  -1.497  0.00  0.00    -0.296 N 
ATOM      4  C   UNL     1      -0.239  -3.890  -2.799  0.00  0.00    +0.121 C 
ATOM      5  C   UNL     1       0.518  -4.827  -3.767  0.00  0.00    +0.100 C 
ATOM      6  C   UNL     1       0.393  -6.224  -3.138  0.00  0.00    -0.004 C 
ATOM      7  C   UNL     1      -0.416  -6.023  -1.848  0.00  0.00    +0.115 C 
ATOM      8  C   UNL     1      -0.347  -7.165  -4.085  0.00  0.00    -0.010 C 
ATOM      9  C   UNL     1      -0.408  -8.563  -3.463  0.00  0.00    -0.082 C 
ATOM     10  N   UNL     1       0.955  -9.053  -3.220  0.00  0.00    +0.379 N 
ATOM     11  C   UNL     1       1.627  -8.194  -2.237  0.00  0.00    -0.082 C 
ATOM     12  C   UNL     1       1.774  -6.781  -2.807  0.00  0.00    -0.010 C 
ATOM     13  H   UNL     1       0.913  -9.997  -2.867  0.00  0.00    -0.086 HD
ATOM     14  H   UNL     1       1.474  -9.042  -4.085  0.00  0.00    -0.086 HD
ENDROOT
BRANCH   1  19
ATOM     15  C   UNL     1       0.257   1.647   0.370  0.00  0.00    +0.044 C 
ATOM     16  C   UNL     1       0.179   0.151   0.202  0.00  0.00    -0.050 A 
ATOM     17  C   UNL     1      -0.854  -0.407  -0.530  0.00  0.00    +0.004 A 
ATOM     18  C   UNL     1      -0.931  -1.775  -0.688  0.00  0.00    +0.013 A 
ATOM     19  C   UNL     1       0.036  -2.597  -0.107  0.00  0.00    +0.040 A 
ATOM     20  C   UNL     1       1.075  -2.028   0.631  0.00  0.00    -0.038 A 
ATOM     21  C   UNL     1       1.143  -0.658   0.777  0.00  0.00    +0.007 A 
ATOM     22  C   UNL     1       2.123  -2.908   1.262  0.00  0.00    +0.044 C 
ENDBRANCH   1  19
BRANCH   5  23
ATOM     23  C   UNL     1       1.966  -4.421  -3.865  0.00  0.00    +0.218 C 
ATOM     24  O   UNL     1       2.493  -3.829  -2.947  0.00  0.00    -0.275 OA
ATOM     25  N   UNL     1       2.675  -4.715  -4.973  0.00  0.00    -0.316 N 
ATOM     26  H   UNL     1       2.253  -5.188  -5.707  0.00  0.00    +0.149 HD
BRANCH  25  27
ATOM     27  C   UNL     1       4.082  -4.321  -5.068  0.00  0.00    +0.093 C 
BRANCH  27  28
ATOM     28  C   UNL     1       4.616  -4.666  -6.460  0.00  0.00    -0.021 C 
BRANCH  28  29
ATOM     29  C   UNL     1       4.631  -6.162  -6.635  0.00  0.00    -0.059 A 
ATOM     30  C   UNL     1       5.656  -6.911  -6.088  0.00  0.00    +0.005 A 
ATOM     31  C   UNL     1       5.673  -8.283  -6.248  0.00  0.00    +0.046 A 
ATOM     32  C   UNL     1       4.659  -8.910  -6.958  0.00  0.00    +0.120 A 
ATOM     33  C   UNL     1       3.630  -8.156  -7.505  0.00  0.00    +0.046 A 
ATOM     34  C   UNL     1       3.616  -6.785  -7.338  0.00  0.00    +0.005 A 
BRANCH  32  35
ATOM     35  O   UNL     1       4.673 -10.259  -7.116  0.00  0.00    -0.495 OA
ATOM     36  C   UNL     1       3.596 -10.836  -7.859  0.00  0.00    +0.277 C 
ENDBRANCH  32  35
ENDBRANCH  28  29
BRANCH  28  37
ATOM     37  N   UNL     1       5.980  -4.142  -6.605  0.00  0.00    +0.382 N 
ATOM     38  C   UNL     1       6.463  -4.402  -7.968  0.00  0.00    -0.096 C 
ATOM     39  C   UNL     1       5.979  -2.694  -6.355  0.00  0.00    -0.096 C 
ATOM     40  H   UNL     1       6.588  -4.598  -5.941  0.00  0.00    -0.082 HD
ENDBRANCH  28  37
ENDBRANCH  27  28
ENDBRANCH  25  27
ENDBRANCH   5  23
TORSDOF 7
