REMARK  Name = ZINC64871146
REMARK  4 active torsions:
REMARK  status: ('A' for Active; 'I' for Inactive)
REMARK    1  A    between atoms: C_4  and  C_7
REMARK    2  A    between atoms: C_10  and  C_14
REMARK    3  A    between atoms: N_24  and  C_27
REMARK    4  A    between atoms: C_27  and  C_28
REMARK                            x       y       z     vdW  Elec       q    Type
REMARK                         _______ _______ _______ _____ _____    ______ ____
ROOT
ATOM      1  C   UNL     1       4.723  -3.058   2.583  0.00  0.00    -0.000 A 
ATOM      2  C   UNL     1       3.536  -3.062   3.300  0.00  0.00    +0.008 A 
ATOM      3  C   UNL     1       3.381  -3.893   4.389  0.00  0.00    +0.016 A 
ATOM      4  C   UNL     1       4.427  -4.732   4.766  0.00  0.00    +0.063 A 
ATOM      5  C   UNL     1       5.630  -4.727   4.040  0.00  0.00    +0.056 A 
ATOM      6  C   UNL     1       5.766  -3.888   2.944  0.00  0.00    +0.034 A 
ATOM      7  N   UNL     1       6.654  -5.573   4.439  0.00  0.00    -0.307 N 
ATOM      8  H   UNL     1       7.490  -5.581   3.947  0.00  0.00    +0.170 HD
ATOM      9  C   UNL     1       6.500  -6.383   5.500  0.00  0.00    +0.330 A 
ATOM     10  O   UNL     1       7.422  -7.109   5.817  0.00  0.00    -0.246 OA
ATOM     11  N   UNL     1       5.371  -6.424   6.226  0.00  0.00    -0.256 N 
ATOM     12  C   UNL     1       4.314  -5.641   5.922  0.00  0.00    +0.265 A 
ATOM     13  O   UNL     1       3.295  -5.684   6.583  0.00  0.00    -0.267 OA
ENDROOT
BRANCH   1  16
ATOM     14  C   UNL     1       5.228  -2.098  -0.916  0.00  0.00    +0.180 C 
ATOM     15  N   UNL     1       5.646  -2.810   0.315  0.00  0.00    -0.265 NA
ATOM     16  C   UNL     1       4.875  -2.143   1.396  0.00  0.00    +0.242 C 
ATOM     17  O   UNL     1       3.593  -1.884   0.780  0.00  0.00    -0.274 OA
ATOM     18  N   UNL     1       3.911  -1.500  -0.609  0.00  0.00    -0.177 NA
ATOM     19  H   UNL     1       5.418  -3.791   0.260  0.00  0.00    +0.127 HD
ATOM     20  H   UNL     1       3.937  -0.497  -0.711  0.00  0.00    +0.156 HD
BRANCH  14  24
ATOM     21  C   UNL     1       4.878  -4.849  -4.165  0.00  0.00    +0.000 A 
ATOM     22  C   UNL     1       4.064  -3.733  -4.114  0.00  0.00    +0.000 A 
ATOM     23  C   UNL     1       4.177  -2.843  -3.062  0.00  0.00    +0.006 A 
ATOM     24  C   UNL     1       5.104  -3.069  -2.062  0.00  0.00    -0.014 A 
ATOM     25  C   UNL     1       5.917  -4.186  -2.113  0.00  0.00    +0.006 A 
ATOM     26  C   UNL     1       5.805  -5.075  -3.165  0.00  0.00    +0.000 A 
ENDBRANCH  14  24
ENDBRANCH   1  16
BRANCH  11  27
ATOM     27  C   UNL     1       5.285  -7.336   7.369  0.00  0.00    +0.165 C 
BRANCH  27  28
ATOM     28  C   UNL     1       5.764  -6.631   8.611  0.00  0.00    -0.027 A 
ATOM     29  C   UNL     1       7.101  -6.680   8.961  0.00  0.00    +0.008 A 
ATOM     30  C   UNL     1       7.542  -6.034  10.100  0.00  0.00    +0.038 A 
ATOM     31  C   UNL     1       6.645  -5.336  10.891  0.00  0.00    +0.123 A 
ATOM     32  C   UNL     1       5.307  -5.287  10.540  0.00  0.00    +0.038 A 
ATOM     33  C   UNL     1       4.869  -5.930   9.397  0.00  0.00    +0.008 A 
ATOM     34  F   UNL     1       7.076  -4.704  12.004  0.00  0.00    -0.205 F 
ENDBRANCH  27  28
ENDBRANCH  11  27
TORSDOF 4
