REMARK  Name = ZINC49063824
REMARK  10 active torsions:
REMARK  status: ('A' for Active; 'I' for Inactive)
REMARK    1  A    between atoms: C_1  and  C_2
REMARK    2  A    between atoms: C_5  and  N_10
REMARK    3  A    between atoms: C_6  and  C_9
REMARK    4  A    between atoms: C_7  and  N_8
REMARK    5  A    between atoms: N_10  and  S_11
REMARK    6  A    between atoms: S_11  and  C_14
REMARK    7  A    between atoms: C_14  and  C_16
REMARK    8  A    between atoms: C_14  and  C_17
REMARK    9  A    between atoms: C_17  and  O_19
REMARK   10  A    between atoms: O_19  and  C_20
REMARK                            x       y       z     vdW  Elec       q    Type
REMARK                         _______ _______ _______ _____ _____    ______ ____
ROOT
ATOM      1  C   UNL     1       0.697   1.446   0.460  0.00  0.00    +0.045 C 
ATOM      2  C   UNL     1       0.527  -0.046   0.332  0.00  0.00    -0.029 A 
ATOM      3  C   UNL     1       0.437  -0.625  -0.919  0.00  0.00    +0.007 A 
ATOM      4  C   UNL     1       0.282  -1.993  -1.040  0.00  0.00    +0.025 A 
ATOM      5  C   UNL     1       0.216  -2.790   0.096  0.00  0.00    +0.052 A 
ATOM      6  C   UNL     1       0.306  -2.211   1.354  0.00  0.00    -0.007 A 
ATOM      7  C   UNL     1       0.468  -0.837   1.472  0.00  0.00    +0.032 A 
ATOM      8  C   UNL     1       0.235  -3.072   2.589  0.00  0.00    +0.047 C 
ENDROOT
BRANCH   7   9
ATOM      9  N   UNL     1       0.566  -0.251   2.736  0.00  0.00    -0.358 N 
ATOM     10  H   UNL     1       0.675   0.709   2.818  0.00  0.00    +0.142 HD
ATOM     11  H   UNL     1       0.524  -0.804   3.532  0.00  0.00    +0.142 HD
ENDBRANCH   7   9
BRANCH   5  12
ATOM     12  N   UNL     1       0.058  -4.172  -0.027  0.00  0.00    -0.220 N 
ATOM     13  H   UNL     1      -0.474  -4.659   0.621  0.00  0.00    +0.173 HD
BRANCH  12  14
ATOM     14  S   UNL     1       0.780  -4.979  -1.280  0.00  0.00    +0.056 S 
ATOM     15  O   UNL     1       0.490  -6.350  -1.044  0.00  0.00    -0.154 OA
ATOM     16  O   UNL     1       0.305  -4.329  -2.451  0.00  0.00    -0.154 OA
BRANCH  14  17
ATOM     17  C   UNL     1       2.555  -4.671  -1.072  0.00  0.00    +0.256 C 
ATOM     18  C   UNL     1       3.011  -5.211   0.285  0.00  0.00    +0.046 C 
BRANCH  17  19
ATOM     19  C   UNL     1       3.318  -5.366  -2.170  0.00  0.00    +0.333 C 
ATOM     20  O   UNL     1       2.805  -6.275  -2.780  0.00  0.00    -0.249 OA
BRANCH  19  21
ATOM     21  O   UNL     1       4.566  -4.976  -2.472  0.00  0.00    -0.467 OA
ATOM     22  C   UNL     1       5.230  -5.679  -3.524  0.00  0.00    +0.280 C 
ENDBRANCH  19  21
ENDBRANCH  17  19
ENDBRANCH  14  17
ENDBRANCH  12  14
ENDBRANCH   5  12
TORSDOF 6
