REMARK  Name = ZINC67267646
REMARK  4 active torsions:
REMARK  status: ('A' for Active; 'I' for Inactive)
REMARK    1  A    between atoms: C_4  and  C_6
REMARK    2  A    between atoms: C_4  and  N_22
REMARK    3  A    between atoms: C_6  and  N_7
REMARK    4  A    between atoms: C_8  and  C_10
REMARK                            x       y       z     vdW  Elec       q    Type
REMARK                         _______ _______ _______ _____ _____    ______ ____
ROOT
ATOM      1  N   UNL     1       0.847  -2.524  -1.742  0.00  0.00    -0.316 N 
ATOM      2  C   UNL     1       0.844  -3.397  -2.769  0.00  0.00    +0.216 C 
ATOM      3  O   UNL     1       1.250  -3.053  -3.858  0.00  0.00    -0.276 OA
ATOM      4  H   UNL     1       0.522  -2.799  -0.870  0.00  0.00    +0.149 HD
ENDROOT
BRANCH   2   5
ATOM      5  C   UNL     1       0.336  -4.800  -2.563  0.00  0.00    +0.075 C 
ATOM      6  C   UNL     1       1.176  -5.495  -1.490  0.00  0.00    +0.015 C 
ATOM      7  C   UNL     1       0.651  -6.916  -1.273  0.00  0.00    +0.036 C 
ATOM      8  C   UNL     1       0.725  -7.694  -2.582  0.00  0.00    +0.112 C 
ATOM      9  C   UNL     1      -0.088  -7.000  -3.669  0.00  0.00    +0.036 C 
ATOM     10  C   UNL     1       0.441  -5.578  -3.876  0.00  0.00    +0.015 C 
ATOM     11  C   UNL     1       2.163  -7.856  -3.019  0.00  0.00    +0.244 C 
ATOM     12  O   UNL     1       2.950  -6.975  -3.293  0.00  0.00    -0.273 OA
ATOM     13  N   UNL     1       2.385  -9.186  -3.041  0.00  0.00    -0.238 N 
ATOM     14  C   UNL     1       1.295  -9.874  -2.681  0.00  0.00    +0.307 C 
ATOM     15  O   UNL     1       1.250 -11.088  -2.625  0.00  0.00    -0.252 OA
ATOM     16  N   UNL     1       0.254  -9.072  -2.389  0.00  0.00    -0.285 N 
ATOM     17  H   UNL     1       3.230  -9.594  -3.288  0.00  0.00    +0.159 HD
ATOM     18  H   UNL     1      -0.631  -9.349  -2.106  0.00  0.00    +0.151 HD
ENDBRANCH   2   5
BRANCH   1  19
ATOM     19  C   UNL     1       1.342  -1.159  -1.942  0.00  0.00    +0.092 C 
BRANCH  19  23
ATOM     20  C   UNL     1      -0.258   1.347  -0.004  0.00  0.00    -0.001 C 
ATOM     21  C   UNL     1       1.184   1.887   0.166  0.00  0.00    -0.001 C 
ATOM     22  C   UNL     1       2.005   0.969  -0.772  0.00  0.00    -0.010 C 
ATOM     23  C   UNL     1       1.359  -0.422  -0.602  0.00  0.00    -0.050 C 
ATOM     24  C   UNL     1      -0.080  -0.181  -0.113  0.00  0.00    -0.010 C 
BRANCH  23  25
ATOM     25  N   UNL     1       2.104  -1.204   0.394  0.00  0.00    +0.386 N 
ATOM     26  C   UNL     1       2.135  -0.467   1.659  0.00  0.00    -0.067 C 
ATOM     27  C   UNL     1       2.567  -1.400   2.796  0.00  0.00    +0.050 C 
ATOM     28  S   UNL     1       4.254  -1.986   2.442  0.00  0.00    -0.164 S 
ATOM     29  C   UNL     1       4.123  -2.561   0.720  0.00  0.00    +0.050 C 
ATOM     30  C   UNL     1       3.458  -1.454  -0.106  0.00  0.00    -0.067 C 
ATOM     31  H   UNL     1       1.637  -2.087   0.538  0.00  0.00    -0.081 HD
ENDBRANCH  23  25
ENDBRANCH  19  23
ENDBRANCH   1  19
TORSDOF 4
