REMARK  Name = ZINC40400509
REMARK  5 active torsions:
REMARK  status: ('A' for Active; 'I' for Inactive)
REMARK    1  A    between atoms: C_1  and  C_2
REMARK    2  A    between atoms: C_5  and  N_8
REMARK    3  A    between atoms: C_21  and  C_23
REMARK    4  A    between atoms: N_25  and  C_26
REMARK    5  A    between atoms: C_29  and  C_33
REMARK                            x       y       z     vdW  Elec       q    Type
REMARK                         _______ _______ _______ _____ _____    ______ ____
ROOT
ATOM      1  N   UNL     1       0.063  -4.215  -0.046  0.00  0.00    -0.285 N 
ATOM      2  C   UNL     1       0.181  -4.895   1.138  0.00  0.00    +0.202 A 
ATOM      3  N   UNL     1       0.315  -6.250   1.117  0.00  0.00    -0.295 N 
ATOM      4  H   UNL     1       0.339  -6.721   0.270  0.00  0.00    +0.172 HD
ATOM      5  C   UNL     1       0.416  -6.937   2.275  0.00  0.00    +0.258 A 
ATOM      6  O   UNL     1       0.521  -8.153   2.271  0.00  0.00    -0.267 OA
ATOM      7  C   UNL     1       0.397  -6.227   3.480  0.00  0.00    +0.069 A 
ATOM      8  C   UNL     1       0.279  -4.849   3.447  0.00  0.00    +0.138 A 
ATOM      9  N   UNL     1       0.167  -4.223   2.270  0.00  0.00    -0.200 NA
ATOM     10  N   UNL     1       0.302  -4.119   4.623  0.00  0.00    -0.270 N 
ATOM     11  C   UNL     1       0.694  -4.682   5.779  0.00  0.00    +0.219 C 
ATOM     12  O   UNL     1       0.603  -4.055   6.812  0.00  0.00    -0.275 OA
ATOM     13  C   UNL     1       1.244  -6.084   5.805  0.00  0.00    +0.114 C 
ATOM     14  C   UNL     1       0.493  -6.953   4.795  0.00  0.00    +0.122 C 
ATOM     15  H   UNL     1      -0.006  -4.704  -0.881  0.00  0.00    +0.155 HD
ATOM     16  H   UNL     1       0.031  -3.188   4.613  0.00  0.00    +0.156 HD
ENDROOT
BRANCH   1  21
ATOM     17  C   UNL     1      -0.025   1.456  -0.066  0.00  0.00    +0.044 C 
ATOM     18  C   UNL     1      -0.002  -0.051  -0.061  0.00  0.00    -0.050 A 
ATOM     19  C   UNL     1       0.755  -0.726   0.880  0.00  0.00    +0.005 A 
ATOM     20  C   UNL     1       0.778  -2.106   0.887  0.00  0.00    +0.023 A 
ATOM     21  C   UNL     1       0.041  -2.817  -0.051  0.00  0.00    +0.034 A 
ATOM     22  C   UNL     1      -0.718  -2.136  -0.994  0.00  0.00    +0.023 A 
ATOM     23  C   UNL     1      -0.741  -0.755  -0.993  0.00  0.00    +0.005 A 
ENDBRANCH   1  21
BRANCH  14  24
ATOM     24  C   UNL     1      -0.893  -7.241   5.312  0.00  0.00    +0.225 C 
ATOM     25  O   UNL     1      -1.863  -6.890   4.674  0.00  0.00    -0.275 OA
ATOM     26  N   UNL     1      -1.054  -7.888   6.483  0.00  0.00    -0.285 N 
ATOM     27  H   UNL     1      -0.281  -8.107   7.026  0.00  0.00    +0.155 HD
BRANCH  26  28
ATOM     28  C   UNL     1      -2.337  -8.242   6.915  0.00  0.00    +0.035 A 
ATOM     29  C   UNL     1      -2.533  -9.427   7.613  0.00  0.00    +0.023 A 
ATOM     30  C   UNL     1      -3.800  -9.775   8.039  0.00  0.00    +0.006 A 
ATOM     31  C   UNL     1      -4.873  -8.945   7.771  0.00  0.00    -0.032 A 
ATOM     32  C   UNL     1      -4.682  -7.764   7.076  0.00  0.00    +0.046 A 
ATOM     33  C   UNL     1      -3.415  -7.408   6.652  0.00  0.00    +0.043 A 
ATOM     34 CL   UNL     1      -6.032  -6.726   6.742  0.00  0.00    -0.083 Cl
ATOM     35  C   UNL     1      -6.254  -9.329   8.237  0.00  0.00    +0.045 C 
ENDBRANCH  26  28
ENDBRANCH  14  24
TORSDOF 3
