REMARK  Name = ZINC63375422
REMARK  3 active torsions:
REMARK  status: ('A' for Active; 'I' for Inactive)
REMARK    1  A    between atoms: C_1  and  N_2
REMARK    2  A    between atoms: C_15  and  C_17
REMARK    3  A    between atoms: N_23  and  C_26
REMARK                            x       y       z     vdW  Elec       q    Type
REMARK                         _______ _______ _______ _____ _____    ______ ____
ROOT
ATOM      1  C   UNL     1      -0.036  -0.751   2.664  0.00  0.00    +0.101 A 
ATOM      2  H   UNL     1      -3.202  -0.390   3.241  0.00  0.00    +0.173 HD
ATOM      3  C   UNL     1      -1.380  -0.897   2.488  0.00  0.00    +0.263 A 
ATOM      4  N   UNL     1      -2.245  -0.289   3.362  0.00  0.00    -0.274 N 
ATOM      5  C   UNL     1      -1.775   0.447   4.386  0.00  0.00    +0.337 A 
ATOM      6  O   UNL     1      -2.557   0.978   5.151  0.00  0.00    -0.246 OA
ATOM      7  N   UNL     1      -0.452   0.603   4.576  0.00  0.00    -0.229 N 
ATOM      8  C   UNL     1       0.432   0.018   3.744  0.00  0.00    +0.270 A 
ATOM      9  O   UNL     1       1.630   0.158   3.924  0.00  0.00    -0.267 OA
ATOM     10  O   UNL     1      -1.856  -1.634   1.462  0.00  0.00    -0.267 OA
ENDROOT
BRANCH   1  24
ATOM     11  C   UNL     1       1.280   0.510   0.278  0.00  0.00    +0.105 C 
ATOM     12  N   UNL     1       0.757  -0.860   0.363  0.00  0.00    -0.296 NA
ATOM     13  C   UNL     1      -0.628  -0.923  -0.112  0.00  0.00    +0.089 C 
ATOM     14  C   UNL     1      -1.072  -2.390  -0.264  0.00  0.00    +0.049 C 
ATOM     15  C   UNL     1      -0.717  -3.073   1.034  0.00  0.00    -0.035 C 
ATOM     16  C   UNL     1      -1.412  -3.849   1.853  0.00  0.00    -0.001 A 
ATOM     17  C   UNL     1      -2.750  -4.451   1.737  0.00  0.00    +0.010 A 
ATOM     18  C   UNL     1      -3.171  -5.187   2.799  0.00  0.00    +0.001 A 
ATOM     19  C   UNL     1      -2.404  -5.384   3.951  0.00  0.00    +0.002 A 
ATOM     20  C   UNL     1      -1.159  -4.877   4.139  0.00  0.00    +0.026 A 
ATOM     21  C   UNL     1      -0.603  -4.093   3.087  0.00  0.00    +0.043 A 
ATOM     22  N   UNL     1       0.561  -3.521   2.989  0.00  0.00    -0.376 N 
ATOM     23  C   UNL     1       0.663  -2.913   1.664  0.00  0.00    +0.128 C 
ATOM     24  C   UNL     1       0.935  -1.409   1.717  0.00  0.00    +0.124 C 
ATOM     25  H   UNL     1       1.244  -3.501   3.677  0.00  0.00    +0.160 HD
ENDBRANCH   1  24
BRANCH   7  26
ATOM     26  C   UNL     1       0.010   1.375   5.651  0.00  0.00    +0.054 A 
ATOM     27  C   UNL     1       0.223   2.737   5.487  0.00  0.00    +0.027 A 
ATOM     28  C   UNL     1       0.678   3.496   6.548  0.00  0.00    +0.017 A 
ATOM     29  C   UNL     1       0.922   2.900   7.772  0.00  0.00    +0.018 A 
ATOM     30  C   UNL     1       0.710   1.543   7.938  0.00  0.00    +0.017 A 
ATOM     31  C   UNL     1       0.249   0.780   6.882  0.00  0.00    +0.027 A 
ATOM     32 BR   UNL     1       1.545   3.942   9.222  0.00  0.00    -0.050 Br
ENDBRANCH   7  26
TORSDOF 2
