REMARK  Name = ZINC59503589
REMARK  5 active torsions:
REMARK  status: ('A' for Active; 'I' for Inactive)
REMARK    1  A    between atoms: N_8  and  C_10
REMARK    2  A    between atoms: C_13  and  C_16
REMARK    3  A    between atoms: N_17  and  N_18
REMARK    4  A    between atoms: C_19  and  C_21
REMARK    5  A    between atoms: C_25  and  N_27
REMARK                            x       y       z     vdW  Elec       q    Type
REMARK                         _______ _______ _______ _____ _____    ______ ____
ROOT
ATOM      1  C   UNL     1       3.691  -3.505  -0.050  0.00  0.00    +0.030 A 
ATOM      2  C   UNL     1       3.009  -4.717  -0.056  0.00  0.00    +0.024 A 
ATOM      3  C   UNL     1       3.710  -5.903  -0.069  0.00  0.00    +0.011 A 
ATOM      4  C   UNL     1       5.108  -5.887  -0.076  0.00  0.00    -0.005 A 
ATOM      5  C   UNL     1       5.789  -4.667  -0.071  0.00  0.00    +0.011 A 
ATOM      6  C   UNL     1       5.082  -3.485  -0.063  0.00  0.00    +0.024 A 
ENDROOT
BRANCH   1  14
ATOM      7  C   UNL     1      -0.017   1.377   0.010  0.00  0.00    +0.000 A 
ATOM      8  C   UNL     1       1.172   2.084   0.002  0.00  0.00    +0.000 A 
ATOM      9  C   UNL     1       2.376   1.408  -0.013  0.00  0.00    +0.005 A 
ATOM     10  C   UNL     1       2.396   0.024  -0.021  0.00  0.00    -0.026 A 
ATOM     11  C   UNL     1       1.209  -0.682  -0.013  0.00  0.00    -0.026 A 
ATOM     12  C   UNL     1       0.002  -0.004   0.002  0.00  0.00    +0.005 A 
ATOM     13  C   UNL     1       1.519  -2.158  -0.023  0.00  0.00    +0.141 C 
ATOM     14  N   UNL     1       2.978  -2.306  -0.037  0.00  0.00    -0.321 N 
ATOM     15  C   UNL     1       3.544  -0.953  -0.036  0.00  0.00    +0.141 C 
ENDBRANCH   1  14
BRANCH   4  16
ATOM     16  C   UNL     1       5.861  -7.154  -0.089  0.00  0.00    +0.138 C 
ATOM     17  N   UNL     1       7.159  -7.137  -0.096  0.00  0.00    -0.187 NA
BRANCH  17  18
ATOM     18  N   UNL     1       7.875  -8.341  -0.109  0.00  0.00    -0.203 N 
ATOM     19  C   UNL     1       9.223  -8.324  -0.116  0.00  0.00    +0.263 C 
ATOM     20  O   UNL     1       9.817  -7.263  -0.112  0.00  0.00    -0.268 OA
ATOM     21  H   UNL     1       7.401  -9.187  -0.112  0.00  0.00    +0.178 HD
BRANCH  19  22
ATOM     22  C   UNL     1       9.978  -9.594  -0.129  0.00  0.00    +0.041 A 
ATOM     23  C   UNL     1       9.299 -10.814  -0.140  0.00  0.00    +0.013 A 
ATOM     24  C   UNL     1      10.010 -11.995  -0.152  0.00  0.00    +0.003 A 
ATOM     25  C   UNL     1      11.394 -11.974  -0.153  0.00  0.00    +0.033 A 
ATOM     26  C   UNL     1      12.073 -10.769  -0.143  0.00  0.00    +0.127 A 
ATOM     27  C   UNL     1      11.374  -9.579  -0.136  0.00  0.00    +0.045 A 
BRANCH  26  28
ATOM     28  N   UNL     1      13.553 -10.756  -0.144  0.00  0.00    +0.056 N 
ATOM     29  O   UNL     1      14.167 -11.797  -0.155  0.00  0.00    -0.126 OA
ATOM     30  O   UNL     1      14.148  -9.703  -0.135  0.00  0.00    -0.126 OA
ENDBRANCH  26  28
ENDBRANCH  19  22
ENDBRANCH  17  18
ENDBRANCH   4  16
TORSDOF 5
