REMARK  Name = ZINC39590284
REMARK  4 active torsions:
REMARK  status: ('A' for Active; 'I' for Inactive)
REMARK    1  A    between atoms: C_3  and  N_4
REMARK    2  A    between atoms: C_5  and  C_7
REMARK    3  A    between atoms: C_10  and  N_14
REMARK    4  A    between atoms: C_15  and  C_17
REMARK                            x       y       z     vdW  Elec       q    Type
REMARK                         _______ _______ _______ _____ _____    ______ ____
ROOT
ATOM      1  C   UNL     1      -1.272  -2.570  -2.454  0.00  0.00    +0.086 C 
ATOM      2  C   UNL     1      -1.754  -3.828  -2.395  0.00  0.00    +0.021 C 
ATOM      3  N   UNL     1      -2.121  -4.497  -3.509  0.00  0.00    -0.320 N 
ATOM      4  C   UNL     1      -2.115  -5.974  -3.433  0.00  0.00    +0.219 C 
ATOM      5  S   UNL     1      -2.479  -6.218  -1.641  0.00  0.00    -0.114 S 
ATOM      6  C   UNL     1      -1.902  -4.563  -1.073  0.00  0.00    +0.123 C 
ATOM      7  H   UNL     1      -2.376  -4.030  -4.320  0.00  0.00    +0.148 HD
ENDROOT
BRANCH   1   9
ATOM      8  N   UNL     1      -0.411  -0.644  -1.325  0.00  0.00    -0.309 N 
ATOM      9  C   UNL     1      -0.892  -1.902  -1.266  0.00  0.00    +0.239 C 
ATOM     10  O   UNL     1      -0.999  -2.464  -0.191  0.00  0.00    -0.271 OA
ATOM     11  H   UNL     1      -0.326  -0.197  -2.181  0.00  0.00    +0.149 HD
BRANCH   8  14
ATOM     12  C   UNL     1      -0.044   1.577  -0.105  0.00  0.00    +0.024 C 
ATOM     13  C   UNL     1       1.294   0.835  -0.116  0.00  0.00    +0.024 C 
ATOM     14  C   UNL     1      -0.018   0.047  -0.095  0.00  0.00    +0.073 C 
ENDBRANCH   8  14
ENDBRANCH   1   9
BRANCH   4  15
ATOM     15  N   UNL     1      -0.802  -6.519  -3.788  0.00  0.00    -0.284 N 
ATOM     16  C   UNL     1      -0.670  -7.829  -4.073  0.00  0.00    +0.251 C 
ATOM     17  O   UNL     1      -1.620  -8.578  -3.946  0.00  0.00    -0.270 OA
ATOM     18  H   UNL     1      -0.027  -5.936  -3.817  0.00  0.00    +0.152 HD
BRANCH  16  19
ATOM     19  C   UNL     1       0.623  -8.354  -4.538  0.00  0.00    +0.101 A 
ATOM     20  C   UNL     1       0.743  -9.680  -4.951  0.00  0.00    +0.020 A 
ATOM     21  C   UNL     1       1.985 -10.142  -5.385  0.00  0.00    +0.018 A 
ATOM     22  C   UNL     1       3.055  -9.307  -5.402  0.00  0.00    +0.086 A 
ATOM     23  N   UNL     1       2.946  -8.018  -5.001  0.00  0.00    -0.328 N 
ATOM     24  C   UNL     1       1.769  -7.519  -4.579  0.00  0.00    +0.261 A 
ATOM     25  O   UNL     1       1.689  -6.354  -4.228  0.00  0.00    -0.267 OA
ATOM     26  H   UNL     1       3.728  -7.443  -5.023  0.00  0.00    +0.168 HD
ENDBRANCH  16  19
ENDBRANCH   4  15
TORSDOF 4
