REMARK  Name = ZINC56206621
REMARK  10 active torsions:
REMARK  status: ('A' for Active; 'I' for Inactive)
REMARK    1  A    between atoms: C_1  and  C_2
REMARK    2  A    between atoms: C_5  and  N_9
REMARK    3  A    between atoms: C_10  and  C_12
REMARK    4  A    between atoms: C_12  and  C_14
REMARK    5  A    between atoms: C_12  and  N_15
REMARK    6  A    between atoms: N_15  and  C_16
REMARK    7  A    between atoms: C_19  and  O_23
REMARK    8  A    between atoms: C_21  and  C_22
REMARK    9  A    between atoms: O_23  and  C_24
REMARK   10  A    between atoms: C_24  and  C_25
REMARK                            x       y       z     vdW  Elec       q    Type
REMARK                         _______ _______ _______ _____ _____    ______ ____
ROOT
ATOM      1  N   UNL     1      -0.234  -6.825  -2.571  0.00  0.00    -0.333 N 
ATOM      2  H   UNL     1       0.120  -6.290  -3.298  0.00  0.00    +0.147 HD
ENDROOT
BRANCH   1   3
ATOM      3  C   UNL     1      -0.838  -8.059  -2.840  0.00  0.00    +0.031 A 
ATOM      4  C   UNL     1      -1.350  -8.823  -1.800  0.00  0.00    +0.027 A 
ATOM      5  C   UNL     1      -1.946 -10.040  -2.066  0.00  0.00    +0.047 A 
ATOM      6  C   UNL     1      -2.034 -10.498  -3.372  0.00  0.00    +0.122 A 
ATOM      7  C   UNL     1      -1.522  -9.736  -4.412  0.00  0.00    +0.050 A 
ATOM      8  C   UNL     1      -0.931  -8.516  -4.147  0.00  0.00    -0.026 A 
ATOM      9  C   UNL     1      -0.381  -7.684  -5.277  0.00  0.00    +0.046 C 
BRANCH   6  10
ATOM     10  O   UNL     1      -2.621 -11.697  -3.634  0.00  0.00    -0.483 OA
BRANCH  10  11
ATOM     11  C   UNL     1      -3.126 -12.430  -2.516  0.00  0.00    +0.324 C 
BRANCH  11  12
ATOM     12  C   UNL     1      -3.736 -13.722  -2.996  0.00  0.00    +0.248 C 
ATOM     13  O   UNL     1      -3.738 -13.988  -4.179  0.00  0.00    -0.272 OA
ATOM     14  N   UNL     1      -4.279 -14.581  -2.110  0.00  0.00    -0.327 N 
ATOM     15  H   UNL     1      -4.277 -14.367  -1.164  0.00  0.00    +0.145 HD
ATOM     16  H   UNL     1      -4.671 -15.412  -2.419  0.00  0.00    +0.145 HD
ENDBRANCH  11  12
ENDBRANCH  10  11
ENDBRANCH   6  10
ENDBRANCH   1   3
BRANCH   1  17
ATOM     17  C   UNL     1      -0.136  -6.343  -1.191  0.00  0.00    +0.154 C 
ATOM     18  C   UNL     1       1.113  -6.933  -0.532  0.00  0.00    +0.038 C 
BRANCH  17  20
ATOM     19  N   UNL     1       0.057  -4.171  -0.023  0.00  0.00    -0.283 N 
ATOM     20  C   UNL     1      -0.042  -4.839  -1.190  0.00  0.00    +0.237 C 
ATOM     21  O   UNL     1      -0.055  -4.230  -2.238  0.00  0.00    -0.273 OA
ATOM     22  H   UNL     1       0.133  -4.660   0.811  0.00  0.00    +0.155 HD
BRANCH  19  27
ATOM     23  C   UNL     1       0.028   1.503   0.005  0.00  0.00    +0.044 C 
ATOM     24  C   UNL     1       0.035  -0.004  -0.002  0.00  0.00    -0.049 A 
ATOM     25  C   UNL     1       0.632  -0.686  -1.046  0.00  0.00    +0.005 A 
ATOM     26  C   UNL     1       0.641  -2.067  -1.056  0.00  0.00    +0.025 A 
ATOM     27  C   UNL     1       0.050  -2.771  -0.016  0.00  0.00    +0.052 A 
ATOM     28  C   UNL     1      -0.548  -2.083   1.033  0.00  0.00    +0.062 A 
ATOM     29  C   UNL     1      -0.549  -0.701   1.039  0.00  0.00    +0.025 A 
ATOM     30 CL   UNL     1      -1.289  -2.959   2.336  0.00  0.00    -0.082 Cl
ENDBRANCH  19  27
ENDBRANCH  17  20
ENDBRANCH   1  17
TORSDOF 7
