REMARK  Name = ZINC05226357
REMARK  7 active torsions:
REMARK  status: ('A' for Active; 'I' for Inactive)
REMARK    1  A    between atoms: C_1  and  C_2
REMARK    2  A    between atoms: C_5  and  C_9
REMARK    3  A    between atoms: C_6  and  O_8
REMARK    4  A    between atoms: C_9  and  O_11
REMARK    5  A    between atoms: O_11  and  C_12
REMARK    6  A    between atoms: C_12  and  C_14
REMARK    7  A    between atoms: C_12  and  C_15
REMARK                            x       y       z     vdW  Elec       q    Type
REMARK                         _______ _______ _______ _____ _____    ______ ____
ROOT
ATOM      1  C   UNL     1      -3.764  -0.998   0.025  0.00  0.00    +0.259 C 
ATOM      2  C   UNL     1      -4.169  -1.214   1.484  0.00  0.00    +0.062 C 
ENDROOT
BRANCH   1   3
ATOM      3  C   UNL     1      -3.666  -2.331  -0.671  0.00  0.00    +0.260 C 
ATOM      4  O   UNL     1      -2.582  -2.765  -1.000  0.00  0.00    -0.271 OA
ATOM      5  N   UNL     1      -4.782  -3.041  -0.928  0.00  0.00    -0.268 N 
ATOM      6  C   UNL     1      -6.149  -2.575  -0.680  0.00  0.00    +0.118 C 
ATOM      7  C   UNL     1      -7.058  -3.730  -1.134  0.00  0.00    +0.056 C 
ATOM      8  C   UNL     1      -6.103  -4.796  -1.621  0.00  0.00    -0.024 A 
ATOM      9  C   UNL     1      -4.806  -4.327  -1.477  0.00  0.00    +0.040 A 
ATOM     10  C   UNL     1      -3.743  -5.146  -1.858  0.00  0.00    +0.024 A 
ATOM     11  C   UNL     1      -3.983  -6.400  -2.381  0.00  0.00    +0.002 A 
ATOM     12  C   UNL     1      -5.279  -6.857  -2.525  0.00  0.00    +0.000 A 
ATOM     13  C   UNL     1      -6.338  -6.053  -2.144  0.00  0.00    +0.005 A 
ENDBRANCH   1   3
BRANCH   1  14
ATOM     14  O   UNL     1      -2.476  -0.330  -0.026  0.00  0.00    -0.449 OA
BRANCH  14  15
ATOM     15  C   UNL     1      -2.486   1.018  -0.044  0.00  0.00    +0.343 C 
ATOM     16  O   UNL     1      -3.543   1.617  -0.017  0.00  0.00    -0.245 OA
BRANCH  15  21
ATOM     17  C   UNL     1       2.475   3.925  -0.258  0.00  0.00    +0.044 C 
ATOM     18  C   UNL     1       1.174   3.167  -0.199  0.00  0.00    -0.047 A 
ATOM     19  C   UNL     1       1.185   1.782  -0.180  0.00  0.00    +0.004 A 
ATOM     20  C   UNL     1       0.001   1.078  -0.126  0.00  0.00    +0.019 A 
ATOM     21  C   UNL     1      -1.216   1.764  -0.095  0.00  0.00    +0.100 A 
ATOM     22  C   UNL     1      -1.222   3.166  -0.109  0.00  0.00    +0.131 A 
ATOM     23  C   UNL     1      -0.021   3.857  -0.164  0.00  0.00    +0.049 A 
BRANCH  22  24
ATOM     24  O   UNL     1      -2.397   3.842  -0.074  0.00  0.00    -0.506 OA
ATOM     25  H   UNL     1      -2.771   4.026  -0.947  0.00  0.00    +0.292 HD
ENDBRANCH  22  24
ENDBRANCH  15  21
ENDBRANCH  14  15
ENDBRANCH   1  14
TORSDOF 5
