REMARK  Name = ZINC39692216
REMARK  7 active torsions:
REMARK  status: ('A' for Active; 'I' for Inactive)
REMARK    1  A    between atoms: C_1  and  C_2
REMARK    2  A    between atoms: C_2  and  C_3
REMARK    3  A    between atoms: C_2  and  C_4
REMARK    4  A    between atoms: C_6  and  S_10
REMARK    5  A    between atoms: S_10  and  C_11
REMARK    6  A    between atoms: C_11  and  C_12
REMARK    7  A    between atoms: C_21  and  C_23
REMARK                            x       y       z     vdW  Elec       q    Type
REMARK                         _______ _______ _______ _____ _____    ______ ____
ROOT
ATOM      1  C   UNL     1      -4.221  -3.939  -3.903  0.00  0.00    +0.057 C 
ATOM      2  C   UNL     1      -4.576  -5.211  -3.173  0.00  0.00    +0.007 A 
ATOM      3  C   UNL     1      -5.579  -5.369  -2.210  0.00  0.00    +0.128 A 
ATOM      4  C   UNL     1      -5.795  -6.586  -1.600  0.00  0.00    +0.039 A 
ATOM      5  C   UNL     1      -5.026  -7.688  -1.925  0.00  0.00    +0.004 A 
ATOM      6  C   UNL     1      -4.035  -7.558  -2.880  0.00  0.00    +0.015 A 
ATOM      7  C   UNL     1      -3.824  -6.338  -3.496  0.00  0.00    +0.015 A 
ATOM      8  S   UNL     1      -2.684  -5.839  -4.767  0.00  0.00    -0.109 S 
ATOM      9  C   UNL     1      -3.447  -4.226  -5.209  0.00  0.00    +0.172 C 
ATOM     10  F   UNL     1      -6.347  -4.310  -1.871  0.00  0.00    -0.205 F 
ENDROOT
BRANCH   9  11
ATOM     11  C   UNL     1      -2.397  -3.176  -5.467  0.00  0.00    +0.370 C 
ATOM     12  O   UNL     1      -1.247  -3.363  -5.108  0.00  0.00    -0.245 OA
ATOM     13  O   UNL     1      -2.697  -2.140  -6.035  0.00  0.00    -0.245 OA
ENDBRANCH   9  11
BRANCH   1  14
ATOM     14  C   UNL     1      -3.357  -3.066  -2.991  0.00  0.00    +0.087 C 
BRANCH  14  15
ATOM     15  S   UNL     1      -4.326  -2.555  -1.546  0.00  0.00    -0.086 S 
BRANCH  15  18
ATOM     16  C   UNL     1      -1.412  -0.526   0.013  0.00  0.00    +0.154 A 
ATOM     17  N   UNL     1      -1.958  -1.298  -0.927  0.00  0.00    -0.205 NA
ATOM     18  C   UNL     1      -3.205  -1.571  -0.608  0.00  0.00    +0.184 A 
ATOM     19  H   UNL     1      -4.313  -0.980   1.054  0.00  0.00    +0.191 HD
ATOM     20  N   UNL     1      -3.474  -0.961   0.567  0.00  0.00    -0.254 N 
ATOM     21  N   UNL     1      -2.296  -0.298   0.947  0.00  0.00    -0.157 NA
BRANCH  16  23
ATOM     22  C   UNL     1      -0.019   1.526   0.010  0.00  0.00    +0.015 C 
ATOM     23  C   UNL     1       0.002  -0.004   0.002  0.00  0.00    +0.053 C 
ATOM     24  C   UNL     1       0.742  -0.511   1.242  0.00  0.00    +0.015 C 
ENDBRANCH  16  23
ENDBRANCH  15  18
ENDBRANCH  14  15
ENDBRANCH   1  14
TORSDOF 5
