REMARK  Name = ZINC39229395
REMARK  8 active torsions:
REMARK  status: ('A' for Active; 'I' for Inactive)
REMARK    1  A    between atoms: C_1  and  C_2
REMARK    2  A    between atoms: C_2  and  C_4
REMARK    3  A    between atoms: C_2  and  N_18
REMARK    4  A    between atoms: C_4  and  C_5
REMARK    5  A    between atoms: C_4  and  C_11
REMARK    6  A    between atoms: C_4  and  O_17
REMARK    7  A    between atoms: C_19  and  C_21
REMARK    8  A    between atoms: C_31  and  C_34
REMARK                            x       y       z     vdW  Elec       q    Type
REMARK                         _______ _______ _______ _____ _____    ______ ____
ROOT
ATOM      1  N   UNL     1       0.616  -0.696  -1.159  0.00  0.00    -0.305 N 
ATOM      2  C   UNL     1       0.002  -0.622  -2.356  0.00  0.00    +0.246 C 
ATOM      3  O   UNL     1      -1.125  -0.171  -2.434  0.00  0.00    -0.270 OA
ATOM      4  H   UNL     1       1.515  -1.056  -1.097  0.00  0.00    +0.149 HD
ENDROOT
BRANCH   2   5
ATOM      5  C   UNL     1       0.695  -1.089  -3.571  0.00  0.00    +0.055 A 
ATOM      6  C   UNL     1       0.067  -1.011  -4.824  0.00  0.00    +0.018 A 
ATOM      7  C   UNL     1       0.747  -1.455  -5.925  0.00  0.00    +0.044 A 
ATOM      8  C   UNL     1       2.035  -1.967  -5.772  0.00  0.00    +0.121 A 
ATOM      9  N   UNL     1       2.606  -2.030  -4.577  0.00  0.00    -0.240 NA
ATOM     10  C   UNL     1       1.988  -1.608  -3.494  0.00  0.00    +0.126 A 
ATOM     11  N   UNL     1       2.726  -2.418  -6.884  0.00  0.00    -0.318 N 
ATOM     12  C   UNL     1       4.156  -2.753  -6.800  0.00  0.00    +0.087 C 
ATOM     13  C   UNL     1       4.365  -4.144  -7.407  0.00  0.00    -0.062 C 
ATOM     14  N   UNL     1       3.815  -4.172  -8.767  0.00  0.00    +0.386 N 
ATOM     15  C   UNL     1       2.361  -3.975  -8.723  0.00  0.00    -0.023 C 
ATOM     16  C   UNL     1       2.051  -2.581  -8.180  0.00  0.00    +0.095 C 
ATOM     17  H   UNL     1       4.236  -3.436  -9.314  0.00  0.00    -0.085 HD
ATOM     18  H   UNL     1       4.019  -5.064  -9.193  0.00  0.00    -0.085 HD
BRANCH  15  19
ATOM     19  C   UNL     1       1.792  -4.114 -10.111  0.00  0.00    -0.060 A 
ATOM     20  C   UNL     1       2.473  -3.589 -11.193  0.00  0.00    +0.002 A 
ATOM     21  C   UNL     1       1.951  -3.717 -12.467  0.00  0.00    +0.000 A 
ATOM     22  C   UNL     1       0.748  -4.370 -12.659  0.00  0.00    +0.000 A 
ATOM     23  C   UNL     1       0.067  -4.896 -11.577  0.00  0.00    +0.000 A 
ATOM     24  C   UNL     1       0.591  -4.772 -10.303  0.00  0.00    +0.002 A 
ENDBRANCH  15  19
ENDBRANCH   2   5
BRANCH   1  26
ATOM     25  C   UNL     1       0.128   1.276   0.203  0.00  0.00    +0.031 C 
ATOM     26  C   UNL     1      -0.072  -0.233   0.049  0.00  0.00    +0.111 C 
BRANCH  26  27
ATOM     27  C   UNL     1       0.502  -0.952   1.271  0.00  0.00    +0.134 C 
BRANCH  27  28
ATOM     28  C   UNL     1      -0.287  -0.569   2.496  0.00  0.00    -0.010 A 
ATOM     29  C   UNL     1      -1.627  -0.247   2.383  0.00  0.00    +0.007 A 
ATOM     30  C   UNL     1      -2.351   0.104   3.506  0.00  0.00    +0.000 A 
ATOM     31  C   UNL     1      -1.735   0.135   4.744  0.00  0.00    +0.000 A 
ATOM     32  C   UNL     1      -0.396  -0.187   4.857  0.00  0.00    +0.000 A 
ATOM     33  C   UNL     1       0.327  -0.543   3.734  0.00  0.00    +0.007 A 
ENDBRANCH  27  28
BRANCH  27  34
ATOM     34  C   UNL     1       0.415  -2.442   1.064  0.00  0.00    -0.010 A 
ATOM     35  C   UNL     1      -0.598  -2.975   0.288  0.00  0.00    +0.007 A 
ATOM     36  C   UNL     1      -0.677  -4.342   0.098  0.00  0.00    +0.000 A 
ATOM     37  C   UNL     1       0.257  -5.176   0.683  0.00  0.00    +0.000 A 
ATOM     38  C   UNL     1       1.270  -4.644   1.458  0.00  0.00    +0.000 A 
ATOM     39  C   UNL     1       1.352  -3.277   1.645  0.00  0.00    +0.007 A 
ENDBRANCH  27  34
BRANCH  27  40
ATOM     40  O   UNL     1       1.869  -0.575   1.447  0.00  0.00    -0.377 OA
ATOM     41  H   UNL     1       2.437  -0.792   0.695  0.00  0.00    +0.211 HD
ENDBRANCH  27  40
ENDBRANCH  26  27
ENDBRANCH   1  26
TORSDOF 7
