REMARK  Name = ZINC13453997
REMARK  10 active torsions:
REMARK  status: ('A' for Active; 'I' for Inactive)
REMARK    1  A    between atoms: C_1  and  C_2
REMARK    2  A    between atoms: C_2  and  C_3
REMARK    3  A    between atoms: C_2  and  C_4
REMARK    4  A    between atoms: C_2  and  N_5
REMARK    5  A    between atoms: C_6  and  C_8
REMARK    6  A    between atoms: C_8  and  S_9
REMARK    7  A    between atoms: S_9  and  C_10
REMARK    8  A    between atoms: C_15  and  C_19
REMARK    9  A    between atoms: C_16  and  O_18
REMARK   10  A    between atoms: C_19  and  C_20
REMARK                            x       y       z     vdW  Elec       q    Type
REMARK                         _______ _______ _______ _____ _____    ______ ____
ROOT
ATOM      1  C   UNL     1      -1.959   2.864   3.495  0.00  0.00    +0.173 A 
ATOM      2  N   UNL     1      -2.713   2.547   2.406  0.00  0.00    -0.302 N 
ATOM      3  H   UNL     1      -3.678   2.636   2.442  0.00  0.00    +0.171 HD
ATOM      4  C   UNL     1      -2.118   2.108   1.277  0.00  0.00    +0.259 A 
ATOM      5  O   UNL     1      -2.785   1.821   0.295  0.00  0.00    -0.267 OA
ATOM      6  C   UNL     1      -0.724   1.989   1.250  0.00  0.00    +0.082 A 
ATOM      7  C   UNL     1      -0.005   2.320   2.387  0.00  0.00    +0.223 A 
ATOM      8  N   UNL     1      -0.646   2.753   3.475  0.00  0.00    -0.189 NA
ENDROOT
BRANCH   7   9
ATOM      9  O   UNL     1       1.344   2.209   2.393  0.00  0.00    -0.492 OA
ATOM     10  H   UNL     1       1.756   2.463   3.230  0.00  0.00    +0.294 HD
ENDBRANCH   7   9
BRANCH   1  11
ATOM     11  S   UNL     1      -2.756   3.435   4.960  0.00  0.00    -0.078 S 
BRANCH  11  12
ATOM     12  C   UNL     1      -1.313   3.689   6.023  0.00  0.00    +0.173 C 
BRANCH  12  14
ATOM     13  N   UNL     1      -0.856   4.452   8.331  0.00  0.00    -0.310 N 
ATOM     14  C   UNL     1      -1.765   4.191   7.370  0.00  0.00    +0.224 C 
ATOM     15  O   UNL     1      -2.945   4.361   7.590  0.00  0.00    -0.275 OA
ATOM     16  H   UNL     1       0.088   4.317   8.155  0.00  0.00    +0.149 HD
BRANCH  13  18
ATOM     17  C   UNL     1      -2.227   3.912  10.283  0.00  0.00    +0.031 C 
ATOM     18  C   UNL     1      -1.295   4.941   9.641  0.00  0.00    +0.026 C 
ATOM     19  C   UNL     1      -0.076   5.156  10.540  0.00  0.00    +0.031 C 
ATOM     20  C   UNL     1      -2.041   6.266   9.467  0.00  0.00    +0.031 C 
ENDBRANCH  13  18
ENDBRANCH  12  14
ENDBRANCH  11  12
ENDBRANCH   1  11
BRANCH   6  21
ATOM     21  C   UNL     1      -0.018   1.503   0.010  0.00  0.00    +0.084 C 
BRANCH  21  22
ATOM     22  C   UNL     1       0.002  -0.004   0.002  0.00  0.00    -0.008 A 
ATOM     23  C   UNL     1       1.103  -0.683   0.488  0.00  0.00    +0.007 A 
ATOM     24  C   UNL     1       1.120  -2.065   0.486  0.00  0.00    +0.000 A 
ATOM     25  C   UNL     1       0.040  -2.770  -0.013  0.00  0.00    +0.003 A 
ATOM     26  C   UNL     1      -1.060  -2.093  -0.505  0.00  0.00    +0.038 A 
ATOM     27  C   UNL     1      -1.080  -0.709  -0.498  0.00  0.00    +0.127 A 
ATOM     28  F   UNL     1      -2.154  -0.046  -0.979  0.00  0.00    -0.205 F 
ENDBRANCH  21  22
ENDBRANCH   6  21
TORSDOF 7
