REMARK  Name = ZINC39500635
REMARK  8 active torsions:
REMARK  status: ('A' for Active; 'I' for Inactive)
REMARK    1  A    between atoms: C_3  and  N_13
REMARK    2  A    between atoms: C_6  and  C_7
REMARK    3  A    between atoms: C_14  and  C_16
REMARK    4  A    between atoms: N_21  and  C_23
REMARK    5  A    between atoms: C_23  and  C_24
REMARK    6  A    between atoms: C_26  and  C_29
REMARK    7  A    between atoms: C_30  and  C_31
REMARK    8  A    between atoms: C_31  and  O_32
REMARK                            x       y       z     vdW  Elec       q    Type
REMARK                         _______ _______ _______ _____ _____    ______ ____
ROOT
ATOM      1  C   UNL     1       6.047   2.241   0.171  0.00  0.00    +0.059 C 
ATOM      2  C   UNL     1       6.213   3.129  -1.066  0.00  0.00    +0.009 C 
ATOM      3  C   UNL     1       7.562   3.850  -0.987  0.00  0.00    -0.018 C 
ATOM      4  C   UNL     1       8.681   2.815  -0.862  0.00  0.00    -0.078 C 
ATOM      5  N   UNL     1       8.480   2.015   0.352  0.00  0.00    +0.383 N 
ATOM      6  C   UNL     1       7.223   1.265   0.254  0.00  0.00    -0.066 C 
ATOM      7  H   UNL     1       8.443   2.627   1.154  0.00  0.00    -0.081 HD
ENDROOT
BRANCH   1   9
ATOM      8  N   UNL     1       3.584   2.123  -0.021  0.00  0.00    -0.285 N 
ATOM      9  C   UNL     1       4.758   1.467   0.066  0.00  0.00    +0.218 C 
ATOM     10  O   UNL     1       4.777   0.255   0.060  0.00  0.00    -0.275 OA
ATOM     11  H   UNL     1       3.573   3.091  -0.093  0.00  0.00    +0.155 HD
BRANCH   8  14
ATOM     12  C   UNL     1       1.084  -0.460   0.750  0.00  0.00    +0.007 A 
ATOM     13  C   UNL     1       2.273   0.242   0.738  0.00  0.00    +0.023 A 
ATOM     14  C   UNL     1       2.381   1.409  -0.007  0.00  0.00    +0.033 A 
ATOM     15  C   UNL     1       1.292   1.866  -0.738  0.00  0.00    +0.023 A 
ATOM     16  C   UNL     1       0.106   1.159  -0.722  0.00  0.00    +0.007 A 
ATOM     17  C   UNL     1       0.001  -0.002   0.021  0.00  0.00    -0.025 A 
BRANCH  17  18
ATOM     18  C   UNL     1      -1.295  -0.771   0.036  0.00  0.00    +0.126 C 
ATOM     19  C   UNL     1      -2.305  -0.088   0.932  0.00  0.00    +0.014 C 
ATOM     20  C   UNL     1      -3.327   0.246   0.169  0.00  0.00    +0.082 C 
ATOM     21  N   UNL     1      -3.129  -0.132  -1.144  0.00  0.00    -0.287 N 
ATOM     22  N   UNL     1      -1.921  -0.755  -1.301  0.00  0.00    -0.232 NA
ATOM     23  H   UNL     1      -3.764   0.022  -1.861  0.00  0.00    +0.166 HD
ATOM     24  H   UNL     1      -1.342  -0.263  -1.965  0.00  0.00    +0.145 HD
ENDBRANCH  17  18
ENDBRANCH   8  14
ENDBRANCH   1   9
BRANCH   5  25
ATOM     25  C   UNL     1       9.599   1.076   0.509  0.00  0.00    -0.036 C 
BRANCH  25  26
ATOM     26  C   UNL     1      10.873   1.846   0.744  0.00  0.00    -0.026 A 
ATOM     27  C   UNL     1      11.420   2.243   1.914  0.00  0.00    +0.026 A 
ATOM     28  C   UNL     1      12.620   2.952   1.893  0.00  0.00    +0.032 A 
ATOM     29  C   UNL     1      13.197   3.219   0.681  0.00  0.00    +0.062 A 
ATOM     30  S   UNL     1      12.047   2.459  -0.453  0.00  0.00    -0.102 S 
BRANCH  28  31
ATOM     31  C   UNL     1      13.233   3.391   3.111  0.00  0.00    -0.063 C 
ATOM     32  C   UNL     1      13.735   3.751   4.109  0.00  0.00    -0.069 C 
BRANCH  32  33
ATOM     33  C   UNL     1      14.366   4.202   5.360  0.00  0.00    +0.244 C 
BRANCH  33  34
ATOM     34  O   UNL     1      15.576   4.900   5.059  0.00  0.00    -0.383 OA
ATOM     35  H   UNL     1      16.045   5.227   5.838  0.00  0.00    +0.211 HD
ENDBRANCH  33  34
ENDBRANCH  32  33
ENDBRANCH  28  31
ENDBRANCH  25  26
ENDBRANCH   5  25
TORSDOF 8
