REMARK  Name = ZINC46368181
REMARK  9 active torsions:
REMARK  status: ('A' for Active; 'I' for Inactive)
REMARK    1  A    between atoms: C_1  and  C_2
REMARK    2  A    between atoms: N_7  and  C_9
REMARK    3  A    between atoms: C_9  and  C_11
REMARK    4  A    between atoms: C_9  and  C_12
REMARK    5  A    between atoms: C_12  and  N_13
REMARK    6  A    between atoms: N_16  and  N_17
REMARK    7  A    between atoms: C_18  and  C_20
REMARK    8  A    between atoms: C_20  and  O_21
REMARK    9  A    between atoms: O_21  and  C_22
REMARK                            x       y       z     vdW  Elec       q    Type
REMARK                         _______ _______ _______ _____ _____    ______ ____
ROOT
ATOM      1  N   UNL     1       3.065  -0.566   2.179  0.00  0.00    -0.300 N 
ATOM      2  C   UNL     1       4.245   0.042   1.946  0.00  0.00    +0.316 C 
ATOM      3  O   UNL     1       5.250  -0.623   1.785  0.00  0.00    -0.251 OA
ATOM      4  N   UNL     1       4.311   1.387   1.890  0.00  0.00    -0.218 N 
ATOM      5  H   UNL     1       2.263  -0.035   2.308  0.00  0.00    +0.150 HD
ATOM      6  H   UNL     1       5.160   1.824   1.722  0.00  0.00    +0.174 HD
ENDROOT
BRANCH   4   7
ATOM      7  N   UNL     1       3.153   2.153   2.076  0.00  0.00    -0.230 N 
ATOM      8  C   UNL     1       3.219   3.498   2.021  0.00  0.00    +0.267 C 
ATOM      9  O   UNL     1       4.281   4.045   1.810  0.00  0.00    -0.271 OA
ATOM     10  H   UNL     1       2.304   1.716   2.244  0.00  0.00    +0.173 HD
BRANCH   8  11
ATOM     11  C   UNL     1       1.974   4.323   2.220  0.00  0.00    +0.326 C 
BRANCH  11  12
ATOM     12  O   UNL     1       2.299   5.710   2.116  0.00  0.00    -0.480 OA
BRANCH  12  13
ATOM     13  C   UNL     1       1.280   6.597   2.272  0.00  0.00    +0.156 A 
ATOM     14  C   UNL     1      -0.005   6.141   2.526  0.00  0.00    +0.048 A 
ATOM     15  C   UNL     1      -1.039   7.043   2.684  0.00  0.00    +0.004 A 
ATOM     16  C   UNL     1      -0.795   8.401   2.590  0.00  0.00    +0.003 A 
ATOM     17  C   UNL     1       0.484   8.860   2.337  0.00  0.00    +0.042 A 
ATOM     18  C   UNL     1       1.525   7.961   2.184  0.00  0.00    +0.165 A 
ATOM     19  F   UNL     1       2.776   8.409   1.943  0.00  0.00    -0.202 F 
ENDBRANCH  12  13
ENDBRANCH  11  12
ENDBRANCH   8  11
ENDBRANCH   4   7
BRANCH   1  20
ATOM     20  C   UNL     1       2.993  -2.028   2.239  0.00  0.00    +0.090 C 
BRANCH  20  21
ATOM     21  C   UNL     1       1.532  -2.462   2.378  0.00  0.00    -0.054 C 
ATOM     22  C   UNL     1       1.446  -3.988   2.322  0.00  0.00    -0.012 C 
BRANCH  21  28
ATOM     23  C   UNL     1      -2.991  -1.831   0.615  0.00  0.00    +0.005 C 
ATOM     24  C   UNL     1      -1.510  -1.518   0.393  0.00  0.00    -0.031 C 
ATOM     25  C   UNL     1      -1.072  -2.058  -0.971  0.00  0.00    -0.001 C 
ATOM     26  C   UNL     1       0.429  -1.810  -1.150  0.00  0.00    -0.018 C 
ATOM     27  C   UNL     1       1.190  -2.464   0.005  0.00  0.00    -0.078 C 
ATOM     28  N   UNL     1       0.745  -1.886   1.279  0.00  0.00    +0.383 N 
ATOM     29  C   UNL     1      -0.677  -2.182   1.492  0.00  0.00    -0.075 C 
ATOM     30  H   UNL     1       0.879  -0.887   1.259  0.00  0.00    -0.081 HD
ENDBRANCH  21  28
ENDBRANCH  20  21
ENDBRANCH   1  20
TORSDOF 7
