REMARK  Name = ZINC07098603
REMARK  5 active torsions:
REMARK  status: ('A' for Active; 'I' for Inactive)
REMARK    1  A    between atoms: C_1  and  C_2
REMARK    2  A    between atoms: C_8  and  C_10
REMARK    3  A    between atoms: C_10  and  C_12
REMARK    4  A    between atoms: C_10  and  S_13
REMARK    5  A    between atoms: S_13  and  C_14
REMARK                            x       y       z     vdW  Elec       q    Type
REMARK                         _______ _______ _______ _____ _____    ______ ____
ROOT
ATOM      1  C   UNL     1      -6.100  -5.531  -0.788  0.00  0.00    +0.176 A 
ATOM      2  N   UNL     1      -5.479  -6.597  -0.354  0.00  0.00    -0.223 NA
ATOM      3  C   UNL     1      -6.056  -7.824  -0.375  0.00  0.00    +0.077 A 
ATOM      4  C   UNL     1      -5.379  -8.953   0.092  0.00  0.00    +0.028 A 
ATOM      5  C   UNL     1      -5.996 -10.183   0.056  0.00  0.00    +0.002 A 
ATOM      6  C   UNL     1      -7.285 -10.317  -0.441  0.00  0.00    +0.001 A 
ATOM      7  C   UNL     1      -7.974  -9.218  -0.907  0.00  0.00    +0.013 A 
ATOM      8  C   UNL     1      -7.368  -7.964  -0.879  0.00  0.00    +0.043 A 
ATOM      9  C   UNL     1      -8.057  -6.758  -1.364  0.00  0.00    +0.150 A 
ATOM     10  N   UNL     1      -7.375  -5.564  -1.290  0.00  0.00    -0.271 N 
ATOM     11  C   UNL     1      -8.216  -4.587  -1.791  0.00  0.00    +0.076 A 
ATOM     12  C   UNL     1      -8.095  -3.216  -1.976  0.00  0.00    +0.028 A 
ATOM     13  C   UNL     1      -9.146  -2.504  -2.515  0.00  0.00    +0.002 A 
ATOM     14  C   UNL     1     -10.322  -3.147  -2.874  0.00  0.00    +0.002 A 
ATOM     15  C   UNL     1     -10.460  -4.494  -2.699  0.00  0.00    +0.030 A 
ATOM     16  C   UNL     1      -9.408  -5.239  -2.154  0.00  0.00    +0.090 A 
ATOM     17  N   UNL     1      -9.248  -6.556  -1.878  0.00  0.00    -0.227 NA
ENDROOT
BRANCH   1  18
ATOM     18  S   UNL     1      -5.263  -3.982  -0.718  0.00  0.00    -0.075 S 
BRANCH  18  19
ATOM     19  C   UNL     1      -3.646  -4.389  -0.006  0.00  0.00    +0.137 C 
ATOM     20  C   UNL     1      -3.831  -4.886   1.429  0.00  0.00    +0.029 C 
BRANCH  19  28
ATOM     21  C   UNL     1      -0.018   1.503   0.010  0.00  0.00    +0.089 C 
ATOM     22  C   UNL     1       0.002  -0.004   0.002  0.00  0.00    +0.136 A 
ATOM     23  C   UNL     1      -1.076  -0.808   0.003  0.00  0.00    +0.091 A 
ATOM     24  C   UNL     1      -0.625  -2.147  -0.007  0.00  0.00    +0.168 A 
ATOM     25  N   UNL     1       0.683  -2.130  -0.013  0.00  0.00    -0.063 NA
ATOM     26  O   UNL     1       1.100  -0.776  -0.013  0.00  0.00    -0.358 OA
ATOM     27  N   UNL     1      -1.432  -3.285  -0.010  0.00  0.00    -0.267 N 
ATOM     28  C   UNL     1      -2.774  -3.159  -0.003  0.00  0.00    +0.231 C 
ATOM     29  O   UNL     1      -3.280  -2.057   0.006  0.00  0.00    -0.274 OA
ATOM     30  H   UNL     1      -1.027  -4.166  -0.017  0.00  0.00    +0.156 HD
ENDBRANCH  19  28
ENDBRANCH  18  19
ENDBRANCH   1  18
TORSDOF 3
