REMARK  Name = ZINC12004465
REMARK  10 active torsions:
REMARK  status: ('A' for Active; 'I' for Inactive)
REMARK    1  A    between atoms: C_1  and  C_2
REMARK    2  A    between atoms: C_2  and  C_3
REMARK    3  A    between atoms: C_2  and  N_4
REMARK    4  A    between atoms: N_4  and  C_5
REMARK    5  A    between atoms: C_5  and  C_6
REMARK    6  A    between atoms: C_6  and  O_7
REMARK    7  A    between atoms: C_8  and  C_10
REMARK    8  A    between atoms: C_10  and  C_11
REMARK    9  A    between atoms: C_18  and  C_19
REMARK   10  A    between atoms: C_18  and  N_57
REMARK                            x       y       z     vdW  Elec       q    Type
REMARK                         _______ _______ _______ _____ _____    ______ ____
ROOT
ATOM      1  C   UNL     1       1.520   4.104   4.865  0.00  0.00    +0.028 C 
ATOM      2  C   UNL     1       0.724   4.555   6.057  0.00  0.00    +0.200 C 
ATOM      3  O   UNL     1      -0.335   5.116   5.870  0.00  0.00    -0.278 OA
ATOM      4  N   UNL     1       1.133   4.362   7.315  0.00  0.00    -0.318 N 
ATOM      5  C   UNL     1       2.373   3.666   7.649  0.00  0.00    +0.085 C 
ATOM      6  C   UNL     1       3.292   3.618   6.426  0.00  0.00    -0.059 C 
ATOM      7  H   UNL     1       0.583   4.700   8.039  0.00  0.00    +0.149 HD
ATOM      8  N   UNL     1       2.510   3.097   5.287  0.00  0.00    +0.389 N 
ATOM      9  H   UNL     1       2.018   2.244   5.579  0.00  0.00    -0.081 HD
ENDROOT
BRANCH   1  10
ATOM     10  C   UNL     1       0.579   3.477   3.834  0.00  0.00    +0.090 C 
BRANCH  10  12
ATOM     11  N   UNL     1      -1.016   1.589   3.734  0.00  0.00    -0.297 N 
ATOM     12  C   UNL     1      -0.065   2.249   4.424  0.00  0.00    +0.215 C 
ATOM     13  O   UNL     1       0.272   1.854   5.520  0.00  0.00    -0.276 OA
BRANCH  11  15
ATOM     14  C   UNL     1      -1.286   0.929   1.394  0.00  0.00    +0.028 C 
ATOM     15  C   UNL     1      -1.423   2.065   2.410  0.00  0.00    +0.070 C 
ATOM     16  C   UNL     1      -2.880   2.530   2.461  0.00  0.00    +0.028 C 
ENDBRANCH  11  15
BRANCH  11  17
ATOM     17  C   UNL     1      -1.642   0.395   4.307  0.00  0.00    +0.136 C 
BRANCH  17  18
ATOM     18  C   UNL     1      -0.780  -0.831   4.000  0.00  0.00    +0.174 C 
BRANCH  18  19
ATOM     19  O   UNL     1       0.481  -0.704   4.660  0.00  0.00    -0.393 OA
ATOM     20  H   UNL     1       1.081  -1.448   4.509  0.00  0.00    +0.209 HD
ENDBRANCH  18  19
ENDBRANCH  17  18
ENDBRANCH  11  17
ENDBRANCH  10  12
ENDBRANCH   1  10
BRANCH   8  21
ATOM     21  C   UNL     1       3.412   2.769   4.159  0.00  0.00    -0.074 C 
BRANCH  21  22
ATOM     22  C   UNL     1       3.850   1.309   4.287  0.00  0.00    -0.028 C 
ATOM     23  C   UNL     1       4.643   1.125   5.582  0.00  0.00    +0.002 C 
ATOM     24  C   UNL     1       5.081  -0.335   5.710  0.00  0.00    +0.000 C 
ATOM     25  C   UNL     1       5.960  -0.710   4.515  0.00  0.00    +0.000 C 
ATOM     26  C   UNL     1       5.167  -0.527   3.220  0.00  0.00    +0.000 C 
ATOM     27  C   UNL     1       4.729   0.934   3.092  0.00  0.00    +0.002 C 
ENDBRANCH  21  22
ENDBRANCH   8  21
TORSDOF 8
