REMARK  Name = ZINC67236826
REMARK  9 active torsions:
REMARK  status: ('A' for Active; 'I' for Inactive)
REMARK    1  A    between atoms: C_1  and  C_2
REMARK    2  A    between atoms: C_2  and  N_3
REMARK    3  A    between atoms: N_6  and  N_7
REMARK    4  A    between atoms: C_8  and  C_10
REMARK    5  A    between atoms: C_17  and  O_19
REMARK    6  A    between atoms: O_19  and  C_20
REMARK    7  A    between atoms: C_20  and  C_21
REMARK    8  A    between atoms: C_20  and  C_22
REMARK    9  A    between atoms: C_20  and  C_23
REMARK                            x       y       z     vdW  Elec       q    Type
REMARK                         _______ _______ _______ _____ _____    ______ ____
ROOT
ATOM      1  C   UNL     1       3.136  -0.762  -5.570  0.00  0.00    +0.167 C 
ATOM      2  C   UNL     1       2.045  -0.346  -6.561  0.00  0.00    +0.032 C 
ATOM      3  C   UNL     1       2.654   0.560  -7.634  0.00  0.00    +0.004 C 
ATOM      4  C   UNL     1       3.735  -0.207  -8.399  0.00  0.00    +0.019 C 
ATOM      5  C   UNL     1       4.845  -0.621  -7.428  0.00  0.00    +0.112 C 
ATOM      6  N   UNL     1       4.248  -1.370  -6.313  0.00  0.00    -0.256 N 
ATOM      7  C   UNL     1       4.709  -2.592  -5.981  0.00  0.00    +0.404 C 
ATOM      8  O   UNL     1       4.157  -3.233  -5.109  0.00  0.00    -0.226 OA
ENDROOT
BRANCH   1  10
ATOM      9  N   UNL     1       2.705  -1.552  -3.266  0.00  0.00    -0.232 N 
ATOM     10  C   UNL     1       2.576  -1.762  -4.591  0.00  0.00    +0.250 C 
ATOM     11  O   UNL     1       2.009  -2.754  -4.996  0.00  0.00    -0.272 OA
ATOM     12  H   UNL     1       3.158  -0.758  -2.942  0.00  0.00    +0.173 HD
BRANCH   9  16
ATOM     13  N   UNL     1       2.942  -1.170  -0.581  0.00  0.00    -0.298 N 
ATOM     14  C   UNL     1       2.312  -2.273  -1.031  0.00  0.00    +0.316 C 
ATOM     15  O   UNL     1       1.860  -3.080  -0.242  0.00  0.00    -0.251 OA
ATOM     16  N   UNL     1       2.184  -2.482  -2.356  0.00  0.00    -0.218 N 
ATOM     17  H   UNL     1       3.303  -0.526  -1.211  0.00  0.00    +0.150 HD
ATOM     18  H   UNL     1       1.730  -3.276  -2.680  0.00  0.00    +0.174 HD
BRANCH  13  20
ATOM     19  C   UNL     1       3.829   0.371   1.099  0.00  0.00    +0.024 C 
ATOM     20  C   UNL     1       3.082  -0.942   0.860  0.00  0.00    +0.102 C 
ENDBRANCH  13  20
ENDBRANCH   9  16
ENDBRANCH   1  10
BRANCH   7  21
ATOM     21  O   UNL     1       5.780  -3.103  -6.617  0.00  0.00    -0.445 OA
BRANCH  21  22
ATOM     22  C   UNL     1       6.214  -4.404  -6.214  0.00  0.00    +0.107 C 
ATOM     23  C   UNL     1       5.084  -5.410  -6.439  0.00  0.00    +0.055 C 
ATOM     24  C   UNL     1       7.434  -4.813  -7.042  0.00  0.00    +0.055 C 
ATOM     25  C   UNL     1       6.588  -4.380  -4.731  0.00  0.00    +0.055 C 
ENDBRANCH  21  22
ENDBRANCH   7  21
TORSDOF 5
