REMARK  Name = ZINC08744458
REMARK  8 active torsions:
REMARK  status: ('A' for Active; 'I' for Inactive)
REMARK    1  A    between atoms: C_1  and  C_2
REMARK    2  A    between atoms: C_4  and  C_17
REMARK    3  A    between atoms: C_5  and  C_16
REMARK    4  A    between atoms: N_6  and  C_7
REMARK    5  A    between atoms: C_10  and  N_13
REMARK    6  A    between atoms: N_13  and  C_14
REMARK    7  A    between atoms: N_13  and  C_15
REMARK    8  A    between atoms: N_23  and  C_26
REMARK                            x       y       z     vdW  Elec       q    Type
REMARK                         _______ _______ _______ _____ _____    ______ ____
ROOT
ATOM      1  C   UNL     1      -0.555  -3.926  -1.516  0.00  0.00    +0.028 C 
ATOM      2  C   UNL     1      -0.084  -3.819  -2.815  0.00  0.00    +0.102 C 
ATOM      3  C   UNL     1       0.323  -2.518  -3.385  0.00  0.00    +0.276 C 
ATOM      4  N   UNL     1       0.770  -2.488  -4.652  0.00  0.00    -0.123 NA
ATOM      5  C   UNL     1       0.854  -3.570  -5.384  0.00  0.00    +0.340 C 
ATOM      6  O   UNL     1       1.313  -3.451  -6.645  0.00  0.00    -0.250 OA
ATOM      7  N   UNL     1       0.503  -4.808  -4.943  0.00  0.00    -0.188 N 
ATOM      8  C   UNL     1       0.040  -4.999  -3.689  0.00  0.00    +0.264 C 
ATOM      9  O   UNL     1      -0.268  -6.108  -3.295  0.00  0.00    -0.269 OA
ATOM     10  O   UNL     1       0.254  -1.497  -2.723  0.00  0.00    -0.268 OA
ENDROOT
BRANCH   1  14
ATOM     11  C   UNL     1      -2.229   0.653  -0.206  0.00  0.00    +0.064 C 
ATOM     12  C   UNL     1      -1.593  -0.713  -0.195  0.00  0.00    +0.022 A 
ATOM     13  C   UNL     1      -1.555  -1.560  -1.236  0.00  0.00    +0.031 A 
ATOM     14  C   UNL     1      -0.841  -2.759  -0.770  0.00  0.00    -0.003 A 
ATOM     15  C   UNL     1      -0.507  -2.509   0.554  0.00  0.00    +0.028 A 
ATOM     16  N   UNL     1      -0.960  -1.283   0.875  0.00  0.00    -0.317 N 
ATOM     17  C   UNL     1       0.238  -3.445   1.471  0.00  0.00    +0.064 C 
BRANCH  16  18
ATOM     18  C   UNL     1      -0.807  -0.677   2.130  0.00  0.00    +0.047 A 
ATOM     19  C   UNL     1       0.460  -0.345   2.591  0.00  0.00    +0.028 A 
ATOM     20  C   UNL     1       0.611   0.252   3.826  0.00  0.00    +0.025 A 
ATOM     21  C   UNL     1      -0.505   0.520   4.609  0.00  0.00    +0.029 A 
ATOM     22  C   UNL     1      -1.772   0.188   4.148  0.00  0.00    +0.025 A 
ATOM     23  C   UNL     1      -1.923  -0.404   2.910  0.00  0.00    +0.028 A 
BRANCH  21  24
ATOM     24  N   UNL     1      -0.352   1.124   5.860  0.00  0.00    -0.336 N 
ATOM     25  C   UNL     1       0.969   1.584   6.295  0.00  0.00    +0.129 C 
ATOM     26  C   UNL     1      -1.514   1.297   6.737  0.00  0.00    +0.129 C 
ENDBRANCH  21  24
ENDBRANCH  16  18
ENDBRANCH   1  14
BRANCH   7  27
ATOM     27  C   UNL     1       0.628  -5.907  -5.804  0.00  0.00    +0.046 A 
ATOM     28  C   UNL     1      -0.503  -6.585  -6.237  0.00  0.00    +0.025 A 
ATOM     29  C   UNL     1      -0.377  -7.666  -7.086  0.00  0.00    +0.017 A 
ATOM     30  C   UNL     1       0.877  -8.075  -7.505  0.00  0.00    +0.018 A 
ATOM     31  C   UNL     1       2.007  -7.402  -7.075  0.00  0.00    +0.017 A 
ATOM     32  C   UNL     1       1.885  -6.316  -6.231  0.00  0.00    +0.025 A 
ATOM     33 BR   UNL     1       1.047  -9.558  -8.667  0.00  0.00    -0.050 Br
ENDBRANCH   7  27
TORSDOF 4
