REMARK  Name = ZINC22536072
REMARK  6 active torsions:
REMARK  status: ('A' for Active; 'I' for Inactive)
REMARK    1  A    between atoms: C_1  and  C_2
REMARK    2  A    between atoms: C_5  and  C_8
REMARK    3  A    between atoms: C_13  and  C_25
REMARK    4  A    between atoms: C_18  and  C_20
REMARK    5  A    between atoms: C_30  and  O_31
REMARK    6  A    between atoms: O_31  and  C_32
REMARK                            x       y       z     vdW  Elec       q    Type
REMARK                         _______ _______ _______ _____ _____    ______ ____
ROOT
ATOM      1  C   UNL     1       0.059  -4.275  -0.021  0.00  0.00    +0.032 C 
ATOM      2  C   UNL     1       1.311  -4.779   0.701  0.00  0.00    +0.060 C 
ATOM      3  C   UNL     1       1.308  -6.289   0.726  0.00  0.00    +0.020 C 
ATOM      4  C   UNL     1       0.149  -6.980   0.774  0.00  0.00    +0.041 C 
ATOM      5  C   UNL     1       0.115  -8.492   0.818  0.00  0.00    +0.179 C 
ATOM      6  N   UNL     1       1.422  -9.030   0.462  0.00  0.00    -0.220 N 
ATOM      7  C   UNL     1       2.550  -8.279   0.412  0.00  0.00    +0.219 A 
ATOM      8  N   UNL     1       3.538  -9.058   0.072  0.00  0.00    -0.189 NA
ATOM      9  C   UNL     1       3.085 -10.303  -0.107  0.00  0.00    +0.256 A 
ATOM     10  N   UNL     1       1.795 -10.329   0.121  0.00  0.00    -0.143 NA
ATOM     11  N   UNL     1       2.528  -6.922   0.691  0.00  0.00    -0.287 N 
ATOM     12  C   UNL     1      -1.089  -6.311   0.781  0.00  0.00    +0.164 C 
ATOM     13  O   UNL     1      -2.114  -6.961   0.841  0.00  0.00    -0.292 OA
ATOM     14  C   UNL     1      -1.172  -4.812   0.716  0.00  0.00    +0.088 C 
ATOM     15  H   UNL     1       3.349  -6.433   0.857  0.00  0.00    +0.155 HD
ENDROOT
BRANCH   1  20
ATOM     16  C   UNL     1      -0.018   1.503   0.010  0.00  0.00    +0.044 C 
ATOM     17  C   UNL     1       0.002  -0.004   0.002  0.00  0.00    -0.050 A 
ATOM     18  C   UNL     1       0.006  -0.689  -1.199  0.00  0.00    +0.003 A 
ATOM     19  C   UNL     1       0.025  -2.071  -1.206  0.00  0.00    +0.004 A 
ATOM     20  C   UNL     1       0.040  -2.768  -0.013  0.00  0.00    -0.043 A 
ATOM     21  C   UNL     1       0.037  -2.084   1.188  0.00  0.00    +0.004 A 
ATOM     22  C   UNL     1       0.023  -0.702   1.195  0.00  0.00    +0.003 A 
ENDBRANCH   1  20
BRANCH   5  23
ATOM     23  C   UNL     1      -0.249  -8.944   2.208  0.00  0.00    +0.023 A 
ATOM     24  C   UNL     1       0.548  -8.591   3.281  0.00  0.00    +0.009 A 
ATOM     25  C   UNL     1       0.216  -9.007   4.557  0.00  0.00    +0.001 A 
ATOM     26  C   UNL     1      -0.915  -9.775   4.763  0.00  0.00    +0.004 A 
ATOM     27  C   UNL     1      -1.716 -10.129   3.695  0.00  0.00    +0.046 A 
ATOM     28  C   UNL     1      -1.387  -9.710   2.414  0.00  0.00    +0.126 A 
BRANCH  28  29
ATOM     29  O   UNL     1      -2.176 -10.052   1.362  0.00  0.00    -0.495 OA
ATOM     30  C   UNL     1      -3.332 -10.842   1.648  0.00  0.00    +0.277 C 
ENDBRANCH  28  29
ENDBRANCH   5  23
BRANCH   9  31
ATOM     31  C   UNL     1       3.925 -11.489  -0.508  0.00  0.00    +0.454 C 
ATOM     32  F   UNL     1       5.278 -11.182  -0.334  0.00  0.00    -0.163 F 
ATOM     33  F   UNL     1       3.589 -12.588   0.290  0.00  0.00    -0.163 F 
ATOM     34  F   UNL     1       3.685 -11.797  -1.851  0.00  0.00    -0.163 F 
ENDBRANCH   9  31
TORSDOF 4
