REMARK  Name = ZINC66174502
REMARK  4 active torsions:
REMARK  status: ('A' for Active; 'I' for Inactive)
REMARK    1  A    between atoms: C_4  and  C_7
REMARK    2  A    between atoms: C_4  and  N_22
REMARK    3  A    between atoms: C_7  and  N_8
REMARK    4  A    between atoms: C_14  and  N_17
REMARK                            x       y       z     vdW  Elec       q    Type
REMARK                         _______ _______ _______ _____ _____    ______ ____
ROOT
ATOM      1  N   UNL     1       4.268   0.032  -0.038  0.00  0.00    -0.297 N 
ATOM      2  C   UNL     1       5.112  -0.287   0.963  0.00  0.00    +0.302 C 
ATOM      3  O   UNL     1       4.732  -0.997   1.874  0.00  0.00    -0.253 OA
ATOM      4  N   UNL     1       6.376   0.179   0.953  0.00  0.00    -0.287 N 
ATOM      5  C   UNL     1       6.962   1.047  -0.079  0.00  0.00    +0.108 C 
ATOM      6  C   UNL     1       8.416   1.344   0.343  0.00  0.00    +0.005 C 
ATOM      7  C   UNL     1       8.393   1.090   1.873  0.00  0.00    -0.049 C 
ATOM      8  C   UNL     1       7.399  -0.091   1.979  0.00  0.00    +0.094 C 
ATOM      9  H   UNL     1       4.571   0.598  -0.766  0.00  0.00    +0.150 HD
ENDROOT
BRANCH   7  10
ATOM     10  N   UNL     1       9.724   0.709   2.364  0.00  0.00    +0.383 N 
ATOM     11  C   UNL     1      10.683   1.825   2.163  0.00  0.00    -0.078 C 
ATOM     12  C   UNL     1      11.803   1.519   3.188  0.00  0.00    -0.020 C 
ATOM     13  C   UNL     1      11.020   0.964   4.401  0.00  0.00    -0.020 C 
ATOM     14  C   UNL     1       9.680   0.472   3.823  0.00  0.00    -0.078 C 
ATOM     15  H   UNL     1      10.047  -0.119   1.886  0.00  0.00    -0.081 HD
ENDBRANCH   7  10
BRANCH   1  16
ATOM     16  C   UNL     1       2.894  -0.475  -0.028  0.00  0.00    +0.128 C 
BRANCH  16  20
ATOM     17  C   UNL     1      -0.019   1.526   0.010  0.00  0.00    +0.000 C 
ATOM     18  C   UNL     1       1.417   2.055  -0.000  0.00  0.00    +0.002 C 
ATOM     19  C   UNL     1       2.133   1.562  -1.259  0.00  0.00    +0.024 C 
ATOM     20  C   UNL     1       2.154   0.032  -1.268  0.00  0.00    +0.038 C 
ATOM     21  C   UNL     1       0.718  -0.497  -1.257  0.00  0.00    +0.024 C 
ATOM     22  C   UNL     1       0.002  -0.004   0.002  0.00  0.00    +0.002 C 
BRANCH  20  23
ATOM     23  N   UNL     1       2.841  -0.442  -2.476  0.00  0.00    -0.291 NA
ATOM     24  C   UNL     1       2.208   0.098  -3.688  0.00  0.00    +0.113 C 
ATOM     25  C   UNL     1       2.990  -0.371  -4.918  0.00  0.00    +0.175 C 
ATOM     26  O   UNL     1       3.044  -1.801  -4.926  0.00  0.00    -0.377 OA
ATOM     27  C   UNL     1       3.656  -2.360  -3.760  0.00  0.00    +0.175 C 
ATOM     28  C   UNL     1       2.880  -1.911  -2.518  0.00  0.00    +0.113 C 
ENDBRANCH  20  23
ENDBRANCH  16  20
ENDBRANCH   1  16
TORSDOF 4
