REMARK  Name = ZINC61551691
REMARK  9 active torsions:
REMARK  status: ('A' for Active; 'I' for Inactive)
REMARK    1  A    between atoms: C_1  and  C_2
REMARK    2  A    between atoms: C_2  and  C_3
REMARK    3  A    between atoms: C_3  and  S_4
REMARK    4  A    between atoms: S_4  and  N_7
REMARK    5  A    between atoms: C_10  and  N_13
REMARK    6  A    between atoms: N_16  and  C_17
REMARK    7  A    between atoms: C_17  and  C_18
REMARK    8  A    between atoms: C_19  and  C_27
REMARK    9  A    between atoms: C_21  and  C_26
REMARK                            x       y       z     vdW  Elec       q    Type
REMARK                         _______ _______ _______ _____ _____    ______ ____
ROOT
ATOM      1  N   UNL     1       3.000  -5.701  -5.221  0.00  0.00    -0.296 N 
ATOM      2  C   UNL     1       4.154  -5.858  -5.898  0.00  0.00    +0.300 C 
ATOM      3  O   UNL     1       4.916  -4.919  -6.026  0.00  0.00    -0.253 OA
ATOM      4  N   UNL     1       4.464  -7.055  -6.434  0.00  0.00    -0.295 N 
ATOM      5  H   UNL     1       2.392  -6.450  -5.119  0.00  0.00    +0.151 HD
ATOM      6  H   UNL     1       3.856  -7.804  -6.332  0.00  0.00    +0.151 HD
ENDROOT
BRANCH   1  10
ATOM      7  N   UNL     1       1.535  -2.719  -2.663  0.00  0.00    -0.181 NA
ATOM      8  C   UNL     1       0.794  -2.908  -3.917  0.00  0.00    +0.111 C 
ATOM      9  C   UNL     1       1.144  -4.283  -4.494  0.00  0.00    +0.039 C 
ATOM     10  C   UNL     1       2.663  -4.400  -4.638  0.00  0.00    +0.077 C 
ATOM     11  C   UNL     1       3.319  -4.272  -3.261  0.00  0.00    +0.039 C 
ATOM     12  C   UNL     1       2.994  -2.891  -2.672  0.00  0.00    +0.111 C 
BRANCH   7  13
ATOM     13  S   UNL     1       0.743  -2.311  -1.267  0.00  0.00    +0.032 S 
ATOM     14  O   UNL     1       1.576  -2.795  -0.222  0.00  0.00    -0.158 OA
ATOM     15  O   UNL     1      -0.574  -2.818  -1.437  0.00  0.00    -0.158 OA
BRANCH  13  16
ATOM     16  C   UNL     1       0.718  -0.497  -1.257  0.00  0.00    +0.185 C 
BRANCH  16  18
ATOM     17  C   UNL     1      -0.019   1.526   0.010  0.00  0.00    +0.005 C 
ATOM     18  C   UNL     1       0.002  -0.004   0.002  0.00  0.00    +0.021 C 
ENDBRANCH  16  18
ENDBRANCH  13  16
ENDBRANCH   7  13
ENDBRANCH   1  10
BRANCH   4  19
ATOM     19  C   UNL     1       5.719  -7.226  -7.170  0.00  0.00    +0.146 C 
BRANCH  19  20
ATOM     20  C   UNL     1       5.824  -8.646  -7.662  0.00  0.00    +0.037 A 
ATOM     21  C   UNL     1       5.425  -8.968  -8.927  0.00  0.00    -0.039 A 
ATOM     22  C   UNL     1       5.533 -10.297  -9.361  0.00  0.00    +0.024 A 
ATOM     23  C   UNL     1       6.028 -11.242  -8.529  0.00  0.00    +0.016 A 
ATOM     24  N   UNL     1       6.424 -10.919  -7.271  0.00  0.00    -0.326 N 
ATOM     25  H   UNL     1       6.776 -11.609  -6.687  0.00  0.00    +0.169 HD
ATOM     26  C   UNL     1       6.338  -9.651  -6.826  0.00  0.00    +0.254 A 
ATOM     27  O   UNL     1       6.702  -9.376  -5.694  0.00  0.00    -0.268 OA
ATOM     28  C   UNL     1       6.140 -12.668  -9.003  0.00  0.00    +0.063 C 
ATOM     29  C   UNL     1       4.875  -7.908  -9.846  0.00  0.00    +0.044 C 
ENDBRANCH  19  20
ENDBRANCH   4  19
TORSDOF 6
