REMARK  Name = ZINC14625138
REMARK  10 active torsions:
REMARK  status: ('A' for Active; 'I' for Inactive)
REMARK    1  A    between atoms: C_1  and  C_2
REMARK    2  A    between atoms: C_2  and  C_3
REMARK    3  A    between atoms: C_3  and  C_4
REMARK    4  A    between atoms: C_4  and  N_5
REMARK    5  A    between atoms: C_6  and  N_37
REMARK    6  A    between atoms: C_7  and  N_14
REMARK    7  A    between atoms: N_14  and  C_15
REMARK    8  A    between atoms: C_15  and  C_16
REMARK    9  A    between atoms: C_22  and  C_24
REMARK   10  A    between atoms: C_33  and  C_36
REMARK                            x       y       z     vdW  Elec       q    Type
REMARK                         _______ _______ _______ _____ _____    ______ ____
ROOT
ATOM      1  N   UNL     1       2.963   4.468  -1.460  0.00  0.00    -0.256 N 
ATOM      2  C   UNL     1       2.340   5.441  -2.154  0.00  0.00    +0.251 C 
ATOM      3  O   UNL     1       1.499   6.132  -1.612  0.00  0.00    -0.270 OA
ENDROOT
BRANCH   2   4
ATOM      4  C   UNL     1       2.678   5.667  -3.572  0.00  0.00    +0.039 A 
ATOM      5  C   UNL     1       3.290   4.653  -4.314  0.00  0.00    +0.014 A 
ATOM      6  C   UNL     1       3.602   4.867  -5.638  0.00  0.00    +0.017 A 
ATOM      7  C   UNL     1       3.311   6.087  -6.233  0.00  0.00    +0.030 A 
ATOM      8  C   UNL     1       2.701   7.112  -5.502  0.00  0.00    +0.048 A 
ATOM      9  C   UNL     1       2.380   6.892  -4.172  0.00  0.00    +0.037 A 
ATOM     10  N   UNL     1       2.408   8.344  -6.081  0.00  0.00    -0.284 N 
ATOM     11  C   UNL     1       2.268   8.590  -7.381  0.00  0.00    +0.230 C 
ATOM     12  O   UNL     1       2.002   9.723  -7.724  0.00  0.00    -0.274 OA
ATOM     13  C   UNL     1       2.421   7.542  -8.449  0.00  0.00    +0.134 C 
ATOM     14  S   UNL     1       3.706   6.363  -7.932  0.00  0.00    -0.111 S 
ATOM     15  C   UNL     1       1.094   6.804  -8.637  0.00  0.00    +0.029 C 
ATOM     16  H   UNL     1       2.295   9.096  -5.479  0.00  0.00    +0.155 HD
ENDBRANCH   2   4
BRANCH   1  19
ATOM     17  N   UNL     1       6.119   3.613  -3.136  0.00  0.00    -0.280 N 
ATOM     18  C   UNL     1       5.123   4.363  -2.555  0.00  0.00    +0.127 A 
ATOM     19  C   UNL     1       4.002   3.727  -2.062  0.00  0.00    +0.140 A 
ATOM     20  C   UNL     1       3.916   2.326  -2.164  0.00  0.00    +0.277 A 
ATOM     21  O   UNL     1       2.938   1.738  -1.732  0.00  0.00    -0.266 OA
ATOM     22  N   UNL     1       4.917   1.639  -2.748  0.00  0.00    -0.273 N 
ATOM     23  H   UNL     1       4.853   0.644  -2.829  0.00  0.00    +0.173 HD
ATOM     24  C   UNL     1       6.002   2.276  -3.223  0.00  0.00    +0.331 A 
ATOM     25  O   UNL     1       6.893   1.631  -3.741  0.00  0.00    -0.246 OA
BRANCH  18  26
ATOM     26  N   UNL     1       5.243   5.729  -2.466  0.00  0.00    -0.343 N 
ATOM     27  H   UNL     1       4.609   6.239  -1.937  0.00  0.00    +0.144 HD
ATOM     28  H   UNL     1       5.962   6.184  -2.932  0.00  0.00    +0.144 HD
ENDBRANCH  18  26
BRANCH  17  29
ATOM     29  C   UNL     1       7.315   4.275  -3.664  0.00  0.00    +0.128 C 
BRANCH  29  30
ATOM     30  C   UNL     1       8.375   4.365  -2.564  0.00  0.00    +0.021 C 
BRANCH  30  32
ATOM     31  C   UNL     1      10.684   5.147  -2.015  0.00  0.00    +0.004 C 
ATOM     32  C   UNL     1       9.624   5.056  -3.115  0.00  0.00    -0.002 C 
ENDBRANCH  30  32
ENDBRANCH  29  30
ENDBRANCH  17  29
ENDBRANCH   1  19
BRANCH   1  33
ATOM     33  C   UNL     1       2.563   4.181  -0.081  0.00  0.00    +0.149 C 
BRANCH  33  34
ATOM     34  C   UNL     1       3.435   4.961   0.869  0.00  0.00    -0.030 A 
ATOM     35  C   UNL     1       3.043   6.216   1.294  0.00  0.00    +0.005 A 
ATOM     36  C   UNL     1       3.843   6.932   2.165  0.00  0.00    +0.000 A 
ATOM     37  C   UNL     1       5.038   6.394   2.607  0.00  0.00    +0.000 A 
ATOM     38  C   UNL     1       5.427   5.136   2.186  0.00  0.00    +0.000 A 
ATOM     39  C   UNL     1       4.627   4.421   1.315  0.00  0.00    +0.005 A 
ENDBRANCH  33  34
ENDBRANCH   1  33
TORSDOF 8
