REMARK  Name = ZINC22762119
REMARK  10 active torsions:
REMARK  status: ('A' for Active; 'I' for Inactive)
REMARK    1  A    between atoms: C_1  and  C_2
REMARK    2  A    between atoms: C_5  and  N_9
REMARK    3  A    between atoms: C_6  and  C_8
REMARK    4  A    between atoms: C_13  and  C_15
REMARK    5  A    between atoms: C_15  and  C_17
REMARK    6  A    between atoms: C_15  and  S_18
REMARK    7  A    between atoms: S_18  and  C_19
REMARK    8  A    between atoms: C_22  and  S_24
REMARK    9  A    between atoms: S_24  and  C_25
REMARK   10  A    between atoms: C_25  and  C_26
REMARK                            x       y       z     vdW  Elec       q    Type
REMARK                         _______ _______ _______ _____ _____    ______ ____
ROOT
ATOM      1  N   UNL     1      -0.785  13.462  -1.437  0.00  0.00    -0.269 N 
ATOM      2  C   UNL     1      -0.807  12.679  -0.341  0.00  0.00    +0.310 C 
ATOM      3  O   UNL     1      -1.002  13.171   0.754  0.00  0.00    -0.252 OA
ATOM      4  N   UNL     1      -0.613  11.350  -0.457  0.00  0.00    -0.239 N 
ATOM      5  C   UNL     1      -0.635  10.568   0.640  0.00  0.00    +0.233 C 
ATOM      6  O   UNL     1      -0.830  11.059   1.731  0.00  0.00    -0.274 OA
ATOM      7  H   UNL     1      -0.518  13.033  -2.414  0.00  0.00    +0.156 HD
ATOM      8  H   UNL     1      -0.437  10.905  -1.447  0.00  0.00    +0.159 HD
ENDROOT
BRANCH   1  13
ATOM      9  C   UNL     1      -2.071  18.971  -1.016  0.00  0.00    +0.044 C 
ATOM     10  C   UNL     1      -1.730  17.508  -1.128  0.00  0.00    -0.050 A 
ATOM     11  C   UNL     1      -2.221  16.611  -0.197  0.00  0.00    +0.005 A 
ATOM     12  C   UNL     1      -1.909  15.270  -0.296  0.00  0.00    +0.024 A 
ATOM     13  C   UNL     1      -1.102  14.821  -1.333  0.00  0.00    +0.038 A 
ATOM     14  C   UNL     1      -0.607  15.724  -2.264  0.00  0.00    -0.029 A 
ATOM     15  C   UNL     1      -0.926  17.064  -2.162  0.00  0.00    +0.008 A 
ATOM     16  C   UNL     1       0.274  15.242  -3.388  0.00  0.00    +0.045 C 
ENDBRANCH   1  13
BRANCH   5  17
ATOM     17  C   UNL     1      -0.418   9.082   0.510  0.00  0.00    +0.136 C 
ATOM     18  C   UNL     1       1.082   8.784   0.507  0.00  0.00    +0.029 C 
BRANCH  17  19
ATOM     19  S   UNL     1      -1.201   8.232   1.908  0.00  0.00    -0.084 S 
BRANCH  19  20
ATOM     20  C   UNL     1      -0.992   6.522   1.539  0.00  0.00    +0.160 A 
ATOM     21  N   UNL     1      -0.408   5.956   0.499  0.00  0.00    -0.134 NA
ATOM     22  N   UNL     1      -0.355   4.585   0.407  0.00  0.00    -0.134 NA
ATOM     23  C   UNL     1      -0.887   3.842   1.358  0.00  0.00    +0.160 A 
ATOM     24  S   UNL     1      -1.519   5.090   2.468  0.00  0.00    -0.033 S 
BRANCH  23  25
ATOM     25  S   UNL     1      -0.961   2.086   1.493  0.00  0.00    -0.088 S 
BRANCH  25  26
ATOM     26  C   UNL     1      -0.122   1.495  -0.003  0.00  0.00    +0.171 C 
BRANCH  26  27
ATOM     27  C   UNL     1      -0.116  -0.012  -0.012  0.00  0.00    +0.221 C 
ATOM     28  O   UNL     1      -0.626  -0.626   0.900  0.00  0.00    -0.275 OA
ATOM     29  N   UNL     1       0.458  -0.677  -1.035  0.00  0.00    -0.329 N 
ATOM     30  H   UNL     1       0.463  -1.777  -1.042  0.00  0.00    +0.145 HD
ATOM     31  H   UNL     1       0.921  -0.119  -1.862  0.00  0.00    +0.145 HD
ENDBRANCH  26  27
ENDBRANCH  25  26
ENDBRANCH  23  25
ENDBRANCH  19  20
ENDBRANCH  17  19
ENDBRANCH   5  17
TORSDOF 7
