REMARK  Name = ZINC52178758
REMARK  4 active torsions:
REMARK  status: ('A' for Active; 'I' for Inactive)
REMARK    1  A    between atoms: C_5  and  N_7
REMARK    2  A    between atoms: N_7  and  C_8
REMARK    3  A    between atoms: C_8  and  C_10
REMARK    4  A    between atoms: C_8  and  C_12
REMARK                            x       y       z     vdW  Elec       q    Type
REMARK                         _______ _______ _______ _____ _____    ______ ____
ROOT
ATOM      1  N   UNL     1       1.237  -2.078  -0.021  0.00  0.00    -0.328 N 
ATOM      2  H   UNL     1       2.085  -2.549  -0.033  0.00  0.00    +0.147 HD
ENDROOT
BRANCH   1   7
ATOM      3  C   UNL     1      -0.017   1.377   0.010  0.00  0.00    +0.002 A 
ATOM      4  C   UNL     1       1.170   2.086   0.002  0.00  0.00    +0.001 A 
ATOM      5  C   UNL     1       2.380   1.417  -0.013  0.00  0.00    +0.017 A 
ATOM      6  C   UNL     1       2.406   0.035  -0.021  0.00  0.00    +0.039 A 
ATOM      7  C   UNL     1       1.215  -0.681  -0.013  0.00  0.00    +0.042 A 
ATOM      8  C   UNL     1       0.002  -0.004   0.002  0.00  0.00    +0.024 A 
ATOM      9 BR   UNL     1       4.061  -0.880  -0.043  0.00  0.00    -0.048 Br
ENDBRANCH   1   7
BRANCH   1  10
ATOM     10  C   UNL     1      -0.019  -2.831  -0.013  0.00  0.00    +0.177 C 
BRANCH  10  11
ATOM     11  C   UNL     1       0.209  -4.211  -0.633  0.00  0.00    +0.028 C 
ATOM     12  C   UNL     1       1.160  -5.020   0.254  0.00  0.00    +0.034 C 
ATOM     13  C   UNL     1       1.320  -6.425  -0.332  0.00  0.00    +0.160 C 
ATOM     14  O   UNL     1       0.037  -7.047  -0.432  0.00  0.00    -0.380 OA
ATOM     15  C   UNL     1      -0.879  -6.360  -1.287  0.00  0.00    +0.160 C 
ATOM     16  C   UNL     1      -1.128  -4.952  -0.739  0.00  0.00    +0.034 C 
ENDBRANCH  10  11
BRANCH  10  17
ATOM     17  C   UNL     1      -0.488  -2.987   1.373  0.00  0.00    +0.085 C 
ATOM     18  N   UNL     1      -0.850  -3.107   2.443  0.00  0.00    -0.195 NA
ENDBRANCH  10  17
ENDBRANCH   1  10
TORSDOF 4
