REMARK  Name = ZINC14246800
REMARK  16 active torsions:
REMARK  status: ('A' for Active; 'I' for Inactive)
REMARK    1  A    between atoms: C_1  and  C_2
REMARK    2  A    between atoms: C_2  and  C_3
REMARK    3  A    between atoms: C_3  and  C_4
REMARK    4  A    between atoms: C_4  and  C_6
REMARK    5  A    between atoms: C_4  and  N_7
REMARK    6  A    between atoms: C_8  and  C_10
REMARK    7  A    between atoms: C_10  and  N_11
REMARK    8  A    between atoms: N_11  and  C_12
REMARK    9  A    between atoms: N_11  and  C_17
REMARK   10  A    between atoms: C_12  and  C_13
REMARK   11  A    between atoms: C_13  and  C_14
REMARK   12  A    between atoms: C_14  and  C_15
REMARK   13  A    between atoms: C_14  and  C_16
REMARK   14  A    between atoms: C_18  and  N_33
REMARK   15  A    between atoms: N_19  and  C_26
REMARK   16  A    between atoms: C_26  and  C_27
REMARK                            x       y       z     vdW  Elec       q    Type
REMARK                         _______ _______ _______ _____ _____    ______ ____
ROOT
ATOM      1  C   UNL     1      -2.178  -2.969   0.236  0.00  0.00    +0.134 A 
ATOM      2  C   UNL     1      -2.288  -3.751   1.354  0.00  0.00    +0.127 A 
ATOM      3  N   UNL     1      -3.442  -4.470   1.563  0.00  0.00    -0.276 N 
ATOM      4  C   UNL     1      -4.450  -4.414   0.673  0.00  0.00    +0.331 A 
ATOM      5  O   UNL     1      -5.461  -5.060   0.872  0.00  0.00    -0.246 OA
ATOM      6  N   UNL     1      -4.357  -3.655  -0.433  0.00  0.00    -0.273 N 
ATOM      7  H   UNL     1      -5.118  -3.628  -1.081  0.00  0.00    +0.173 HD
ATOM      8  C   UNL     1      -3.247  -2.930  -0.677  0.00  0.00    +0.277 A 
ATOM      9  O   UNL     1      -3.171  -2.244  -1.683  0.00  0.00    -0.266 OA
ENDROOT
BRANCH   2  10
ATOM     10  N   UNL     1      -1.256  -3.813   2.263  0.00  0.00    -0.343 N 
ATOM     11  H   UNL     1      -0.446  -3.301   2.112  0.00  0.00    +0.144 HD
ATOM     12  H   UNL     1      -1.339  -4.369   3.053  0.00  0.00    +0.144 HD
ENDBRANCH   2  10
BRANCH   1  13
ATOM     13  N   UNL     1      -1.005  -2.216  -0.000  0.00  0.00    -0.314 N 
BRANCH  13  14
ATOM     14  C   UNL     1      -1.293  -0.775   0.010  0.00  0.00    +0.201 C 
BRANCH  14  16
ATOM     15  N   UNL     1      -0.016   1.344   0.009  0.00  0.00    -0.311 N 
ATOM     16  C   UNL     1       0.002  -0.004   0.002  0.00  0.00    +0.231 C 
ATOM     17  O   UNL     1       1.060  -0.596  -0.011  0.00  0.00    -0.274 OA
ATOM     18  H   UNL     1      -0.863   1.817   0.016  0.00  0.00    +0.149 HD
BRANCH  15  19
ATOM     19  C   UNL     1       1.242   2.093   0.001  0.00  0.00    +0.070 C 
ATOM     20  C   UNL     1       1.759   2.239   1.434  0.00  0.00    +0.028 C 
BRANCH  19  21
ATOM     21  C   UNL     1       1.006   3.481  -0.599  0.00  0.00    +0.022 C 
BRANCH  21  23
ATOM     22  C   UNL     1       0.373   4.727  -2.670  0.00  0.00    +0.004 C 
ATOM     23  C   UNL     1       0.610   3.339  -2.070  0.00  0.00    -0.002 C 
ENDBRANCH  21  23
ENDBRANCH  19  21
ENDBRANCH  15  19
ENDBRANCH  14  16
ENDBRANCH  13  14
BRANCH  13  24
ATOM     24  C   UNL     1      -0.367  -2.616  -1.262  0.00  0.00    +0.106 C 
BRANCH  24  25
ATOM     25  C   UNL     1       0.141  -4.054  -1.143  0.00  0.00    +0.022 C 
BRANCH  25  26
ATOM     26  C   UNL     1       0.805  -4.471  -2.457  0.00  0.00    -0.016 C 
ATOM     27  C   UNL     1       2.053  -3.618  -2.690  0.00  0.00    +0.007 C 
ATOM     28  C   UNL     1       1.202  -5.947  -2.382  0.00  0.00    +0.007 C 
ENDBRANCH  25  26
ENDBRANCH  24  25
ENDBRANCH  13  24
ENDBRANCH   1  13
BRANCH   3  29
ATOM     29  C   UNL     1      -3.573  -5.306   2.759  0.00  0.00    +0.163 C 
BRANCH  29  30
ATOM     30  C   UNL     1      -3.055  -6.690   2.463  0.00  0.00    -0.028 A 
ATOM     31  C   UNL     1      -3.913  -7.661   1.980  0.00  0.00    +0.005 A 
ATOM     32  C   UNL     1      -3.437  -8.929   1.704  0.00  0.00    +0.000 A 
ATOM     33  C   UNL     1      -2.105  -9.230   1.921  0.00  0.00    +0.000 A 
ATOM     34  C   UNL     1      -1.248  -8.261   2.409  0.00  0.00    +0.000 A 
ATOM     35  C   UNL     1      -1.723  -6.991   2.680  0.00  0.00    +0.005 A 
ENDBRANCH  29  30
ENDBRANCH   3  29
TORSDOF 12
