REMARK  Name = ZINC14458252
REMARK  5 active torsions:
REMARK  status: ('A' for Active; 'I' for Inactive)
REMARK    1  A    between atoms: C_1  and  C_2
REMARK    2  A    between atoms: C_5  and  C_8
REMARK    3  A    between atoms: C_19  and  S_24
REMARK    4  A    between atoms: S_24  and  N_27
REMARK    5  A    between atoms: N_27  and  C_28
REMARK                            x       y       z     vdW  Elec       q    Type
REMARK                         _______ _______ _______ _____ _____    ______ ____
ROOT
ATOM      1  C   UNL     1       4.333  -5.535  -0.710  0.00  0.00    +0.105 C 
ATOM      2  C   UNL     1       2.936  -5.042  -0.382  0.00  0.00    +0.029 C 
ATOM      3  C   UNL     1       2.210  -4.223  -1.458  0.00  0.00    +0.033 C 
ATOM      4  C   UNL     1       0.746  -4.553  -1.161  0.00  0.00    -0.030 C 
ATOM      5  C   UNL     1       0.659  -5.735  -0.562  0.00  0.00    -0.023 C 
ATOM      6  C   UNL     1       2.030  -6.310  -0.409  0.00  0.00    +0.049 C 
ATOM      7  C   UNL     1       2.421  -7.170   0.730  0.00  0.00    -0.018 A 
ATOM      8  C   UNL     1       1.508  -7.926   1.433  0.00  0.00    +0.034 A 
ATOM      9  C   UNL     1       1.925  -8.725   2.481  0.00  0.00    +0.109 A 
ATOM     10  C   UNL     1       3.263  -8.768   2.828  0.00  0.00    +0.030 A 
ATOM     11  C   UNL     1       4.183  -8.010   2.134  0.00  0.00    +0.025 A 
ATOM     12  C   UNL     1       3.774  -7.199   1.083  0.00  0.00    +0.031 A 
ATOM     13  N   UNL     1       4.723  -6.413   0.414  0.00  0.00    -0.336 N 
ATOM     14  H   UNL     1       5.652  -6.444   0.694  0.00  0.00    +0.147 HD
ENDROOT
BRANCH   1  19
ATOM     15  C   UNL     1       7.979  -1.070  -1.117  0.00  0.00    +0.044 C 
ATOM     16  C   UNL     1       7.028  -2.235  -1.011  0.00  0.00    -0.050 A 
ATOM     17  C   UNL     1       6.539  -2.834  -2.156  0.00  0.00    +0.004 A 
ATOM     18  C   UNL     1       5.668  -3.902  -2.059  0.00  0.00    +0.006 A 
ATOM     19  C   UNL     1       5.285  -4.371  -0.816  0.00  0.00    -0.027 A 
ATOM     20  C   UNL     1       5.774  -3.772   0.329  0.00  0.00    +0.006 A 
ATOM     21  C   UNL     1       6.649  -2.707   0.232  0.00  0.00    +0.004 A 
ENDBRANCH   1  19
BRANCH   9  22
ATOM     22  S   UNL     1       0.751  -9.687   3.376  0.00  0.00    +0.072 S 
ATOM     23  O   UNL     1       1.258  -9.821   4.697  0.00  0.00    -0.150 OA
ATOM     24  O   UNL     1      -0.526  -9.127   3.103  0.00  0.00    -0.150 OA
BRANCH  22  25
ATOM     25  N   UNL     1       0.754 -11.204   2.713  0.00  0.00    -0.216 N 
ATOM     26  H   UNL     1       1.020 -11.968   3.249  0.00  0.00    +0.174 HD
BRANCH  25  27
ATOM     27  C   UNL     1       0.373 -11.385   1.381  0.00  0.00    +0.048 A 
ATOM     28  C   UNL     1      -0.969 -11.318   1.026  0.00  0.00    +0.024 A 
ATOM     29  C   UNL     1      -1.342 -11.496  -0.292  0.00  0.00    +0.002 A 
ATOM     30  C   UNL     1      -0.382 -11.742  -1.257  0.00  0.00    +0.000 A 
ATOM     31  C   UNL     1       0.954 -11.810  -0.906  0.00  0.00    +0.002 A 
ATOM     32  C   UNL     1       1.335 -11.627   0.408  0.00  0.00    +0.024 A 
ENDBRANCH  25  27
ENDBRANCH  22  25
ENDBRANCH   9  22
TORSDOF 4
