REMARK  Name = ZINC15708088
REMARK  7 active torsions:
REMARK  status: ('A' for Active; 'I' for Inactive)
REMARK    1  A    between atoms: C_4  and  N_7
REMARK    2  A    between atoms: C_8  and  C_10
REMARK    3  A    between atoms: C_10  and  C_11
REMARK    4  A    between atoms: C_11  and  C_12
REMARK    5  A    between atoms: C_21  and  N_24
REMARK    6  A    between atoms: N_24  and  S_25
REMARK    7  A    between atoms: S_25  and  C_28
REMARK                            x       y       z     vdW  Elec       q    Type
REMARK                         _______ _______ _______ _____ _____    ______ ____
ROOT
ATOM      1  C   UNL     1      -0.106  -0.043   0.359  0.00  0.00    -0.050 C 
ATOM      2  C   UNL     1       0.533  -0.733   1.574  0.00  0.00    +0.089 C 
ATOM      3  N   UNL     1       1.631   0.044   2.132  0.00  0.00    -0.318 N 
ATOM      4  C   UNL     1       1.928   1.311   1.782  0.00  0.00    +0.200 C 
ATOM      5  O   UNL     1       2.792   1.925   2.371  0.00  0.00    -0.278 OA
ATOM      6  C   UNL     1       1.180   1.948   0.657  0.00  0.00    +0.021 C 
ATOM      7  C   UNL     1      -0.928   2.242  -0.267  0.00  0.00    -0.057 C 
ATOM      8  C   UNL     1      -0.445   3.668   0.121  0.00  0.00    +0.059 C 
ATOM      9  C   UNL     1       0.940   3.452   0.786  0.00  0.00    +0.012 C 
ATOM     10  H   UNL     1       2.188  -0.380   2.804  0.00  0.00    +0.149 HD
ATOM     11  N   UNL     1      -0.153   1.427   0.689  0.00  0.00    +0.391 N 
ATOM     12  H   UNL     1      -0.555   1.538   1.627  0.00  0.00    -0.080 HD
ENDROOT
BRANCH   8  13
ATOM     13  N   UNL     1      -1.376   4.283   1.070  0.00  0.00    -0.189 NA
ATOM     14  H   UNL     1      -1.331   4.055   2.011  0.00  0.00    +0.148 HD
BRANCH  13  15
ATOM     15  S   UNL     1      -2.507   5.369   0.535  0.00  0.00    +0.059 S 
ATOM     16  O   UNL     1      -3.264   5.760   1.671  0.00  0.00    -0.153 OA
ATOM     17  O   UNL     1      -1.816   6.306  -0.280  0.00  0.00    -0.153 OA
BRANCH  15  18
ATOM     18  C   UNL     1      -3.608   4.494  -0.527  0.00  0.00    +0.105 A 
ATOM     19  C   UNL     1      -3.346   4.418  -1.882  0.00  0.00    +0.031 A 
ATOM     20  C   UNL     1      -4.206   3.727  -2.715  0.00  0.00    +0.040 A 
ATOM     21  C   UNL     1      -5.335   3.120  -2.193  0.00  0.00    +0.124 A 
ATOM     22  C   UNL     1      -5.599   3.201  -0.836  0.00  0.00    +0.040 A 
ATOM     23  C   UNL     1      -4.735   3.888  -0.005  0.00  0.00    +0.031 A 
ATOM     24  F   UNL     1      -6.179   2.449  -3.007  0.00  0.00    -0.205 F 
ENDBRANCH  15  18
ENDBRANCH  13  15
ENDBRANCH   8  13
BRANCH   1  25
ATOM     25  C   UNL     1      -1.505  -0.611   0.115  0.00  0.00    -0.005 C 
BRANCH  25  26
ATOM     26  C   UNL     1      -1.393  -2.069  -0.335  0.00  0.00    +0.094 C 
BRANCH  26  28
ATOM     27  N   UNL     1      -2.907  -3.866  -1.108  0.00  0.00    -0.285 N 
ATOM     28  C   UNL     1      -2.761  -2.595  -0.683  0.00  0.00    +0.217 C 
ATOM     29  O   UNL     1      -3.732  -1.874  -0.582  0.00  0.00    -0.275 OA
ATOM     30  H   UNL     1      -2.144  -4.465  -1.116  0.00  0.00    +0.155 HD
BRANCH  27  34
ATOM     31  C   UNL     1      -6.634  -5.221  -2.385  0.00  0.00    +0.000 A 
ATOM     32  C   UNL     1      -6.269  -3.904  -2.598  0.00  0.00    +0.002 A 
ATOM     33  C   UNL     1      -5.034  -3.452  -2.175  0.00  0.00    +0.023 A 
ATOM     34  C   UNL     1      -4.159  -4.321  -1.536  0.00  0.00    +0.033 A 
ATOM     35  C   UNL     1      -4.527  -5.644  -1.329  0.00  0.00    +0.023 A 
ATOM     36  C   UNL     1      -5.765  -6.088  -1.749  0.00  0.00    +0.002 A 
ENDBRANCH  27  34
ENDBRANCH  26  28
ENDBRANCH  25  26
ENDBRANCH   1  25
TORSDOF 7
