REMARK  Name = ZINC63513579
REMARK  7 active torsions:
REMARK  status: ('A' for Active; 'I' for Inactive)
REMARK    1  A    between atoms: C_1  and  C_2
REMARK    2  A    between atoms: C_3  and  C_16
REMARK    3  A    between atoms: C_5  and  C_8
REMARK    4  A    between atoms: C_11  and  O_14
REMARK    5  A    between atoms: O_14  and  C_15
REMARK    6  A    between atoms: C_16  and  S_17
REMARK    7  A    between atoms: S_17  and  C_18
REMARK                            x       y       z     vdW  Elec       q    Type
REMARK                         _______ _______ _______ _____ _____    ______ ____
ROOT
ATOM      1  C   UNL     1      -0.013   1.086   0.008  0.00  0.00    +0.044 C 
ATOM      2  C   UNL     1      -0.753   1.593  -1.232  0.00  0.00    +0.163 C 
ATOM      3  C   UNL     1      -0.107   1.052  -2.488  0.00  0.00    +0.055 C 
ATOM      4  N   UNL     1      -1.030   0.652  -3.280  0.00  0.00    -0.254 NA
ATOM      5  C   UNL     1      -2.343   0.875  -2.664  0.00  0.00    +0.267 C 
ATOM      6  O   UNL     1      -2.099   1.077  -1.258  0.00  0.00    -0.342 OA
ENDROOT
BRANCH   5   7
ATOM      7  C   UNL     1      -3.223  -0.330  -2.871  0.00  0.00    +0.003 A 
ATOM      8  C   UNL     1      -4.104  -0.720  -1.879  0.00  0.00    +0.011 A 
ATOM      9  C   UNL     1      -4.912  -1.824  -2.065  0.00  0.00    +0.046 A 
ATOM     10  C   UNL     1      -4.840  -2.543  -3.250  0.00  0.00    +0.120 A 
ATOM     11  C   UNL     1      -3.956  -2.150  -4.244  0.00  0.00    +0.046 A 
ATOM     12  C   UNL     1      -3.153  -1.041  -4.054  0.00  0.00    +0.011 A 
BRANCH  10  13
ATOM     13  O   UNL     1      -5.634  -3.630  -3.436  0.00  0.00    -0.495 OA
ATOM     14  C   UNL     1      -5.506  -4.322  -4.680  0.00  0.00    +0.277 C 
ENDBRANCH  10  13
ENDBRANCH   5   7
BRANCH   3  15
ATOM     15  C   UNL     1       1.374   0.995  -2.762  0.00  0.00    +0.126 C 
BRANCH  15  16
ATOM     16  S   UNL     1       1.658   0.266  -4.398  0.00  0.00    -0.109 S 
BRANCH  16  17
ATOM     17  C   UNL     1       3.464   0.269  -4.572  0.00  0.00    +0.236 C 
ATOM     18  N   UNL     1       4.078  -0.488  -3.472  0.00  0.00    -0.355 N 
ATOM     19  C   UNL     1       4.845   0.332  -2.818  0.00  0.00    +0.064 A 
ATOM     20  C   UNL     1       5.714   0.195  -1.641  0.00  0.00    +0.045 A 
ATOM     21  C   UNL     1       6.392   1.279  -1.207  0.00  0.00    +0.084 A 
ATOM     22  N   UNL     1       6.320   2.476  -1.788  0.00  0.00    -0.365 N 
ATOM     23  C   UNL     1       5.594   2.744  -2.834  0.00  0.00    +0.110 A 
ATOM     24  C   UNL     1       4.781   1.680  -3.449  0.00  0.00    +0.077 A 
ATOM     25  N   UNL     1       3.978   1.641  -4.469  0.00  0.00    -0.354 N 
ATOM     26  H   UNL     1       3.758   2.381  -5.056  0.00  0.00    +0.163 HD
ATOM     27  H   UNL     1       3.937  -1.427  -3.272  0.00  0.00    +0.162 HD
ATOM     28  H   UNL     1       6.844   3.196  -1.404  0.00  0.00    +0.165 HD
ENDBRANCH  16  17
ENDBRANCH  15  16
ENDBRANCH   3  15
TORSDOF 5
