REMARK  Name = ZINC46056174
REMARK  11 active torsions:
REMARK  status: ('A' for Active; 'I' for Inactive)
REMARK    1  A    between atoms: C_1  and  C_2
REMARK    2  A    between atoms: C_2  and  C_3
REMARK    3  A    between atoms: C_10  and  C_32
REMARK    4  A    between atoms: C_11  and  S_15
REMARK    5  A    between atoms: S_15  and  N_18
REMARK    6  A    between atoms: N_18  and  C_19
REMARK    7  A    between atoms: N_18  and  C_20
REMARK    8  A    between atoms: C_20  and  C_21
REMARK    9  A    between atoms: N_23  and  C_24
REMARK   10  A    between atoms: C_27  and  C_31
REMARK   11  A    between atoms: C_28  and  C_30
REMARK                            x       y       z     vdW  Elec       q    Type
REMARK                         _______ _______ _______ _____ _____    ______ ____
ROOT
ATOM      1  S   UNL     1      -1.356  -0.005  -6.617  0.00  0.00    +0.061 S 
ATOM      2  O   UNL     1      -2.137  -0.697  -7.582  0.00  0.00    -0.153 OA
ATOM      3  O   UNL     1      -1.579   1.360  -6.294  0.00  0.00    -0.153 OA
ENDROOT
BRANCH   1  11
ATOM      4  C   UNL     1       0.009  -4.470  -2.386  0.00  0.00    +0.259 C 
ATOM      5  C   UNL     1      -0.983  -4.071  -1.323  0.00  0.00    +0.258 C 
ATOM      6  O   UNL     1      -0.997  -4.648  -0.256  0.00  0.00    -0.271 OA
ATOM      7  N   UNL     1      -1.855  -3.070  -1.563  0.00  0.00    -0.280 N 
ATOM      8  C   UNL     1      -1.740  -2.333  -2.750  0.00  0.00    +0.076 A 
ATOM      9  C   UNL     1      -2.743  -1.458  -3.135  0.00  0.00    +0.032 A 
ATOM     10  C   UNL     1      -2.620  -0.748  -4.316  0.00  0.00    -0.022 A 
ATOM     11  C   UNL     1      -1.501  -0.909  -5.111  0.00  0.00    +0.112 A 
ATOM     12  C   UNL     1      -0.494  -1.777  -4.729  0.00  0.00    +0.076 A 
ATOM     13  C   UNL     1      -0.607  -2.487  -3.546  0.00  0.00    +0.145 A 
ATOM     14  O   UNL     1       0.389  -3.319  -3.144  0.00  0.00    -0.478 OA
ATOM     15  C   UNL     1      -3.709   0.205  -4.736  0.00  0.00    +0.046 C 
ATOM     16  H   UNL     1      -2.553  -2.863  -0.923  0.00  0.00    +0.155 HD
BRANCH   4  18
ATOM     17  C   UNL     1       0.415  -6.003  -4.317  0.00  0.00    +0.008 C 
ATOM     18  C   UNL     1      -0.629  -5.504  -3.316  0.00  0.00    +0.051 C 
ENDBRANCH   4  18
ENDBRANCH   1  11
BRANCH   1  19
ATOM     19  N   UNL     1       0.220  -0.124  -7.110  0.00  0.00    -0.171 NA
ATOM     20  C   UNL     1       0.654  -1.276  -7.904  0.00  0.00    +0.132 C 
BRANCH  19  21
ATOM     21  C   UNL     1       1.181   0.922  -6.752  0.00  0.00    +0.205 C 
BRANCH  21  22
ATOM     22  C   UNL     1       2.091   0.417  -5.662  0.00  0.00    +0.233 C 
ATOM     23  O   UNL     1       2.018  -0.737  -5.298  0.00  0.00    -0.274 OA
ATOM     24  N   UNL     1       2.985   1.249  -5.092  0.00  0.00    -0.284 N 
ATOM     25  H   UNL     1       2.993   2.189  -5.329  0.00  0.00    +0.155 HD
BRANCH  24  26
ATOM     26  C   UNL     1       3.903   0.755  -4.158  0.00  0.00    +0.034 A 
ATOM     27  C   UNL     1       4.416  -0.528  -4.297  0.00  0.00    +0.023 A 
ATOM     28  C   UNL     1       5.321  -1.012  -3.374  0.00  0.00    +0.005 A 
ATOM     29  C   UNL     1       5.717  -0.221  -2.311  0.00  0.00    -0.047 A 
ATOM     30  C   UNL     1       5.209   1.057  -2.170  0.00  0.00    -0.046 A 
ATOM     31  C   UNL     1       4.308   1.550  -3.093  0.00  0.00    +0.027 A 
ATOM     32  C   UNL     1       5.643   1.916  -1.010  0.00  0.00    +0.044 C 
ATOM     33  C   UNL     1       6.705  -0.753  -1.305  0.00  0.00    +0.044 C 
ENDBRANCH  24  26
ENDBRANCH  21  22
ENDBRANCH  19  21
ENDBRANCH   1  19
TORSDOF 6
