REMARK  Name = ZINC50265174
REMARK  8 active torsions:
REMARK  status: ('A' for Active; 'I' for Inactive)
REMARK    1  A    between atoms: C_1  and  C_2
REMARK    2  A    between atoms: C_2  and  N_3
REMARK    3  A    between atoms: C_5  and  S_9
REMARK    4  A    between atoms: C_7  and  C_8
REMARK    5  A    between atoms: S_9  and  N_12
REMARK    6  A    between atoms: N_12  and  C_13
REMARK    7  A    between atoms: C_13  and  C_20
REMARK    8  A    between atoms: C_20  and  N_21
REMARK                            x       y       z     vdW  Elec       q    Type
REMARK                         _______ _______ _______ _____ _____    ______ ____
ROOT
ATOM      1  N   UNL     1       2.165  -1.302  -5.811  0.00  0.00    -0.184 NA
ATOM      2  H   UNL     1       1.636  -1.589  -6.572  0.00  0.00    +0.149 HD
ENDROOT
BRANCH   1   3
ATOM      3  C   UNL     1       3.424  -1.981  -5.497  0.00  0.00    +0.025 C 
ATOM      4  C   UNL     1       3.289  -3.476  -5.853  0.00  0.00    +0.022 C 
ATOM      5  C   UNL     1       2.541  -3.591  -7.154  0.00  0.00    +0.002 C 
ATOM      6  C   UNL     1       3.484  -3.681  -8.369  0.00  0.00    +0.000 C 
ATOM      7  C   UNL     1       4.678  -2.712  -8.272  0.00  0.00    +0.000 C 
ATOM      8  C   UNL     1       4.279  -1.358  -7.753  0.00  0.00    +0.002 C 
ATOM      9  C   UNL     1       4.504  -1.333  -6.227  0.00  0.00    +0.022 C 
BRANCH   3  10
ATOM     10  C   UNL     1       3.695  -1.854  -3.996  0.00  0.00    -0.062 C 
BRANCH  10  11
ATOM     11  N   UNL     1       4.899  -2.621  -3.649  0.00  0.00    +0.379 N 
ATOM     12  H   UNL     1       5.701  -2.210  -4.101  0.00  0.00    -0.090 HD
ATOM     13  H   UNL     1       5.031  -2.604  -2.648  0.00  0.00    -0.090 HD
ATOM     14  H   UNL     1       4.790  -3.575  -3.958  0.00  0.00    -0.090 HD
ENDBRANCH  10  11
ENDBRANCH   3  10
ENDBRANCH   1   3
BRANCH   1  15
ATOM     15  S   UNL     1       1.643  -0.046  -4.866  0.00  0.00    +0.077 S 
ATOM     16  O   UNL     1       1.969  -0.384  -3.525  0.00  0.00    -0.152 OA
ATOM     17  O   UNL     1       0.315   0.247  -5.277  0.00  0.00    -0.152 OA
BRANCH  15  20
ATOM     18  N   UNL     1       3.289   3.407  -5.623  0.00  0.00    -0.333 N 
ATOM     19  C   UNL     1       2.229   2.646  -5.210  0.00  0.00    +0.136 A 
ATOM     20  C   UNL     1       2.621   1.359  -5.283  0.00  0.00    +0.211 A 
ATOM     21  N   UNL     1       3.886   1.336  -5.728  0.00  0.00    -0.213 NA
ATOM     22  C   UNL     1       4.291   2.558  -5.939  0.00  0.00    +0.109 A 
ATOM     23  C   UNL     1       5.652   2.957  -6.447  0.00  0.00    +0.086 C 
BRANCH  18  25
ATOM     24  C   UNL     1       2.974   5.303  -7.136  0.00  0.00    +0.027 C 
ATOM     25  C   UNL     1       3.327   4.869  -5.712  0.00  0.00    +0.119 C 
ENDBRANCH  18  25
ENDBRANCH  15  20
ENDBRANCH   1  15
TORSDOF 6
