REMARK  Name = ZINC13568711
REMARK  6 active torsions:
REMARK  status: ('A' for Active; 'I' for Inactive)
REMARK    1  A    between atoms: C_6  and  C_7
REMARK    2  A    between atoms: C_7  and  N_8
REMARK    3  A    between atoms: C_9  and  C_11
REMARK    4  A    between atoms: C_11  and  S_12
REMARK    5  A    between atoms: S_12  and  C_13
REMARK    6  A    between atoms: C_14  and  C_25
REMARK                            x       y       z     vdW  Elec       q    Type
REMARK                         _______ _______ _______ _____ _____    ______ ____
ROOT
ATOM      1  S   UNL     1      -4.872  -2.871  -3.014  0.00  0.00    -0.107 S 
ENDROOT
BRANCH   1   2
ATOM      2  C   UNL     1      -5.255  -3.079  -4.721  0.00  0.00    +0.066 A 
ATOM      3  C   UNL     1      -6.358  -3.723  -5.270  0.00  0.00    +0.096 A 
ATOM      4  C   UNL     1      -6.455  -3.765  -6.719  0.00  0.00    +0.079 A 
ATOM      5  C   UNL     1      -5.393  -3.134  -7.362  0.00  0.00    +0.085 A 
ATOM      6  S   UNL     1      -4.373  -2.539  -6.041  0.00  0.00    -0.075 S 
ATOM      7  C   UNL     1      -5.310  -3.070  -8.753  0.00  0.00    +0.200 A 
ATOM      8  C   UNL     1      -6.316  -3.654  -9.510  0.00  0.00    +0.122 A 
ATOM      9  C   UNL     1      -7.375  -4.285  -8.854  0.00  0.00    +0.253 A 
ATOM     10  O   UNL     1      -8.264  -4.801  -9.515  0.00  0.00    -0.268 OA
ATOM     11  N   UNL     1      -7.440  -4.337  -7.516  0.00  0.00    -0.320 N 
ATOM     12  H   UNL     1      -8.191  -4.783  -7.094  0.00  0.00    +0.169 HD
ATOM     13  O   UNL     1      -4.267  -2.449  -9.354  0.00  0.00    -0.286 OA
BRANCH   3  14
ATOM     14  C   UNL     1      -7.359  -4.322  -4.439  0.00  0.00    +0.103 C 
ATOM     15  N   UNL     1      -8.153  -4.797  -3.781  0.00  0.00    -0.191 NA
ENDBRANCH   3  14
ENDBRANCH   1   2
BRANCH   1  16
ATOM     16  C   UNL     1      -3.313  -1.943  -3.024  0.00  0.00    +0.170 C 
BRANCH  16  18
ATOM     17  N   UNL     1      -1.726  -1.017  -1.368  0.00  0.00    -0.311 N 
ATOM     18  C   UNL     1      -2.867  -1.694  -1.606  0.00  0.00    +0.223 C 
ATOM     19  O   UNL     1      -3.535  -2.102  -0.680  0.00  0.00    -0.275 OA
ATOM     20  H   UNL     1      -1.192  -0.691  -2.108  0.00  0.00    +0.149 HD
BRANCH  17  21
ATOM     21  C   UNL     1      -1.293  -0.775   0.011  0.00  0.00    +0.139 C 
BRANCH  21  27
ATOM     22  C   UNL     1      -0.017   1.378   0.010  0.00  0.00    +0.007 A 
ATOM     23  C   UNL     1       1.171   2.086   0.002  0.00  0.00    +0.022 A 
ATOM     24  C   UNL     1       2.378   1.412  -0.013  0.00  0.00    +0.059 A 
ATOM     25  C   UNL     1       2.397   0.027  -0.021  0.00  0.00    +0.060 A 
ATOM     26  C   UNL     1       1.208  -0.680  -0.013  0.00  0.00    +0.026 A 
ATOM     27  C   UNL     1       0.002  -0.004   0.002  0.00  0.00    -0.029 A 
ATOM     28 CL   UNL     1       3.912  -0.821  -0.040  0.00  0.00    -0.082 Cl
ATOM     29 CL   UNL     1       3.869   2.301  -0.023  0.00  0.00    -0.082 Cl
ENDBRANCH  21  27
ENDBRANCH  17  21
ENDBRANCH  16  18
ENDBRANCH   1  16
TORSDOF 6
