REMARK  Name = ZINC12428849
REMARK  4 active torsions:
REMARK  status: ('A' for Active; 'I' for Inactive)
REMARK    1  A    between atoms: C_3  and  C_16
REMARK    2  A    between atoms: C_5  and  O_7
REMARK    3  A    between atoms: O_7  and  C_8
REMARK    4  A    between atoms: C_8  and  C_9
REMARK                            x       y       z     vdW  Elec       q    Type
REMARK                         _______ _______ _______ _____ _____    ______ ____
ROOT
ATOM      1  C   UNL     1       1.176   1.782   0.000  0.00  0.00    +0.004 A 
ATOM      2  C   UNL     1      -0.013   1.076   0.008  0.00  0.00    +0.004 A 
ATOM      3  C   UNL     1      -1.220   1.750   0.017  0.00  0.00    -0.035 A 
ATOM      4  C   UNL     1      -1.241   3.131   0.031  0.00  0.00    +0.050 A 
ATOM      5  C   UNL     1      -0.050   3.842   0.023  0.00  0.00    +0.121 A 
ATOM      6  C   UNL     1       1.160   3.163   0.007  0.00  0.00    +0.045 A 
ENDROOT
BRANCH   3   7
ATOM      7  C   UNL     1      -2.513   0.977   0.019  0.00  0.00    +0.068 C 
ATOM      8  C   UNL     1      -2.586   0.086  -1.230  0.00  0.00    +0.109 C 
ATOM      9  C   UNL     1      -1.741  -1.144  -1.052  0.00  0.00    +0.219 C 
ATOM     10  O   UNL     1      -1.125  -1.564  -2.008  0.00  0.00    -0.275 OA
ATOM     11  N   UNL     1      -1.634  -1.802   0.116  0.00  0.00    -0.270 N 
ATOM     12  C   UNL     1      -2.159  -1.200   1.292  0.00  0.00    +0.138 A 
ATOM     13  C   UNL     1      -2.573   0.099   1.220  0.00  0.00    +0.041 A 
ATOM     14  S   UNL     1      -3.158   0.410   2.860  0.00  0.00    -0.055 S 
ATOM     15  C   UNL     1      -2.812  -1.164   3.513  0.00  0.00    +0.158 A 
ATOM     16  N   UNL     1      -2.296  -1.793   2.473  0.00  0.00    -0.210 NA
ATOM     17  N   UNL     1      -3.023  -1.638   4.798  0.00  0.00    -0.337 N 
ATOM     18  H   UNL     1      -1.208  -2.672   0.155  0.00  0.00    +0.156 HD
ATOM     19  H   UNL     1      -3.416  -1.059   5.470  0.00  0.00    +0.144 HD
ATOM     20  H   UNL     1      -2.779  -2.549   5.025  0.00  0.00    +0.144 HD
ENDBRANCH   3   7
BRANCH   5  21
ATOM     21  O   UNL     1      -0.069   5.201   0.029  0.00  0.00    -0.487 OA
BRANCH  21  22
ATOM     22  C   UNL     1       1.196   5.867   0.020  0.00  0.00    +0.264 C 
BRANCH  22  23
ATOM     23  C   UNL     1       0.978   7.358   0.029  0.00  0.00    -0.010 A 
ATOM     24  C   UNL     1       0.872   8.048  -1.164  0.00  0.00    +0.010 A 
ATOM     25  C   UNL     1       0.667   9.415  -1.157  0.00  0.00    +0.039 A 
ATOM     26  C   UNL     1       0.578  10.094   0.046  0.00  0.00    +0.123 A 
ATOM     27  C   UNL     1       0.690   9.403   1.240  0.00  0.00    +0.039 A 
ATOM     28  C   UNL     1       0.890   8.036   1.231  0.00  0.00    +0.010 A 
ATOM     29  F   UNL     1       0.383  11.431   0.054  0.00  0.00    -0.205 F 
ENDBRANCH  22  23
ENDBRANCH  21  22
ENDBRANCH   5  21
TORSDOF 4
