REMARK  Name = ZINC08781918
REMARK  8 active torsions:
REMARK  status: ('A' for Active; 'I' for Inactive)
REMARK    1  A    between atoms: C_1  and  C_2
REMARK    2  A    between atoms: C_2  and  O_3
REMARK    3  A    between atoms: O_3  and  C_4
REMARK    4  A    between atoms: C_4  and  C_6
REMARK    5  A    between atoms: C_8  and  C_30
REMARK    6  A    between atoms: C_9  and  N_14
REMARK    7  A    between atoms: N_17  and  C_20
REMARK    8  A    between atoms: C_23  and  C_25
REMARK                            x       y       z     vdW  Elec       q    Type
REMARK                         _______ _______ _______ _____ _____    ______ ____
ROOT
ATOM      1  N   UNL     1       2.334   3.946  -0.020  0.00  0.00    -0.313 N 
ATOM      2  C   UNL     1       2.478   4.754  -1.238  0.00  0.00    +0.125 C 
ATOM      3  C   UNL     1       3.788   5.543  -1.172  0.00  0.00    +0.125 C 
ATOM      4  N   UNL     1       4.913   4.608  -1.028  0.00  0.00    -0.313 N 
ATOM      5  C   UNL     1       4.769   3.799   0.190  0.00  0.00    +0.125 C 
ATOM      6  C   UNL     1       3.459   3.011   0.124  0.00  0.00    +0.125 C 
ENDROOT
BRANCH   1  10
ATOM      7  C   UNL     1      -1.269   1.927  -0.001  0.00  0.00    +0.124 A 
ATOM      8  C   UNL     1      -1.278   3.321  -0.024  0.00  0.00    +0.042 A 
ATOM      9  C   UNL     1      -0.057   4.007  -0.032  0.00  0.00    +0.091 A 
ATOM     10  C   UNL     1       1.143   3.282  -0.011  0.00  0.00    +0.119 A 
ATOM     11  N   UNL     1       1.130   1.924   0.017  0.00  0.00    -0.309 N 
ATOM     12  H   UNL     1       1.970   1.439   0.030  0.00  0.00    +0.170 HD
ATOM     13  C   UNL     1      -0.029   1.240   0.025  0.00  0.00    +0.264 A 
ATOM     14  O   UNL     1      -0.012   0.022   0.050  0.00  0.00    -0.267 OA
BRANCH   7  15
ATOM     15  C   UNL     1      -2.531   1.178   0.002  0.00  0.00    +0.344 C 
ATOM     16  O   UNL     1      -3.591   1.773  -0.020  0.00  0.00    -0.245 OA
BRANCH  15  17
ATOM     17  O   UNL     1      -2.514  -0.170   0.029  0.00  0.00    -0.461 OA
BRANCH  17  19
ATOM     18  C   UNL     1      -3.581  -2.358   0.062  0.00  0.00    +0.048 C 
ATOM     19  C   UNL     1      -3.800  -0.845   0.030  0.00  0.00    +0.229 C 
ENDBRANCH  17  19
ENDBRANCH  15  17
ENDBRANCH   7  15
BRANCH   9  20
ATOM     20  C   UNL     1      -0.033   5.439  -0.062  0.00  0.00    +0.103 C 
ATOM     21  N   UNL     1      -0.015   6.574  -0.085  0.00  0.00    -0.191 NA
ENDBRANCH   9  20
ENDBRANCH   1  10
BRANCH   4  22
ATOM     22  C   UNL     1       6.128   5.285  -1.037  0.00  0.00    +0.118 A 
ATOM     23  C   UNL     1       7.071   4.998  -2.020  0.00  0.00    +0.079 A 
ATOM     24  C   UNL     1       8.273   5.683  -2.019  0.00  0.00    +0.037 A 
ATOM     25  C   UNL     1       8.497   6.628  -1.026  0.00  0.00    +0.072 A 
ATOM     26  C   UNL     1       7.519   6.858  -0.079  0.00  0.00    +0.096 A 
ATOM     27 CL   UNL     1       6.741   3.801  -3.233  0.00  0.00    -0.080 Cl
ATOM     28  N   UNL     1       6.325   6.208  -0.051  0.00  0.00    -0.348 N 
ATOM     29  H   UNL     1       5.616   6.400   0.666  0.00  0.00    +0.167 HD
BRANCH  25  30
ATOM     30  C   UNL     1       9.794   7.394  -0.982  0.00  0.00    +0.419 C 
ATOM     31  F   UNL     1       9.777   8.278   0.102  0.00  0.00    -0.166 F 
ATOM     32  F   UNL     1      10.859   6.500  -0.838  0.00  0.00    -0.166 F 
ATOM     33  F   UNL     1       9.948   8.116  -2.170  0.00  0.00    -0.166 F 
ENDBRANCH  25  30
ENDBRANCH   4  22
TORSDOF 7
