REMARK  Name = ZINC64684002
REMARK  10 active torsions:
REMARK  status: ('A' for Active; 'I' for Inactive)
REMARK    1  A    between atoms: C_1  and  C_2
REMARK    2  A    between atoms: C_5  and  C_8
REMARK    3  A    between atoms: C_12  and  S_15
REMARK    4  A    between atoms: N_13  and  C_14
REMARK    5  A    between atoms: S_15  and  C_16
REMARK    6  A    between atoms: C_16  and  C_17
REMARK    7  A    between atoms: N_19  and  CA_20
REMARK    8  A    between atoms: CA_20  and  CB_22
REMARK    9  A    between atoms: CA_20  and  C_32
REMARK   10  A    between atoms: CB_22  and  CG_23
REMARK                            x       y       z     vdW  Elec       q    Type
REMARK                         _______ _______ _______ _____ _____    ______ ____
ROOT
ATOM      1  C   UNK A   0      -4.951  -7.943   1.667  0.00  0.00    +0.224 C 
ATOM      2  O   UNK A   0      -4.844  -7.960   2.875  0.00  0.00    -0.275 OA
ATOM      3  N   TRP A   1      -5.960  -8.610   1.071  0.00  0.00    -0.301 N 
ATOM      4  H   TRP A   1      -6.046  -8.597   0.105  0.00  0.00    +0.150 HD
ENDROOT
BRANCH   1   5
ATOM      5  C   UNK A   0      -3.957  -7.178   0.833  0.00  0.00    +0.172 C 
BRANCH   5   6
ATOM      6  S   UNK A   0      -2.732  -6.396   1.918  0.00  0.00    -0.080 S 
BRANCH   6  10
ATOM      7  C   UNK A   0       0.061  -4.277  -0.022  0.00  0.00    +0.208 C 
ATOM      8  N   UNK A   0      -0.796  -4.798  -1.101  0.00  0.00    -0.242 N 
ATOM      9  N   UNK A   0      -1.796  -5.552  -0.475  0.00  0.00    -0.162 NA
ATOM     10  C   UNK A   0      -1.656  -5.552   0.807  0.00  0.00    +0.175 C 
ATOM     11  N   UNK A   0      -0.553  -4.807   1.208  0.00  0.00    -0.288 N 
ATOM     12  C   UNK A   0      -0.091  -4.589   2.581  0.00  0.00    +0.133 C 
ATOM     13  H   UNK A   0      -0.688  -4.649  -2.054  0.00  0.00    +0.170 HD
BRANCH   7  18
ATOM     14  C   UNK A   0      -0.002   1.501   0.009  0.00  0.00    +0.044 C 
ATOM     15  C   UNK A   0       0.014  -0.006   0.001  0.00  0.00    -0.050 A 
ATOM     16  C   UNK A   0      -1.175  -0.710  -0.035  0.00  0.00    +0.004 A 
ATOM     17  C   UNK A   0      -1.160  -2.092  -0.042  0.00  0.00    +0.007 A 
ATOM     18  C   UNK A   0       0.044  -2.771  -0.014  0.00  0.00    -0.008 A 
ATOM     19  C   UNK A   0       1.234  -2.067   0.021  0.00  0.00    +0.007 A 
ATOM     20  C   UNK A   0       1.219  -0.684   0.024  0.00  0.00    +0.004 A 
ENDBRANCH   7  18
ENDBRANCH   6  10
ENDBRANCH   5   6
ENDBRANCH   1   5
BRANCH   3  21
ATOM     21  CA  TRP A   1      -6.927  -9.354   1.883  0.00  0.00    +0.190 C 
BRANCH  21  22
ATOM     22  C   TRP A   1      -6.384 -10.729   2.176  0.00  0.00    +0.376 C 
ATOM     23  O   TRP A   1      -6.693 -11.299   3.208  0.00  0.00    -0.244 OA
ATOM     24  OXT TRP A   1      -5.635 -11.271   1.380  0.00  0.00    -0.244 OA
ENDBRANCH  21  22
BRANCH  21  25
ATOM     25  CB  TRP A   1      -8.246  -9.479   1.118  0.00  0.00    +0.067 C 
BRANCH  25  26
ATOM     26  CG  TRP A   1      -8.850  -8.111   0.932  0.00  0.00    -0.039 C 
ATOM     27  CD2 TRP A   1      -8.724  -7.305  -0.147  0.00  0.00    -0.001 A 
ATOM     28  CE3 TRP A   1      -8.012  -7.456  -1.422  0.00  0.00    +0.010 A 
ATOM     29  CZ3 TRP A   1      -8.071  -6.454  -2.328  0.00  0.00    +0.001 A 
ATOM     30  CH2 TRP A   1      -8.793  -5.278  -2.081  0.00  0.00    +0.002 A 
ATOM     31  CZ2 TRP A   1      -9.472  -5.067  -0.933  0.00  0.00    +0.026 A 
ATOM     32  CE2 TRP A   1      -9.479  -6.054   0.090  0.00  0.00    +0.043 A 
ATOM     33  NE1 TRP A   1     -10.051  -6.085   1.269  0.00  0.00    -0.380 N 
ATOM     34  CD1 TRP A   1      -9.726  -7.364   1.913  0.00  0.00    +0.144 C 
ATOM     35  HE1 TRP A   1     -10.599  -5.382   1.651  0.00  0.00    +0.160 HD
ENDBRANCH  25  26
ENDBRANCH  21  25
ENDBRANCH   3  21
TORSDOF 8
