REMARK  Name = ZINC65395028
REMARK  6 active torsions:
REMARK  status: ('A' for Active; 'I' for Inactive)
REMARK    1  A    between atoms: C_4  and  C_7
REMARK    2  A    between atoms: C_7  and  C_8
REMARK    3  A    between atoms: C_8  and  C_9
REMARK    4  A    between atoms: C_12  and  C_15
REMARK    5  A    between atoms: C_15  and  C_16
REMARK    6  A    between atoms: C_16  and  N_17
REMARK                            x       y       z     vdW  Elec       q    Type
REMARK                         _______ _______ _______ _____ _____    ______ ____
ROOT
ATOM      1  C   UNL     1       5.487  -1.699   1.381  0.00  0.00    +0.151 A 
ATOM      2  N   UNL     1       6.691  -1.131   1.372  0.00  0.00    -0.216 NA
ATOM      3  H   UNL     1       7.441  -4.123   1.349  0.00  0.00    +0.190 HD
ATOM      4  C   UNL     1       7.618  -2.054   1.357  0.00  0.00    +0.127 A 
ATOM      5  N   UNL     1       7.011  -3.254   1.358  0.00  0.00    -0.262 N 
ATOM      6  N   UNL     1       5.630  -2.998   1.379  0.00  0.00    -0.157 NA
ENDROOT
BRANCH   1   7
ATOM      7  C   UNL     1       4.171  -0.963   1.399  0.00  0.00    +0.083 C 
BRANCH   7   8
ATOM      8  C   UNL     1       3.711  -0.707  -0.038  0.00  0.00    +0.043 C 
BRANCH   8  12
ATOM      9  C   UNL     1      -0.017   1.378   0.010  0.00  0.00    +0.000 A 
ATOM     10  C   UNL     1       1.171   2.086   0.002  0.00  0.00    +0.000 A 
ATOM     11  C   UNL     1       2.377   1.411  -0.013  0.00  0.00    +0.003 A 
ATOM     12  C   UNL     1       2.396   0.029  -0.020  0.00  0.00    -0.047 A 
ATOM     13  C   UNL     1       1.208  -0.679  -0.012  0.00  0.00    +0.003 A 
ATOM     14  C   UNL     1       0.002  -0.004   0.002  0.00  0.00    +0.000 A 
ENDBRANCH   8  12
ENDBRANCH   7   8
ENDBRANCH   1   7
BRANCH   4  15
ATOM     15  C   UNL     1       9.106  -1.815   1.343  0.00  0.00    +0.097 C 
BRANCH  15  16
ATOM     16  C   UNL     1       9.465  -0.911   0.162  0.00  0.00    +0.134 C 
BRANCH  16  17
ATOM     17  N   UNL     1      10.912  -0.679   0.147  0.00  0.00    -0.298 N 
ATOM     18  C   UNL     1      11.431   0.375   0.829  0.00  0.00    +0.202 A 
ATOM     19  N   UNL     1      12.700   0.647   0.864  0.00  0.00    -0.237 NA
ATOM     20  C   UNL     1      13.610  -0.117   0.211  0.00  0.00    +0.078 A 
ATOM     21  C   UNL     1      14.975   0.174   0.249  0.00  0.00    +0.028 A 
ATOM     22  C   UNL     1      15.863  -0.630  -0.429  0.00  0.00    +0.002 A 
ATOM     23  C   UNL     1      15.419  -1.730  -1.151  0.00  0.00    +0.001 A 
ATOM     24  C   UNL     1      14.078  -2.038  -1.204  0.00  0.00    +0.015 A 
ATOM     25  C   UNL     1      13.162  -1.237  -0.525  0.00  0.00    +0.065 A 
ATOM     26  C   UNL     1      11.719  -1.520  -0.540  0.00  0.00    +0.262 A 
ATOM     27  O   UNL     1      11.268  -2.472  -1.151  0.00  0.00    -0.267 OA
ENDBRANCH  16  17
ENDBRANCH  15  16
ENDBRANCH   4  15
TORSDOF 6
