REMARK  Name = ZINC10643774
REMARK  8 active torsions:
REMARK  status: ('A' for Active; 'I' for Inactive)
REMARK    1  A    between atoms: C_1  and  C_2
REMARK    2  A    between atoms: C_4  and  N_7
REMARK    3  A    between atoms: C_8  and  C_10
REMARK    4  A    between atoms: C_10  and  C_12
REMARK    5  A    between atoms: C_10  and  S_13
REMARK    6  A    between atoms: S_13  and  C_14
REMARK    7  A    between atoms: C_16  and  C_20
REMARK    8  A    between atoms: N_18  and  N_19
REMARK                            x       y       z     vdW  Elec       q    Type
REMARK                         _______ _______ _______ _____ _____    ______ ____
ROOT
ATOM      1  C   UNL     1       5.737   6.320  -0.755  0.00  0.00    +0.187 A 
ATOM      2  N   UNL     1       4.937   7.266  -0.325  0.00  0.00    -0.221 NA
ATOM      3  C   UNL     1       5.544   8.469  -0.487  0.00  0.00    +0.092 A 
ATOM      4  C   UNL     1       6.760   8.251  -1.046  0.00  0.00    +0.138 A 
ATOM      5  N   UNL     1       6.883   6.893  -1.216  0.00  0.00    -0.251 N 
ENDROOT
BRANCH   3   6
ATOM      6  C   UNL     1       4.974   9.789  -0.123  0.00  0.00    +0.002 A 
ATOM      7  C   UNL     1       5.709  10.953  -0.345  0.00  0.00    +0.010 A 
ATOM      8  C   UNL     1       5.172  12.179  -0.009  0.00  0.00    +0.001 A 
ATOM      9  C   UNL     1       3.913  12.254   0.557  0.00  0.00    +0.000 A 
ATOM     10  C   UNL     1       3.181  11.102   0.785  0.00  0.00    +0.001 A 
ATOM     11  C   UNL     1       3.706   9.870   0.448  0.00  0.00    +0.010 A 
ENDBRANCH   3   6
BRANCH   5  12
ATOM     12  N   UNL     1       7.958   6.239  -1.749  0.00  0.00    -0.296 N 
ATOM     13  H   UNL     1       7.861   6.138  -2.749  0.00  0.00    +0.163 HD
ATOM     14  H   UNL     1       8.820   6.708  -1.515  0.00  0.00    +0.163 HD
ENDBRANCH   5  12
BRANCH   1  15
ATOM     15  S   UNL     1       5.384   4.594  -0.746  0.00  0.00    -0.074 S 
BRANCH  15  16
ATOM     16  C   UNL     1       3.731   4.615  -0.009  0.00  0.00    +0.137 C 
ATOM     17  C   UNL     1       3.821   5.127   1.430  0.00  0.00    +0.029 C 
BRANCH  16  19
ATOM     18  N   UNL     1       1.827   3.036   0.001  0.00  0.00    -0.253 N 
ATOM     19  C   UNL     1       3.162   3.220  -0.011  0.00  0.00    +0.233 C 
ATOM     20  O   UNL     1       3.906   2.262  -0.023  0.00  0.00    -0.274 OA
ATOM     21  H   UNL     1       1.232   3.803   0.011  0.00  0.00    +0.158 HD
BRANCH  18  25
ATOM     22  C   UNL     1      -1.193  -0.922   0.008  0.00  0.00    +0.069 C 
ATOM     23  C   UNL     1       0.002  -0.004   0.002  0.00  0.00    +0.082 A 
ATOM     24  C   UNL     1      -0.017   1.405   0.010  0.00  0.00    +0.092 A 
ATOM     25  C   UNL     1       1.304   1.752  -0.001  0.00  0.00    +0.224 A 
ATOM     26  O   UNL     1       1.994   0.600  -0.014  0.00  0.00    -0.339 OA
ATOM     27  N   UNL     1       1.256  -0.358  -0.012  0.00  0.00    -0.081 NA
ENDBRANCH  18  25
ENDBRANCH  16  19
ENDBRANCH  15  16
ENDBRANCH   1  15
TORSDOF 6
