REMARK  Name = ZINC08772243
REMARK  9 active torsions:
REMARK  status: ('A' for Active; 'I' for Inactive)
REMARK    1  A    between atoms: C_1  and  C_2
REMARK    2  A    between atoms: C_2  and  C_3
REMARK    3  A    between atoms: C_3  and  C_32
REMARK    4  A    between atoms: N_6  and  N_10
REMARK    5  A    between atoms: C_11  and  C_13
REMARK    6  A    between atoms: C_13  and  S_14
REMARK    7  A    between atoms: S_14  and  C_15
REMARK    8  A    between atoms: C_18  and  C_25
REMARK    9  A    between atoms: N_19  and  C_20
REMARK                            x       y       z     vdW  Elec       q    Type
REMARK                         _______ _______ _______ _____ _____    ______ ____
ROOT
ATOM      1  S   UNL     1      -0.954   1.632  -1.484  0.00  0.00    -0.077 S 
ENDROOT
BRANCH   1   2
ATOM      2  C   UNL     1       0.096   0.969  -2.733  0.00  0.00    +0.193 A 
ATOM      3  N   UNL     1       1.249   0.366  -2.544  0.00  0.00    -0.122 NA
ATOM      4  N   UNL     1       1.749   0.007  -3.672  0.00  0.00    -0.128 NA
ATOM      5  C   UNL     1       0.948   0.358  -4.650  0.00  0.00    +0.167 A 
ATOM      6  N   UNL     1      -0.139   0.979  -4.079  0.00  0.00    -0.299 N 
BRANCH   5   7
ATOM      7  C   UNL     1       1.167   0.124  -6.093  0.00  0.00    +0.038 A 
ATOM      8  C   UNL     1       0.982   1.162  -7.008  0.00  0.00    +0.013 A 
ATOM      9  C   UNL     1       1.193   0.938  -8.353  0.00  0.00    +0.001 A 
ATOM     10  C   UNL     1       1.578  -0.314  -8.797  0.00  0.00    +0.001 A 
ATOM     11  C   UNL     1       1.759  -1.349  -7.898  0.00  0.00    +0.021 A 
ATOM     12  C   UNL     1       1.556  -1.138  -6.548  0.00  0.00    +0.052 A 
ATOM     13 CL   UNL     1       1.782  -2.438  -5.420  0.00  0.00    -0.083 Cl
ENDBRANCH   5   7
BRANCH   6  14
ATOM     14  C   UNL     1      -1.304   1.538  -4.770  0.00  0.00    +0.091 C 
ATOM     15  C   UNL     1      -1.418   3.048  -4.475  0.00  0.00    +0.025 C 
ATOM     16  C   UNL     1      -2.943   3.298  -4.363  0.00  0.00    +0.002 C 
ATOM     17  C   UNL     1      -3.447   2.024  -3.642  0.00  0.00    +0.002 C 
ATOM     18  C   UNL     1      -2.593   0.887  -4.240  0.00  0.00    +0.025 C 
ENDBRANCH   6  14
ENDBRANCH   1   2
BRANCH   1  19
ATOM     19  C   UNL     1       0.018   1.230  -0.011  0.00  0.00    +0.174 C 
BRANCH  19  21
ATOM     20  N   UNL     1      -0.168   1.527   2.438  0.00  0.00    -0.223 N 
ATOM     21  C   UNL     1      -0.707   1.718   1.218  0.00  0.00    +0.240 C 
ATOM     22  O   UNL     1      -1.776   2.281   1.108  0.00  0.00    -0.273 OA
ATOM     23  H   UNL     1       0.687   1.077   2.526  0.00  0.00    +0.174 HD
BRANCH  20  27
ATOM     24  C   UNL     1      -1.486   3.171   5.420  0.00  0.00    +0.111 C 
ATOM     25  C   UNL     1      -0.482   3.068   4.289  0.00  0.00    +0.263 C 
ATOM     26  O   UNL     1       0.450   3.812   4.068  0.00  0.00    -0.271 OA
ATOM     27  N   UNL     1      -0.842   1.980   3.580  0.00  0.00    -0.137 N 
ATOM     28  C   UNL     1      -1.918   1.383   4.104  0.00  0.00    +0.326 C 
ATOM     29  O   UNL     1      -2.426   0.381   3.642  0.00  0.00    -0.251 OA
ATOM     30  N   UNL     1      -2.374   2.016   5.200  0.00  0.00    -0.284 N 
ATOM     31  C   UNL     1      -0.781   3.057   6.773  0.00  0.00    +0.041 C 
ATOM     32  H   UNL     1      -3.139   1.761   5.740  0.00  0.00    +0.151 HD
BRANCH  24  34
ATOM     33  C   UNL     1      -3.347   4.502   6.424  0.00  0.00    +0.006 C 
ATOM     34  C   UNL     1      -2.274   4.479   5.333  0.00  0.00    +0.032 C 
ENDBRANCH  24  34
ENDBRANCH  20  27
ENDBRANCH  19  21
ENDBRANCH   1  19
TORSDOF 7
