REMARK  Name = ZINC65393386
REMARK  5 active torsions:
REMARK  status: ('A' for Active; 'I' for Inactive)
REMARK    1  A    between atoms: C_1  and  C_2
REMARK    2  A    between atoms: C_2  and  C_3
REMARK    3  A    between atoms: C_3  and  C_4
REMARK    4  A    between atoms: C_4  and  C_6
REMARK    5  A    between atoms: C_4  and  N_11
REMARK                            x       y       z     vdW  Elec       q    Type
REMARK                         _______ _______ _______ _____ _____    ______ ____
ROOT
ATOM      1  N   UNL     1      -0.834  -2.537  -1.256  0.00  0.00    -0.308 N 
ATOM      2  C   UNL     1       0.524  -2.649  -1.386  0.00  0.00    +0.196 A 
ATOM      3  N   UNL     1       1.046  -3.085  -2.564  0.00  0.00    -0.295 N 
ATOM      4  H   UNL     1       0.459  -3.314  -3.301  0.00  0.00    +0.172 HD
ATOM      5  C   UNL     1       2.386  -3.196  -2.704  0.00  0.00    +0.256 A 
ATOM      6  O   UNL     1       2.877  -3.585  -3.752  0.00  0.00    -0.267 OA
ATOM      7  C   UNL     1       3.198  -2.853  -1.611  0.00  0.00    +0.036 A 
ATOM      8  C   UNL     1       2.624  -2.427  -0.460  0.00  0.00    +0.051 A 
ATOM      9  N   UNL     1       1.299  -2.326  -0.368  0.00  0.00    -0.221 NA
ATOM     10  C   UNL     1       3.496  -2.062   0.724  0.00  0.00    +0.037 C 
ATOM     11  C   UNL     1       4.131  -3.346   1.265  0.00  0.00    -0.076 C 
ATOM     12  N   UNL     1       5.351  -3.668   0.546  0.00  0.00    +0.380 N 
ATOM     13  C   UNL     1       5.170  -4.111  -0.826  0.00  0.00    -0.078 C 
ATOM     14  C   UNL     1       4.704  -2.954  -1.717  0.00  0.00    +0.023 C 
ATOM     15  H   UNL     1      -1.414  -2.772  -1.997  0.00  0.00    +0.149 HD
ATOM     16  H   UNL     1       5.940  -2.849   0.539  0.00  0.00    -0.086 HD
ATOM     17  H   UNL     1       5.834  -4.395   1.052  0.00  0.00    -0.086 HD
ENDROOT
BRANCH   1  18
ATOM     18  C   UNL     1      -1.413  -2.063   0.004  0.00  0.00    +0.110 C 
BRANCH  18  19
ATOM     19  C   UNL     1      -2.820  -2.586   0.139  0.00  0.00    +0.010 A 
ATOM     20  C   UNL     1      -3.455  -3.052   1.242  0.00  0.00    +0.013 A 
ATOM     21  C   UNL     1      -4.764  -3.484   1.129  0.00  0.00    +0.008 A 
ATOM     22  C   UNL     1      -5.372  -3.429  -0.081  0.00  0.00    +0.045 A 
ATOM     23  S   UNL     1      -4.085  -2.743  -1.111  0.00  0.00    -0.100 S 
ENDBRANCH  18  19
BRANCH  18  24
ATOM     24  C   UNL     1      -1.433  -0.534   0.013  0.00  0.00    +0.027 C 
BRANCH  24  26
ATOM     25  C   UNL     1      -0.019   1.526   0.010  0.00  0.00    +0.004 C 
ATOM     26  C   UNL     1       0.002  -0.004   0.002  0.00  0.00    -0.001 C 
ENDBRANCH  24  26
ENDBRANCH  18  24
ENDBRANCH   1  18
TORSDOF 4
