REMARK  Name = ZINC38508743
REMARK  9 active torsions:
REMARK  status: ('A' for Active; 'I' for Inactive)
REMARK    1  A    between atoms: C_1  and  C_2
REMARK    2  A    between atoms: C_2  and  C_3
REMARK    3  A    between atoms: C_3  and  N_4
REMARK    4  A    between atoms: C_10  and  N_15
REMARK    5  A    between atoms: C_11  and  C_12
REMARK    6  A    between atoms: C_16  and  C_18
REMARK    7  A    between atoms: N_21  and  C_23
REMARK    8  A    between atoms: C_23  and  C_24
REMARK    9  A    between atoms: C_23  and  C_25
REMARK                            x       y       z     vdW  Elec       q    Type
REMARK                         _______ _______ _______ _____ _____    ______ ____
ROOT
ATOM      1  N   UNL     1       0.738  -1.966  -1.265  0.00  0.00    +0.383 N 
ATOM      2  C   UNL     1       1.532  -2.438  -2.407  0.00  0.00    -0.074 C 
ATOM      3  C   UNL     1       1.828  -3.935  -2.263  0.00  0.00    +0.018 C 
ATOM      4  C   UNL     1       0.507  -4.650  -2.013  0.00  0.00    -0.027 A 
ATOM      5  C   UNL     1      -0.580  -3.951  -1.616  0.00  0.00    -0.021 A 
ATOM      6  S   UNL     1      -1.856  -5.163  -1.454  0.00  0.00    -0.079 S 
ATOM      7  C   UNL     1      -0.999  -6.541  -1.888  0.00  0.00    +0.085 A 
ATOM      8  C   UNL     1       0.279  -6.074  -2.162  0.00  0.00    +0.068 A 
ATOM      9  C   UNL     1      -0.641  -2.475  -1.376  0.00  0.00    -0.035 C 
ATOM     10  H   UNL     1       1.152  -2.301  -0.408  0.00  0.00    -0.081 HD
ENDROOT
BRANCH   8  11
ATOM     11  C   UNL     1       1.351  -6.981  -2.583  0.00  0.00    +0.244 C 
ATOM     12  O   UNL     1       2.067  -7.506  -1.751  0.00  0.00    -0.270 OA
ATOM     13  N   UNL     1       1.544  -7.232  -3.893  0.00  0.00    -0.325 N 
ATOM     14  H   UNL     1       0.974  -6.814  -4.557  0.00  0.00    +0.145 HD
ATOM     15  H   UNL     1       2.253  -7.832  -4.172  0.00  0.00    +0.145 HD
ENDBRANCH   8  11
BRANCH   7  16
ATOM     16  N   UNL     1      -1.461  -7.845  -1.956  0.00  0.00    -0.274 N 
ATOM     17  C   UNL     1      -2.745  -8.121  -1.653  0.00  0.00    +0.269 C 
ATOM     18  O   UNL     1      -3.497  -7.226  -1.319  0.00  0.00    -0.268 OA
ATOM     19  H   UNL     1      -0.861  -8.559  -2.223  0.00  0.00    +0.156 HD
BRANCH  17  20
ATOM     20  C   UNL     1      -3.238  -9.511  -1.726  0.00  0.00    +0.147 A 
ATOM     21  C   UNL     1      -4.553  -9.954  -1.445  0.00  0.00    +0.054 A 
ATOM     22  C   UNL     1      -4.534 -11.293  -1.645  0.00  0.00    +0.109 A 
ATOM     23  N   UNL     1      -3.280 -11.623  -2.022  0.00  0.00    -0.268 N 
ATOM     24  N   UNL     1      -2.539 -10.575  -2.070  0.00  0.00    -0.166 NA
BRANCH  23  25
ATOM     25  C   UNL     1      -2.830 -12.982  -2.338  0.00  0.00    +0.101 C 
ATOM     26  C   UNL     1      -2.427 -13.698  -1.048  0.00  0.00    +0.032 C 
ATOM     27  C   UNL     1      -3.967 -13.751  -3.015  0.00  0.00    +0.032 C 
ENDBRANCH  23  25
ENDBRANCH  17  20
ENDBRANCH   7  16
BRANCH   1  28
ATOM     28  C   UNL     1       0.718  -0.497  -1.257  0.00  0.00    -0.079 C 
BRANCH  28  30
ATOM     29  C   UNL     1      -0.019   1.526   0.010  0.00  0.00    +0.002 C 
ATOM     30  C   UNL     1       0.002  -0.004   0.002  0.00  0.00    -0.022 C 
ENDBRANCH  28  30
ENDBRANCH   1  28
TORSDOF 6
