REMARK  Name = ZINC13031554
REMARK  14 active torsions:
REMARK  status: ('A' for Active; 'I' for Inactive)
REMARK    1  A    between atoms: C_1  and  C_2
REMARK    2  A    between atoms: C_2  and  C_4
REMARK    3  A    between atoms: C_2  and  N_11
REMARK    4  A    between atoms: N_11  and  C_12
REMARK    5  A    between atoms: C_12  and  C_13
REMARK    6  A    between atoms: N_15  and  C_16
REMARK    7  A    between atoms: N_15  and  C_21
REMARK    8  A    between atoms: C_16  and  C_17
REMARK    9  A    between atoms: C_17  and  C_18
REMARK   10  A    between atoms: C_18  and  C_19
REMARK   11  A    between atoms: C_18  and  C_20
REMARK   12  A    between atoms: C_22  and  N_37
REMARK   13  A    between atoms: N_23  and  C_30
REMARK   14  A    between atoms: C_30  and  C_31
REMARK                            x       y       z     vdW  Elec       q    Type
REMARK                         _______ _______ _______ _____ _____    ______ ____
ROOT
ATOM      1  C   UNL     1       0.158  -1.001  -3.679  0.00  0.00    +0.234 C 
ATOM      2  O   UNL     1       1.213  -1.541  -3.419  0.00  0.00    -0.274 OA
ATOM      3  N   UNL     1      -0.315  -1.016  -4.943  0.00  0.00    -0.263 N 
ENDROOT
BRANCH   3   4
ATOM      4  C   UNL     1       0.463  -1.573  -5.980  0.00  0.00    +0.140 A 
ATOM      5  C   UNL     1       1.670  -1.005  -6.334  0.00  0.00    +0.128 A 
ATOM      6  N   UNL     1       2.406  -1.571  -7.349  0.00  0.00    -0.276 N 
ATOM      7  C   UNL     1       1.954  -2.665  -7.989  0.00  0.00    +0.331 A 
ATOM      8  O   UNL     1       2.619  -3.151  -8.884  0.00  0.00    -0.246 OA
ATOM      9  N   UNL     1       0.780  -3.232  -7.657  0.00  0.00    -0.273 N 
ATOM     10  H   UNL     1       0.477  -4.020  -8.134  0.00  0.00    +0.173 HD
ATOM     11  C   UNL     1       0.024  -2.720  -6.667  0.00  0.00    +0.277 A 
ATOM     12  O   UNL     1      -1.037  -3.244  -6.371  0.00  0.00    -0.266 OA
BRANCH   5  13
ATOM     13  N   UNL     1       2.131   0.112  -5.681  0.00  0.00    -0.343 N 
ATOM     14  H   UNL     1       1.625   0.487  -4.944  0.00  0.00    +0.144 HD
ATOM     15  H   UNL     1       2.964   0.526  -5.957  0.00  0.00    +0.144 HD
ENDBRANCH   5  13
BRANCH   6  16
ATOM     16  C   UNL     1       3.689  -0.980  -7.736  0.00  0.00    +0.163 C 
BRANCH  16  17
ATOM     17  C   UNL     1       4.795  -1.603  -6.925  0.00  0.00    -0.028 A 
ATOM     18  C   UNL     1       5.161  -1.048  -5.713  0.00  0.00    +0.005 A 
ATOM     19  C   UNL     1       6.176  -1.620  -4.969  0.00  0.00    +0.000 A 
ATOM     20  C   UNL     1       6.824  -2.748  -5.436  0.00  0.00    +0.000 A 
ATOM     21  C   UNL     1       6.457  -3.304  -6.648  0.00  0.00    +0.000 A 
ATOM     22  C   UNL     1       5.439  -2.734  -7.390  0.00  0.00    +0.005 A 
ENDBRANCH  16  17
ENDBRANCH   6  16
ENDBRANCH   3   4
BRANCH   1  23
ATOM     23  C   UNL     1      -0.626  -0.315  -2.590  0.00  0.00    +0.178 C 
BRANCH  23  24
ATOM     24  N   UNL     1       0.095  -0.439  -1.316  0.00  0.00    -0.302 NA
ATOM     25  H   UNL     1       1.032  -0.072  -1.393  0.00  0.00    +0.123 HD
BRANCH  24  27
ATOM     26  C   UNL     1      -0.291   1.710  -0.205  0.00  0.00    +0.029 C 
ATOM     27  C   UNL     1      -0.641   0.220  -0.228  0.00  0.00    +0.081 C 
BRANCH  27  28
ATOM     28  C   UNL     1      -0.258  -0.406   1.088  0.00  0.00    -0.031 A 
ATOM     29  C   UNL     1       1.058  -0.748   1.334  0.00  0.00    +0.008 A 
ATOM     30  C   UNL     1       1.410  -1.321   2.541  0.00  0.00    +0.038 A 
ATOM     31  C   UNL     1       0.443  -1.553   3.505  0.00  0.00    +0.123 A 
ATOM     32  C   UNL     1      -0.875  -1.210   3.257  0.00  0.00    +0.038 A 
ATOM     33  C   UNL     1      -1.224  -0.632   2.052  0.00  0.00    +0.008 A 
ATOM     34  F   UNL     1       0.786  -2.114   4.685  0.00  0.00    -0.205 F 
ENDBRANCH  27  28
ENDBRANCH  24  27
ENDBRANCH  23  24
ENDBRANCH   1  23
BRANCH   3  35
ATOM     35  C   UNL     1      -1.635  -0.453  -5.238  0.00  0.00    +0.114 C 
BRANCH  35  36
ATOM     36  C   UNL     1      -1.493   1.034  -5.568  0.00  0.00    +0.022 C 
BRANCH  36  37
ATOM     37  C   UNL     1      -2.872   1.622  -5.876  0.00  0.00    -0.016 C 
ATOM     38  C   UNL     1      -3.742   1.567  -4.619  0.00  0.00    +0.007 C 
ATOM     39  C   UNL     1      -2.717   3.076  -6.326  0.00  0.00    +0.007 C 
ENDBRANCH  36  37
ENDBRANCH  35  36
ENDBRANCH   3  35
TORSDOF 11
