REMARK  Name = ZINC03998113
REMARK  4 active torsions:
REMARK  status: ('A' for Active; 'I' for Inactive)
REMARK    1  A    between atoms: C_1  and  C_2
REMARK    2  A    between atoms: C_5  and  C_9
REMARK    3  A    between atoms: C_9  and  C_11
REMARK    4  A    between atoms: C_12  and  C_13
REMARK                            x       y       z     vdW  Elec       q    Type
REMARK                         _______ _______ _______ _____ _____    ______ ____
ROOT
ATOM      1  C   UNL     1       3.631   2.679  -2.534  0.00  0.00    +0.063 C 
ATOM      2  C   UNL     1       3.010   2.376  -1.195  0.00  0.00    +0.019 A 
ATOM      3  C   UNL     1       3.717   2.674  -0.036  0.00  0.00    -0.024 A 
ATOM      4  C   UNL     1       3.146   2.401   1.185  0.00  0.00    -0.027 A 
ATOM      5  C   UNL     1       1.863   1.831   1.212  0.00  0.00    +0.089 A 
ATOM      6  C   UNL     1       1.217   1.556  -0.001  0.00  0.00    +0.260 A 
ATOM      7  N   UNL     1       1.808   1.840  -1.149  0.00  0.00    -0.326 N 
ATOM      8  O   UNL     1      -0.019   1.002   0.003  0.00  0.00    -0.267 OA
ATOM      9  C   UNL     1       3.829   2.700   2.491  0.00  0.00    +0.036 C 
ATOM     10  C   UNL     1       5.330   2.904   2.273  0.00  0.00    +0.005 C 
ATOM     11  C   UNL     1       5.518   3.926   1.146  0.00  0.00    +0.005 C 
ATOM     12  C   UNL     1       5.086   3.285  -0.170  0.00  0.00    +0.037 C 
ATOM     13  H   UNL     1       1.331   1.642  -2.005  0.00  0.00    +0.169 HD
ENDROOT
BRANCH   5  14
ATOM     14  C   UNL     1       1.205   1.527   2.498  0.00  0.00    +0.192 C 
ATOM     15  O   UNL     1       1.297   0.412   2.980  0.00  0.00    -0.287 OA
BRANCH  14  16
ATOM     16  C   UNL     1       0.443   2.564   3.193  0.00  0.00    +0.052 C 
ATOM     17  C   UNL     1      -0.069   2.318   4.418  0.00  0.00    +0.012 C 
BRANCH  17  18
ATOM     18  C   UNL     1      -0.836   3.361   5.117  0.00  0.00    -0.025 A 
ATOM     19  C   UNL     1      -1.030   4.611   4.519  0.00  0.00    +0.009 A 
ATOM     20  C   UNL     1      -1.754   5.581   5.177  0.00  0.00    +0.020 A 
ATOM     21  C   UNL     1      -2.279   5.326   6.434  0.00  0.00    +0.041 A 
ATOM     22  C   UNL     1      -2.085   4.092   7.035  0.00  0.00    +0.020 A 
ATOM     23  C   UNL     1      -1.368   3.110   6.386  0.00  0.00    +0.009 A 
ATOM     24 CL   UNL     1      -3.182   6.557   7.260  0.00  0.00    -0.084 Cl
ENDBRANCH  17  18
ENDBRANCH  14  16
ENDBRANCH   5  14
TORSDOF 3
