REMARK  Name = ZINC54905709
REMARK  8 active torsions:
REMARK  status: ('A' for Active; 'I' for Inactive)
REMARK    1  A    between atoms: C_1  and  C_2
REMARK    2  A    between atoms: C_5  and  C_8
REMARK    3  A    between atoms: C_10  and  C_20
REMARK    4  A    between atoms: N_14  and  C_17
REMARK    5  A    between atoms: C_17  and  C_18
REMARK    6  A    between atoms: C_17  and  C_19
REMARK    7  A    between atoms: N_22  and  C_23
REMARK    8  A    between atoms: C_23  and  C_24
REMARK                            x       y       z     vdW  Elec       q    Type
REMARK                         _______ _______ _______ _____ _____    ______ ____
ROOT
ATOM      1  C   UNL     1       0.061  -4.255  -0.021  0.00  0.00    +0.074 A 
ATOM      2  C   UNL     1       0.070  -4.946   1.194  0.00  0.00    +0.042 A 
ATOM      3  C   UNL     1       0.089  -6.336   1.186  0.00  0.00    +0.051 A 
ATOM      4  C   UNL     1       0.098  -6.991  -0.067  0.00  0.00    +0.051 A 
ATOM      5  C   UNL     1       0.116  -8.346  -0.459  0.00  0.00    +0.145 A 
ATOM      6  N   UNL     1       0.117  -8.402  -1.760  0.00  0.00    -0.177 NA
ATOM      7  N   UNL     1       0.099  -7.107  -2.290  0.00  0.00    -0.244 N 
ATOM      8  C   UNL     1       0.087  -6.218  -1.246  0.00  0.00    +0.160 A 
ATOM      9  N   UNL     1       0.064  -4.896  -1.178  0.00  0.00    -0.228 NA
ENDROOT
BRANCH   1  14
ATOM     10  C   UNL     1      -0.018   1.503   0.010  0.00  0.00    +0.044 C 
ATOM     11  C   UNL     1       0.002  -0.004   0.002  0.00  0.00    -0.050 A 
ATOM     12  C   UNL     1       0.006  -0.686  -1.201  0.00  0.00    +0.004 A 
ATOM     13  C   UNL     1       0.025  -2.066  -1.215  0.00  0.00    +0.010 A 
ATOM     14  C   UNL     1       0.041  -2.772  -0.013  0.00  0.00    +0.000 A 
ATOM     15  C   UNL     1       0.037  -2.079   1.196  0.00  0.00    +0.010 A 
ATOM     16  C   UNL     1       0.023  -0.699   1.198  0.00  0.00    +0.004 A 
ENDBRANCH   1  14
BRANCH   3  17
ATOM     17  C   UNL     1       0.101  -7.105   2.449  0.00  0.00    +0.245 C 
ATOM     18  O   UNL     1       0.117  -8.320   2.420  0.00  0.00    -0.270 OA
ATOM     19  N   UNL     1       0.093  -6.459   3.632  0.00  0.00    -0.304 N 
ATOM     20  H   UNL     1       0.080  -5.490   3.655  0.00  0.00    +0.149 HD
BRANCH  19  21
ATOM     21  C   UNL     1       0.104  -7.222   4.883  0.00  0.00    +0.181 C 
BRANCH  21  22
ATOM     22  C   UNL     1       0.092  -6.270   6.051  0.00  0.00    +0.151 A 
ATOM     23  N   UNL     1       1.136  -5.762   6.647  0.00  0.00    -0.133 NA
ATOM     24  N   UNL     1       0.757  -4.992   7.604  0.00  0.00    -0.134 NA
ATOM     25  C   UNL     1      -0.548  -4.975   7.662  0.00  0.00    +0.134 A 
ATOM     26  N   UNL     1      -1.006  -5.777   6.676  0.00  0.00    -0.313 N 
ATOM     27  C   UNL     1      -2.474  -5.808   6.656  0.00  0.00    +0.125 C 
ATOM     28  C   UNL     1      -2.918  -5.259   8.030  0.00  0.00    +0.029 C 
ATOM     29  C   UNL     1      -1.712  -4.382   8.428  0.00  0.00    +0.078 C 
ENDBRANCH  21  22
ENDBRANCH  19  21
ENDBRANCH   3  17
BRANCH   7  30
ATOM     30  C   UNL     1       0.094  -6.760  -3.713  0.00  0.00    +0.103 C 
ATOM     31  C   UNL     1       1.351  -7.324  -4.380  0.00  0.00    +0.032 C 
ATOM     32  C   UNL     1      -1.147  -7.357  -4.379  0.00  0.00    +0.032 C 
ENDBRANCH   7  30
TORSDOF 5
