REMARK  Name = ZINC14550684
REMARK  3 active torsions:
REMARK  status: ('A' for Active; 'I' for Inactive)
REMARK    1  A    between atoms: C_3  and  N_24
REMARK    2  A    between atoms: C_6  and  C_7
REMARK    3  A    between atoms: C_18  and  O_23
REMARK                            x       y       z     vdW  Elec       q    Type
REMARK                         _______ _______ _______ _____ _____    ______ ____
ROOT
ATOM      1  C   UNL     1       3.622   0.890  -0.369  0.00  0.00    +0.105 C 
ATOM      2  C   UNL     1       2.161   0.673  -0.721  0.00  0.00    +0.029 C 
ATOM      3  C   UNL     1       1.446  -0.507  -0.049  0.00  0.00    +0.033 C 
ATOM      4  C   UNL     1       0.002  -0.004   0.002  0.00  0.00    -0.030 C 
ATOM      5  C   UNL     1      -0.016   1.323   0.009  0.00  0.00    -0.023 C 
ATOM      6  C   UNL     1       1.385   1.817  -0.001  0.00  0.00    +0.049 C 
ATOM      7  C   UNL     1       1.758   3.094  -0.647  0.00  0.00    -0.016 A 
ATOM      8  C   UNL     1       0.870   4.138  -0.788  0.00  0.00    +0.051 A 
ATOM      9  C   UNL     1       1.277   5.330  -1.369  0.00  0.00    +0.117 A 
ATOM     10  C   UNL     1       2.584   5.471  -1.811  0.00  0.00    +0.047 A 
ATOM     11  C   UNL     1       3.476   4.426  -1.680  0.00  0.00    +0.027 A 
ATOM     12  C   UNL     1       3.074   3.227  -1.105  0.00  0.00    +0.032 A 
ATOM     13  N   UNL     1       3.996   2.175  -0.998  0.00  0.00    -0.336 N 
ATOM     14  H   UNL     1       4.895   2.292  -1.343  0.00  0.00    +0.147 HD
ENDROOT
BRANCH   1  20
ATOM     15  C   UNL     1       4.824  -0.222  -2.262  0.00  0.00    +0.008 A 
ATOM     16  C   UNL     1       5.599  -1.245  -2.774  0.00  0.00    +0.033 A 
ATOM     17  C   UNL     1       6.007  -2.280  -1.953  0.00  0.00    +0.126 A 
ATOM     18  C   UNL     1       5.642  -2.289  -0.620  0.00  0.00    +0.033 A 
ATOM     19  C   UNL     1       4.870  -1.264  -0.107  0.00  0.00    +0.008 A 
ATOM     20  C   UNL     1       4.463  -0.228  -0.928  0.00  0.00    -0.027 A 
BRANCH  17  21
ATOM     21  N   UNL     1       6.834  -3.378  -2.502  0.00  0.00    +0.056 N 
ATOM     22  O   UNL     1       7.193  -4.290  -1.779  0.00  0.00    -0.126 OA
ATOM     23  O   UNL     1       7.156  -3.369  -3.677  0.00  0.00    -0.126 OA
ENDBRANCH  17  21
ENDBRANCH   1  20
BRANCH   9  24
ATOM     24  O   UNL     1       0.396   6.357  -1.506  0.00  0.00    -0.507 OA
ATOM     25  H   UNL     1      -0.094   6.347  -2.339  0.00  0.00    +0.292 HD
ENDBRANCH   9  24
TORSDOF 3
