REMARK  Name = ZINC39451697
REMARK  6 active torsions:
REMARK  status: ('A' for Active; 'I' for Inactive)
REMARK    1  A    between atoms: C_1  and  C_2
REMARK    2  A    between atoms: C_2  and  O_3
REMARK    3  A    between atoms: O_3  and  C_4
REMARK    4  A    between atoms: C_14  and  O_17
REMARK    5  A    between atoms: N_20  and  C_21
REMARK    6  A    between atoms: C_21  and  C_22
REMARK                            x       y       z     vdW  Elec       q    Type
REMARK                         _______ _______ _______ _____ _____    ______ ____
ROOT
ATOM      1  C   UNL     1      -1.387  -2.298  -0.150  0.00  0.00    +0.211 C 
ATOM      2  C   UNL     1      -2.840  -2.733   0.076  0.00  0.00    +0.132 C 
ATOM      3  C   UNL     1      -3.697  -2.213  -1.048  0.00  0.00    +0.185 C 
ATOM      4  O   UNL     1      -4.865  -1.952  -0.842  0.00  0.00    -0.290 OA
ATOM      5  C   UNL     1      -3.155  -2.024  -2.339  0.00  0.00    +0.111 A 
ATOM      6  C   UNL     1      -1.811  -2.263  -2.562  0.00  0.00    +0.083 A 
ATOM      7  C   UNL     1      -1.250  -2.075  -3.906  0.00  0.00    +0.099 A 
ATOM      8  C   UNL     1      -2.114  -1.639  -4.934  0.00  0.00    +0.070 A 
ATOM      9  C   UNL     1      -1.605  -1.451  -6.219  0.00  0.00    +0.062 A 
ATOM     10  C   UNL     1      -0.255  -1.705  -6.428  0.00  0.00    +0.136 A 
ATOM     11  C   UNL     1       0.535  -2.133  -5.363  0.00  0.00    +0.156 A 
ATOM     12  N   UNL     1       0.033  -2.302  -4.160  0.00  0.00    -0.249 NA
ATOM     13  C   UNL     1      -3.529  -1.397  -4.619  0.00  0.00    +0.262 A 
ATOM     14  O   UNL     1      -4.291  -1.020  -5.491  0.00  0.00    -0.267 OA
ATOM     15  N   UNL     1      -3.984  -1.592  -3.368  0.00  0.00    -0.299 N 
ATOM     16  N   UNL     1      -1.001  -2.673  -1.519  0.00  0.00    -0.315 N 
ATOM     17  H   UNL     1      -0.200  -3.194  -1.685  0.00  0.00    +0.149 HD
ENDROOT
BRANCH  10  18
ATOM     18  O   UNL     1       0.289  -1.537  -7.661  0.00  0.00    -0.505 OA
ATOM     19  H   UNL     1       0.636  -0.649  -7.820  0.00  0.00    +0.292 HD
ENDBRANCH  10  18
BRANCH   1  20
ATOM     20  O   UNL     1      -1.277  -0.883   0.012  0.00  0.00    -0.359 OA
BRANCH  20  22
ATOM     21  C   UNL     1       0.066   1.117   0.208  0.00  0.00    +0.034 C 
ATOM     22  C   UNL     1       0.069  -0.403   0.032  0.00  0.00    +0.159 C 
ENDBRANCH  20  22
ENDBRANCH   1  20
BRANCH  15  23
ATOM     23  C   UNL     1      -5.398  -1.342  -3.081  0.00  0.00    +0.160 C 
BRANCH  23  24
ATOM     24  C   UNL     1      -6.187  -2.608  -3.298  0.00  0.00    -0.028 A 
ATOM     25  C   UNL     1      -6.592  -2.960  -4.572  0.00  0.00    +0.005 A 
ATOM     26  C   UNL     1      -7.315  -4.121  -4.771  0.00  0.00    +0.000 A 
ATOM     27  C   UNL     1      -7.633  -4.930  -3.696  0.00  0.00    +0.000 A 
ATOM     28  C   UNL     1      -7.226  -4.579  -2.422  0.00  0.00    +0.000 A 
ATOM     29  C   UNL     1      -6.500  -3.420  -2.224  0.00  0.00    +0.005 A 
ENDBRANCH  23  24
ENDBRANCH  15  23
TORSDOF 5
