REMARK  Name = ZINC17784673
REMARK  3 active torsions:
REMARK  status: ('A' for Active; 'I' for Inactive)
REMARK    1  A    between atoms: C_3  and  N_26
REMARK    2  A    between atoms: C_6  and  C_7
REMARK    3  A    between atoms: N_16  and  C_19
REMARK                            x       y       z     vdW  Elec       q    Type
REMARK                         _______ _______ _______ _____ _____    ______ ____
ROOT
ATOM      1  C   UNL     1      -1.265  -0.763   0.011  0.00  0.00    +0.080 C 
ATOM      2  N   UNL     1      -2.537  -0.209   0.020  0.00  0.00    -0.264 N 
ATOM      3  O   UNL     1      -3.405  -1.220   0.570  0.00  0.00    -0.256 OA
ATOM      4  C   UNL     1      -2.883  -2.384  -0.090  0.00  0.00    +0.272 C 
ATOM      5  C   UNL     1      -1.373  -2.116   0.004  0.00  0.00    +0.081 C 
ATOM      6  H   UNL     1      -2.790   0.678  -0.281  0.00  0.00    +0.194 HD
ATOM      7  C   UNL     1      -0.848  -3.406   0.138  0.00  0.00    +0.258 C 
ATOM      8  O   UNL     1       0.270  -3.750  -0.204  0.00  0.00    -0.269 OA
ATOM      9  N   UNL     1      -1.771  -4.208   0.703  0.00  0.00    -0.204 N 
ATOM     10  C   UNL     1      -3.027  -3.666   0.680  0.00  0.00    +0.263 C 
ATOM     11  O   UNL     1      -4.043  -4.116   1.167  0.00  0.00    -0.271 OA
ENDROOT
BRANCH   9  12
ATOM     12  C   UNL     1      -1.481  -5.464   1.254  0.00  0.00    +0.044 A 
ATOM     13  C   UNL     1      -2.495  -6.230   1.812  0.00  0.00    +0.025 A 
ATOM     14  C   UNL     1      -2.206  -7.467   2.353  0.00  0.00    +0.022 A 
ATOM     15  C   UNL     1      -0.907  -7.943   2.340  0.00  0.00    +0.041 A 
ATOM     16  C   UNL     1       0.106  -7.181   1.784  0.00  0.00    +0.022 A 
ATOM     17  C   UNL     1      -0.179  -5.946   1.236  0.00  0.00    +0.025 A 
ATOM     18 CL   UNL     1      -0.547  -9.499   3.021  0.00  0.00    -0.084 Cl
ENDBRANCH   9  12
BRANCH   1  24
ATOM     19  C   UNL     1      -0.017   1.392   0.010  0.00  0.00    +0.012 A 
ATOM     20  C   UNL     1       1.170   2.095   0.002  0.00  0.00    +0.033 A 
ATOM     21  C   UNL     1       2.378   1.419  -0.013  0.00  0.00    +0.126 A 
ATOM     22  C   UNL     1       2.404   0.036  -0.021  0.00  0.00    +0.033 A 
ATOM     23  C   UNL     1       1.224  -0.679  -0.013  0.00  0.00    +0.012 A 
ATOM     24  C   UNL     1       0.002  -0.004   0.002  0.00  0.00    +0.001 A 
BRANCH  21  25
ATOM     25  N   UNL     1       3.647   2.180  -0.022  0.00  0.00    +0.056 N 
ATOM     26  O   UNL     1       3.628   3.389  -0.016  0.00  0.00    -0.126 OA
ATOM     27  O   UNL     1       4.704   1.593  -0.036  0.00  0.00    -0.126 OA
ENDBRANCH  21  25
ENDBRANCH   1  24
TORSDOF 3
