REMARK  Name = ZINC22014474
REMARK  14 active torsions:
REMARK  status: ('A' for Active; 'I' for Inactive)
REMARK    1  A    between atoms: C_1  and  C_2
REMARK    2  A    between atoms: C_4  and  C_33
REMARK    3  A    between atoms: C_5  and  C_26
REMARK    4  A    between atoms: C_6  and  C_25
REMARK    5  A    between atoms: C_7  and  C_8
REMARK    6  A    between atoms: C_8  and  C_9
REMARK    7  A    between atoms: C_10  and  C_24
REMARK    8  A    between atoms: C_12  and  C_23
REMARK    9  A    between atoms: C_13  and  C_16
REMARK   10  A    between atoms: C_14  and  C_15
REMARK   11  A    between atoms: C_17  and  C_18
REMARK   12  A    between atoms: C_17  and  C_20
REMARK   13  A    between atoms: C_27  and  C_28
REMARK   14  A    between atoms: C_27  and  C_30
REMARK                            x       y       z     vdW  Elec       q    Type
REMARK                         _______ _______ _______ _____ _____    ______ ____
ROOT
ATOM      1  C   UNL     1      -0.992  -0.103   1.329  0.00  0.00    +0.071 C 
ENDROOT
BRANCH   1   8
ATOM      2  C   UNL     1      -2.515  -2.259   0.163  0.00  0.00    +0.044 C 
ATOM      3  C   UNL     1      -1.948  -1.177  -0.721  0.00  0.00    -0.046 A 
ATOM      4  C   UNL     1      -2.167  -1.221  -2.087  0.00  0.00    +0.007 A 
ATOM      5  C   UNL     1      -1.653  -0.237  -2.903  0.00  0.00    -0.043 A 
ATOM      6  C   UNL     1      -0.907   0.810  -2.346  0.00  0.00    -0.018 A 
ATOM      7  C   UNL     1      -0.691   0.847  -0.963  0.00  0.00    -0.039 A 
ATOM      8  C   UNL     1      -1.218  -0.143  -0.161  0.00  0.00    -0.037 A 
ATOM      9  C   UNL     1       0.110   1.968  -0.352  0.00  0.00    +0.044 C 
ATOM     10  C   UNL     1      -1.891  -0.287  -4.390  0.00  0.00    +0.044 C 
BRANCH   6  11
ATOM     11  C   UNL     1      -0.355   1.863  -3.207  0.00  0.00    +0.032 C 
ATOM     12  C   UNL     1      -1.192   2.648  -3.947  0.00  0.00    +0.114 C 
BRANCH  12  13
ATOM     13  C   UNL     1      -0.636   3.607  -4.917  0.00  0.00    +0.252 C 
ATOM     14  O   UNL     1       0.568   3.699  -5.059  0.00  0.00    -0.270 OA
ATOM     15  N   UNL     1      -1.462   4.382  -5.648  0.00  0.00    -0.325 N 
ATOM     16  H   UNL     1      -2.423   4.308  -5.535  0.00  0.00    +0.145 HD
ATOM     17  H   UNL     1      -1.096   5.013  -6.287  0.00  0.00    +0.145 HD
ENDBRANCH  12  13
BRANCH  12  18
ATOM     18  C   UNL     1      -2.611   2.539  -3.781  0.00  0.00    +0.104 C 
ATOM     19  N   UNL     1      -3.736   2.452  -3.649  0.00  0.00    -0.191 NA
ENDBRANCH  12  18
ENDBRANCH   6  11
ENDBRANCH   1   8
BRANCH   1  20
ATOM     20  C   UNL     1      -2.292   0.205   2.025  0.00  0.00    -0.037 A 
ATOM     21  C   UNL     1      -2.887  -0.752   2.830  0.00  0.00    -0.046 A 
ATOM     22  C   UNL     1      -4.082  -0.480   3.475  0.00  0.00    +0.007 A 
ATOM     23  C   UNL     1      -4.689   0.747   3.320  0.00  0.00    -0.043 A 
ATOM     24  C   UNL     1      -4.095   1.721   2.508  0.00  0.00    -0.018 A 
ATOM     25  C   UNL     1      -2.883   1.439   1.864  0.00  0.00    -0.039 A 
ATOM     26  C   UNL     1      -2.231   2.481   0.992  0.00  0.00    +0.044 C 
ATOM     27  C   UNL     1      -5.990   1.040   4.022  0.00  0.00    +0.044 C 
ATOM     28  C   UNL     1      -2.231  -2.097   3.006  0.00  0.00    +0.044 C 
BRANCH  24  29
ATOM     29  C   UNL     1      -4.734   3.030   2.337  0.00  0.00    +0.032 C 
ATOM     30  C   UNL     1      -4.868   3.870   3.405  0.00  0.00    +0.114 C 
BRANCH  30  31
ATOM     31  C   UNL     1      -4.206   3.550   4.681  0.00  0.00    +0.252 C 
ATOM     32  O   UNL     1      -3.580   2.513   4.798  0.00  0.00    -0.270 OA
ATOM     33  N   UNL     1      -4.295   4.404   5.720  0.00  0.00    -0.325 N 
ATOM     34  H   UNL     1      -4.794   5.230   5.627  0.00  0.00    +0.145 HD
ATOM     35  H   UNL     1      -3.859   4.192   6.560  0.00  0.00    +0.145 HD
ENDBRANCH  30  31
BRANCH  30  36
ATOM     36  C   UNL     1      -5.651   5.063   3.285  0.00  0.00    +0.104 C 
ATOM     37  N   UNL     1      -6.272   6.010   3.190  0.00  0.00    -0.191 NA
ENDBRANCH  30  36
ENDBRANCH  24  29
ENDBRANCH   1  20
TORSDOF 8
