REMARK  Name = ZINC37226780
REMARK  10 active torsions:
REMARK  status: ('A' for Active; 'I' for Inactive)
REMARK    1  A    between atoms: C_1  and  C_2
REMARK    2  A    between atoms: C_2  and  C_4
REMARK    3  A    between atoms: C_2  and  C_20
REMARK    4  A    between atoms: C_4  and  O_5
REMARK    5  A    between atoms: O_5  and  C_6
REMARK    6  A    between atoms: C_7  and  O_18
REMARK    7  A    between atoms: C_9  and  C_13
REMARK    8  A    between atoms: C_13  and  N_14
REMARK    9  A    between atoms: N_14  and  C_15
REMARK   10  A    between atoms: O_18  and  C_19
REMARK                            x       y       z     vdW  Elec       q    Type
REMARK                         _______ _______ _______ _____ _____    ______ ____
ROOT
ATOM      1  C   UNL     1      -3.382  -0.553  -1.351  0.00  0.00    +0.180 A 
ATOM      2  C   UNL     1      -3.671  -1.779  -1.942  0.00  0.00    +0.163 A 
ATOM      3  C   UNL     1      -4.990  -2.178  -2.094  0.00  0.00    +0.051 A 
ATOM      4  C   UNL     1      -6.015  -1.357  -1.660  0.00  0.00    -0.059 A 
ATOM      5  C   UNL     1      -5.728  -0.139  -1.073  0.00  0.00    +0.025 A 
ATOM      6  C   UNL     1      -4.413   0.262  -0.912  0.00  0.00    +0.086 A 
ATOM      7 CL   UNL     1      -4.056   1.790  -0.169  0.00  0.00    -0.080 Cl
ENDROOT
BRANCH   2   8
ATOM      8  O   UNL     1      -2.663  -2.585  -2.369  0.00  0.00    -0.491 OA
ATOM      9  C   UNL     1      -3.034  -3.829  -2.965  0.00  0.00    +0.277 C 
ENDBRANCH   2   8
BRANCH   1  10
ATOM     10  O   UNL     1      -2.089  -0.158  -1.200  0.00  0.00    -0.486 OA
BRANCH  10  11
ATOM     11  C   UNL     1      -1.433  -0.534   0.013  0.00  0.00    +0.241 C 
BRANCH  11  13
ATOM     12  C   UNL     1      -0.019   1.526   0.010  0.00  0.00    +0.020 C 
ATOM     13  C   UNL     1       0.002  -0.004   0.002  0.00  0.00    +0.109 C 
BRANCH  13  14
ATOM     14  C   UNL     1       0.731  -0.503   1.223  0.00  0.00    +0.217 C 
ATOM     15  O   UNL     1       0.159  -1.213   2.023  0.00  0.00    -0.276 OA
ATOM     16  N   UNL     1       2.019  -0.161   1.426  0.00  0.00    -0.329 N 
ATOM     17  H   UNL     1       2.476   0.406   0.786  0.00  0.00    +0.145 HD
ATOM     18  H   UNL     1       2.488  -0.483   2.212  0.00  0.00    +0.145 HD
ENDBRANCH  13  14
ENDBRANCH  11  13
ENDBRANCH  10  11
ENDBRANCH   1  10
BRANCH   4  19
ATOM     19  C   UNL     1      -7.448  -1.792  -1.827  0.00  0.00    -0.046 C 
BRANCH  19  20
ATOM     20  N   UNL     1      -7.874  -2.542  -0.637  0.00  0.00    +0.384 N 
ATOM     21  H   UNL     1      -7.286  -3.354  -0.524  0.00  0.00    -0.085 HD
ATOM     22  H   UNL     1      -7.794  -1.953   0.178  0.00  0.00    -0.085 HD
BRANCH  20  23
ATOM     23  C   UNL     1      -9.271  -2.966  -0.800  0.00  0.00    -0.072 C 
ATOM     24  C   UNL     1     -10.299  -2.400   0.181  0.00  0.00    -0.017 C 
ATOM     25  C   UNL     1      -9.867  -3.864   0.286  0.00  0.00    -0.017 C 
ENDBRANCH  20  23
ENDBRANCH  19  20
ENDBRANCH   4  19
TORSDOF 8
