REMARK  Name = ZINC40377053
REMARK  7 active torsions:
REMARK  status: ('A' for Active; 'I' for Inactive)
REMARK    1  A    between atoms: C_1  and  C_2
REMARK    2  A    between atoms: C_2  and  C_3
REMARK    3  A    between atoms: C_2  and  C_4
REMARK    4  A    between atoms: C_2  and  N_8
REMARK    5  A    between atoms: N_5  and  O_6
REMARK    6  A    between atoms: N_8  and  S_9
REMARK    7  A    between atoms: S_9  and  C_12
REMARK                            x       y       z     vdW  Elec       q    Type
REMARK                         _______ _______ _______ _____ _____    ______ ____
ROOT
ATOM      1  N   UNL     1       0.694  -0.458  -0.954  0.00  0.00    -0.181 NA
ATOM      2  H   UNL     1       0.035  -0.914  -1.501  0.00  0.00    +0.149 HD
ENDROOT
BRANCH   1   4
ATOM      3  C   UNL     1      -1.260   0.456   0.198  0.00  0.00    +0.037 C 
ATOM      4  C   UNL     1       0.265   0.337   0.199  0.00  0.00    +0.092 C 
ATOM      5  C   UNL     1       0.885   1.733   0.115  0.00  0.00    +0.037 C 
BRANCH   4   6
ATOM      6  C   UNL     1       0.715  -0.337   1.470  0.00  0.00    +0.153 C 
ATOM      7  N   UNL     1       1.428   0.313   2.329  0.00  0.00    -0.075 NA
ATOM      8  N   UNL     1       0.366  -1.647   1.715  0.00  0.00    -0.342 N 
ATOM      9  H   UNL     1      -0.169  -2.135   1.070  0.00  0.00    +0.144 HD
ATOM     10  H   UNL     1       0.656  -2.081   2.533  0.00  0.00    +0.144 HD
BRANCH   7  11
ATOM     11  O   UNL     1       1.851  -0.320   3.522  0.00  0.00    -0.408 OA
ATOM     12  H   UNL     1       2.379   0.245   4.102  0.00  0.00    +0.328 HD
ENDBRANCH   7  11
ENDBRANCH   4   6
ENDBRANCH   1   4
BRANCH   1  13
ATOM     13  S   UNL     1       2.304  -0.578  -1.324  0.00  0.00    +0.033 S 
ATOM     14  O   UNL     1       2.345  -1.341  -2.522  0.00  0.00    -0.158 OA
ATOM     15  O   UNL     1       2.782   0.760  -1.301  0.00  0.00    -0.158 OA
BRANCH  13  16
ATOM     16  C   UNL     1       3.028  -1.524   0.044  0.00  0.00    +0.148 C 
ATOM     17  C   UNL     1       2.462  -2.946   0.036  0.00  0.00    +0.028 C 
ATOM     18  C   UNL     1       3.073  -3.743   1.190  0.00  0.00    +0.002 C 
ATOM     19  C   UNL     1       4.593  -3.798   1.025  0.00  0.00    +0.000 C 
ATOM     20  C   UNL     1       5.158  -2.376   1.032  0.00  0.00    +0.002 C 
ATOM     21  C   UNL     1       4.548  -1.579  -0.122  0.00  0.00    +0.028 C 
ENDBRANCH  13  16
ENDBRANCH   1  13
TORSDOF 5
