REMARK  Name = ZINC05447093
REMARK  9 active torsions:
REMARK  status: ('A' for Active; 'I' for Inactive)
REMARK    1  A    between atoms: C_1  and  C_2
REMARK    2  A    between atoms: C_2  and  C_3
REMARK    3  A    between atoms: C_3  and  C_5
REMARK    4  A    between atoms: C_3  and  N_6
REMARK    5  A    between atoms: N_6  and  C_7
REMARK    6  A    between atoms: C_8  and  C_19
REMARK    7  A    between atoms: C_15  and  C_18
REMARK    8  A    between atoms: N_20  and  C_21
REMARK    9  A    between atoms: C_24  and  N_27
REMARK                            x       y       z     vdW  Elec       q    Type
REMARK                         _______ _______ _______ _____ _____    ______ ____
ROOT
ATOM      1  C   UNL     1      -3.478  -0.037  -1.266  0.00  0.00    +0.135 A 
ATOM      2  C   UNL     1      -4.132   0.329  -2.464  0.00  0.00    +0.098 A 
ATOM      3  C   UNL     1      -5.542   0.431  -2.456  0.00  0.00    +0.269 A 
ATOM      4  O   UNL     1      -6.146   0.743  -3.468  0.00  0.00    -0.266 OA
ATOM      5  N   UNL     1      -6.208   0.176  -1.309  0.00  0.00    -0.267 N 
ATOM      6  C   UNL     1      -7.568   0.272  -1.292  0.00  0.00    +0.096 A 
ATOM      7  C   UNL     1      -8.265   0.024  -0.161  0.00  0.00    +0.019 A 
ATOM      8  C   UNL     1      -7.592  -0.337   1.015  0.00  0.00    +0.008 A 
ATOM      9  C   UNL     1      -6.233  -0.435   1.008  0.00  0.00    -0.007 A 
ATOM     10  C   UNL     1      -5.524  -0.174  -0.179  0.00  0.00    +0.145 A 
ATOM     11  N   UNL     1      -4.195  -0.278  -0.177  0.00  0.00    -0.214 NA
ATOM     12  C   UNL     1      -5.494  -0.821   2.264  0.00  0.00    +0.047 C 
ENDROOT
BRANCH   1  13
ATOM     13  N   UNL     1      -2.105  -0.148  -1.230  0.00  0.00    -0.326 N 
ATOM     14  H   UNL     1      -1.584   0.029  -2.029  0.00  0.00    +0.148 HD
BRANCH  13  15
ATOM     15  C   UNL     1      -1.433  -0.534   0.013  0.00  0.00    +0.068 C 
ATOM     16  C   UNL     1      -1.413  -2.059   0.130  0.00  0.00    +0.028 C 
BRANCH  15  18
ATOM     17  C   UNL     1      -0.019   1.526   0.010  0.00  0.00    +0.005 C 
ATOM     18  C   UNL     1       0.002  -0.004   0.002  0.00  0.00    +0.018 C 
ENDBRANCH  15  18
ENDBRANCH  13  15
ENDBRANCH   1  13
BRANCH   2  19
ATOM     19  C   UNL     1      -3.392   0.587  -3.645  0.00  0.00    +0.128 C 
ATOM     20  N   UNL     1      -4.014   0.925  -4.746  0.00  0.00    -0.255 NA
BRANCH  20  21
ATOM     21  C   UNL     1      -3.300   1.175  -5.886  0.00  0.00    +0.064 A 
ATOM     22  C   UNL     1      -2.144   1.957  -5.833  0.00  0.00    +0.030 A 
ATOM     23  C   UNL     1      -1.429   2.204  -6.986  0.00  0.00    +0.035 A 
ATOM     24  C   UNL     1      -1.854   1.679  -8.194  0.00  0.00    +0.126 A 
ATOM     25  C   UNL     1      -2.998   0.903  -8.254  0.00  0.00    +0.035 A 
ATOM     26  C   UNL     1      -3.720   0.643  -7.108  0.00  0.00    +0.030 A 
BRANCH  24  27
ATOM     27  N   UNL     1      -1.081   1.949  -9.427  0.00  0.00    +0.056 N 
ATOM     28  O   UNL     1      -0.081   2.627  -9.378  0.00  0.00    -0.126 OA
ATOM     29  O   UNL     1      -1.450   1.492 -10.484  0.00  0.00    -0.126 OA
ENDBRANCH  24  27
ENDBRANCH  20  21
ENDBRANCH   2  19
TORSDOF 6
