REMARK  Name = ZINC65490234
REMARK  6 active torsions:
REMARK  status: ('A' for Active; 'I' for Inactive)
REMARK    1  A    between atoms: C_3  and  N_9
REMARK    2  A    between atoms: C_6  and  C_7
REMARK    3  A    between atoms: C_16  and  C_19
REMARK    4  A    between atoms: C_19  and  N_20
REMARK    5  A    between atoms: N_20  and  S_21
REMARK    6  A    between atoms: S_21  and  N_24
REMARK                            x       y       z     vdW  Elec       q    Type
REMARK                         _______ _______ _______ _____ _____    ______ ____
ROOT
ATOM      1  N   UNL     1       3.583   2.133  -0.071  0.00  0.00    -0.269 N 
ATOM      2  C   UNL     1       4.755   1.480   0.065  0.00  0.00    +0.306 C 
ATOM      3  O   UNL     1       4.773   0.265   0.103  0.00  0.00    -0.252 OA
ATOM      4  N   UNL     1       5.906   2.175   0.159  0.00  0.00    -0.285 N 
ATOM      5  C   UNL     1       5.889   3.639   0.284  0.00  0.00    +0.109 C 
ATOM      6  C   UNL     1       6.778   4.237  -0.810  0.00  0.00    +0.019 C 
ATOM      7  C   UNL     1       8.174   3.615  -0.725  0.00  0.00    +0.008 C 
ATOM      8  C   UNL     1       8.076   2.105  -0.954  0.00  0.00    +0.022 C 
ATOM      9  C   UNL     1       7.202   1.482   0.144  0.00  0.00    +0.114 C 
ATOM     10  H   UNL     1       3.577   3.088  -0.239  0.00  0.00    +0.156 HD
ENDROOT
BRANCH   1  13
ATOM     11  C   UNL     1       0.033   1.413   0.523  0.00  0.00    +0.020 A 
ATOM     12  C   UNL     1       1.222   2.099   0.422  0.00  0.00    +0.024 A 
ATOM     13  C   UNL     1       2.380   1.434   0.031  0.00  0.00    +0.035 A 
ATOM     14  C   UNL     1       2.340   0.074  -0.260  0.00  0.00    +0.024 A 
ATOM     15  C   UNL     1       1.154  -0.619  -0.161  0.00  0.00    +0.020 A 
ATOM     16  C   UNL     1      -0.011   0.046   0.232  0.00  0.00    +0.052 A 
BRANCH  16  17
ATOM     17  C   UNL     1      -1.246  -0.671   0.336  0.00  0.00    +0.099 C 
ATOM     18  N   UNL     1      -2.226  -1.240   0.419  0.00  0.00    -0.191 NA
ENDBRANCH  16  17
ENDBRANCH   1  13
BRANCH   8  19
ATOM     19  C   UNL     1       9.476   1.489  -0.902  0.00  0.00    +0.112 C 
BRANCH  19  20
ATOM     20  N   UNL     1       9.396   0.066  -1.240  0.00  0.00    -0.180 NA
ATOM     21  H   UNL     1       8.537  -0.386  -1.237  0.00  0.00    +0.149 HD
BRANCH  20  22
ATOM     22  S   UNL     1      10.771  -0.772  -1.626  0.00  0.00    +0.092 S 
ATOM     23  O   UNL     1      10.373  -2.114  -1.874  0.00  0.00    -0.142 OA
ATOM     24  O   UNL     1      11.463   0.007  -2.591  0.00  0.00    -0.142 OA
BRANCH  22  25
ATOM     25  N   UNL     1      11.722  -0.803  -0.271  0.00  0.00    -0.193 NA
ATOM     26  H   UNL     1      11.420  -0.372   0.543  0.00  0.00    +0.145 HD
ATOM     27  H   UNL     1      12.582  -1.252  -0.292  0.00  0.00    +0.145 HD
ENDBRANCH  22  25
ENDBRANCH  20  22
ENDBRANCH  19  20
ENDBRANCH   8  19
TORSDOF 6
