REMARK  Name = ZINC61327378
REMARK  3 active torsions:
REMARK  status: ('A' for Active; 'I' for Inactive)
REMARK    1  A    between atoms: C_6  and  N_11
REMARK    2  A    between atoms: N_11  and  C_12
REMARK    3  A    between atoms: C_14  and  N_20
REMARK                            x       y       z     vdW  Elec       q    Type
REMARK                         _______ _______ _______ _____ _____    ______ ____
ROOT
ATOM      1  N   UNL     1      -1.810  -0.914   1.365  0.00  0.00    -0.335 N 
ATOM      2  H   UNL     1      -1.587  -1.658   1.947  0.00  0.00    +0.147 HD
ENDROOT
BRANCH   1   8
ATOM      3  C   UNL     1      -0.017   1.391   0.010  0.00  0.00    +0.013 A 
ATOM      4  C   UNL     1       1.145   2.084   0.002  0.00  0.00    +0.046 A 
ATOM      5  S   UNL     1       2.356   0.771  -0.016  0.00  0.00    -0.101 S 
ATOM      6  C   UNL     1       1.227  -0.595  -0.012  0.00  0.00    -0.005 A 
ATOM      7  C   UNL     1       0.002  -0.004   0.002  0.00  0.00    -0.017 A 
ATOM      8  C   UNL     1      -1.264  -0.856   0.007  0.00  0.00    +0.101 C 
ATOM      9  C   UNL     1      -0.910  -2.267  -0.467  0.00  0.00    +0.027 C 
ATOM     10  C   UNL     1       0.255  -2.821   0.358  0.00  0.00    +0.007 C 
ATOM     11  C   UNL     1       1.533  -2.058  -0.020  0.00  0.00    +0.043 C 
ENDBRANCH   1   8
BRANCH   1  12
ATOM     12  C   UNL     1      -2.656   0.103   1.824  0.00  0.00    +0.066 A 
ATOM     13  C   UNL     1      -2.982   1.164   0.991  0.00  0.00    +0.061 A 
ATOM     14  C   UNL     1      -3.817   2.167   1.444  0.00  0.00    +0.163 A 
ATOM     15  C   UNL     1      -4.330   2.114   2.729  0.00  0.00    +0.156 A 
ATOM     16  C   UNL     1      -4.007   1.058   3.564  0.00  0.00    +0.081 A 
ATOM     17  C   UNL     1      -3.176   0.049   3.112  0.00  0.00    +0.147 A 
ATOM     18  F   UNL     1      -2.865  -0.986   3.924  0.00  0.00    -0.203 F 
ATOM     19  F   UNL     1      -5.146   3.096   3.170  0.00  0.00    -0.203 F 
BRANCH  14  20
ATOM     20  N   UNL     1      -4.164   3.298   0.556  0.00  0.00    +0.059 N 
ATOM     21  O   UNL     1      -3.716   3.345  -0.566  0.00  0.00    -0.126 OA
ATOM     22  O   UNL     1      -4.894   4.176   0.952  0.00  0.00    -0.126 OA
ENDBRANCH  14  20
ENDBRANCH   1  12
TORSDOF 3
