REMARK  Name = ZINC20967894
REMARK  13 active torsions:
REMARK  status: ('A' for Active; 'I' for Inactive)
REMARK    1  A    between atoms: C_1  and  C_2
REMARK    2  A    between atoms: C_2  and  C_3
REMARK    3  A    between atoms: C_3  and  O_4
REMARK    4  A    between atoms: O_4  and  C_5
REMARK    5  A    between atoms: C_6  and  C_13
REMARK    6  A    between atoms: C_13  and  N_14
REMARK    7  A    between atoms: N_14  and  C_15
REMARK    8  A    between atoms: C_15  and  C_16
REMARK    9  A    between atoms: C_16  and  N_17
REMARK   10  A    between atoms: N_17  and  C_18
REMARK   11  A    between atoms: C_18  and  C_19
REMARK   12  A    between atoms: C_19  and  C_21
REMARK   13  A    between atoms: C_19  and  O_22
REMARK                            x       y       z     vdW  Elec       q    Type
REMARK                         _______ _______ _______ _____ _____    ______ ____
ROOT
ATOM      1  C   UNL     1      -0.879   1.674  -6.048  0.00  0.00    -0.043 C 
ENDROOT
BRANCH   1   3
ATOM      2  C   UNL     1      -0.373  -0.110  -7.736  0.00  0.00    +0.136 A 
ATOM      3  C   UNL     1      -0.174   1.188  -7.288  0.00  0.00    -0.021 A 
ATOM      4  C   UNL     1       0.676   2.033  -7.976  0.00  0.00    +0.020 A 
ATOM      5  C   UNL     1       1.325   1.587  -9.114  0.00  0.00    +0.019 A 
ATOM      6  C   UNL     1       1.124   0.295  -9.566  0.00  0.00    +0.034 A 
ATOM      7  C   UNL     1       0.275  -0.554  -8.881  0.00  0.00    +0.061 A 
ATOM      8 BR   UNL     1       0.002  -2.320  -9.498  0.00  0.00    -0.046 Br
ATOM      9 BR   UNL     1       2.487   2.746 -10.053  0.00  0.00    -0.050 Br
BRANCH   2  10
ATOM     10  O   UNL     1      -1.204  -0.944  -7.058  0.00  0.00    -0.491 OA
BRANCH  10  11
ATOM     11  C   UNL     1      -2.579  -0.947  -7.446  0.00  0.00    +0.229 C 
BRANCH  11  13
ATOM     12  C   UNL     1      -4.825  -1.943  -6.992  0.00  0.00    +0.007 C 
ATOM     13  C   UNL     1      -3.353  -1.940  -6.576  0.00  0.00    +0.038 C 
ENDBRANCH  11  13
ENDBRANCH  10  11
ENDBRANCH   2  10
ENDBRANCH   1   3
BRANCH   1  14
ATOM     14  N   UNL     1      -0.169   1.187  -4.858  0.00  0.00    +0.383 N 
ATOM     15  H   UNL     1      -0.154   0.087  -4.864  0.00  0.00    -0.085 HD
ATOM     16  H   UNL     1       0.863   1.568  -4.866  0.00  0.00    -0.085 HD
BRANCH  14  17
ATOM     17  C   UNL     1      -0.829   1.643  -3.628  0.00  0.00    -0.067 C 
BRANCH  17  18
ATOM     18  C   UNL     1      -0.062   1.117  -2.413  0.00  0.00    +0.062 C 
BRANCH  18  19
ATOM     19  N   UNL     1      -0.723   1.572  -1.182  0.00  0.00    -0.315 NA
ATOM     20  H   UNL     1      -0.738   2.672  -1.159  0.00  0.00    +0.122 HD
BRANCH  19  21
ATOM     21  C   UNL     1      -0.013   1.086   0.008  0.00  0.00    +0.111 C 
BRANCH  21  22
ATOM     22  C   UNL     1      -0.729   1.579   1.267  0.00  0.00    +0.125 C 
ATOM     23  C   UNL     1       0.011   1.072   2.506  0.00  0.00    +0.039 C 
BRANCH  22  24
ATOM     24  O   UNL     1      -0.748   3.008   1.275  0.00  0.00    -0.391 OA
ATOM     25  H   UNL     1      -1.224   3.547   2.107  0.00  0.00    +0.210 HD
ENDBRANCH  22  24
ENDBRANCH  21  22
ENDBRANCH  19  21
ENDBRANCH  18  19
ENDBRANCH  17  18
ENDBRANCH  14  17
ENDBRANCH   1  14
TORSDOF 11
