REMARK  Name = ZINC21971025
REMARK  4 active torsions:
REMARK  status: ('A' for Active; 'I' for Inactive)
REMARK    1  A    between atoms: C_5  and  C_6
REMARK    2  A    between atoms: N_8  and  N_9
REMARK    3  A    between atoms: C_10  and  C_12
REMARK    4  A    between atoms: C_12  and  C_13
REMARK                            x       y       z     vdW  Elec       q    Type
REMARK                         _______ _______ _______ _____ _____    ______ ____
ROOT
ATOM      1  C   UNL     1      -7.194   5.279  -0.950  0.00  0.00    +0.267 C 
ATOM      2  O   UNL     1      -6.767   6.125  -1.713  0.00  0.00    -0.268 OA
ATOM      3  N   UNL     1      -6.404   4.257  -0.567  0.00  0.00    -0.230 N 
ATOM      4  H   UNL     1      -6.790   3.492   0.123  0.00  0.00    +0.173 HD
ENDROOT
BRANCH   1   9
ATOM      5  C   UNL     1      -9.532   6.327  -0.714  0.00  0.00    +0.024 A 
ATOM      6  C   UNL     1     -10.776   6.189  -0.108  0.00  0.00    -0.036 A 
ATOM      7  C   UNL     1     -10.944   5.107   0.685  0.00  0.00    -0.006 A 
ATOM      8  S   UNL     1      -9.439   4.275   0.661  0.00  0.00    -0.088 S 
ATOM      9  C   UNL     1      -8.568   5.371  -0.448  0.00  0.00    +0.076 A 
ATOM     10  C   UNL     1     -12.211   4.710   1.409  0.00  0.00    +0.043 C 
ATOM     11  C   UNL     1     -12.462   5.765   2.499  0.00  0.00    +0.005 C 
ATOM     12  C   UNL     1     -13.076   7.007   1.898  0.00  0.00    +0.001 C 
ATOM     13  C   UNL     1     -12.167   7.864   1.055  0.00  0.00    +0.005 C 
ATOM     14  C   UNL     1     -11.883   7.230  -0.308  0.00  0.00    +0.036 C 
ENDBRANCH   1   9
BRANCH   3  15
ATOM     15  N   UNL     1      -5.090   4.168  -1.046  0.00  0.00    -0.234 N 
ATOM     16  C   UNL     1      -4.300   3.146  -0.663  0.00  0.00    +0.230 C 
ATOM     17  O   UNL     1      -4.726   2.303   0.097  0.00  0.00    -0.274 OA
ATOM     18  H   UNL     1      -4.704   4.933  -1.736  0.00  0.00    +0.173 HD
BRANCH  16  19
ATOM     19  C   UNL     1      -2.888   3.051  -1.179  0.00  0.00    +0.105 C 
BRANCH  19  20
ATOM     20  C   UNL     1      -2.213   1.808  -0.595  0.00  0.00    +0.020 C 
ATOM     21  C   UNL     1      -0.806   1.621  -1.207  0.00  0.00    +0.012 C 
ATOM     22  C   UNL     1      -0.013   1.086   0.008  0.00  0.00    +0.027 C 
ATOM     23  C   UNL     1      -0.765   1.595   1.215  0.00  0.00    -0.031 C 
ATOM     24  C   UNL     1      -1.968   1.989   0.885  0.00  0.00    -0.027 C 
ENDBRANCH  19  20
ENDBRANCH  16  19
ENDBRANCH   3  15
TORSDOF 4
