REMARK  Name = ZINC21139131
REMARK  10 active torsions:
REMARK  status: ('A' for Active; 'I' for Inactive)
REMARK    1  A    between atoms: C_5  and  C_7
REMARK    2  A    between atoms: C_7  and  C_9
REMARK    3  A    between atoms: C_7  and  N_30
REMARK    4  A    between atoms: C_9  and  C_10
REMARK    5  A    between atoms: C_10  and  O_12
REMARK    6  A    between atoms: O_12  and  C_13
REMARK    7  A    between atoms: C_13  and  C_14
REMARK    8  A    between atoms: N_16  and  C_17
REMARK    9  A    between atoms: C_20  and  N_27
REMARK   10  A    between atoms: C_22  and  C_23
REMARK                            x       y       z     vdW  Elec       q    Type
REMARK                         _______ _______ _______ _____ _____    ______ ____
ROOT
ATOM      1  O   UNL     1      -0.491  -0.005  -1.938  0.00  0.00    -0.455 OA
ENDROOT
BRANCH   1   2
ATOM      2  C   UNL     1      -0.865   0.742  -0.887  0.00  0.00    +0.310 C 
ATOM      3  O   UNL     1      -1.848   1.439  -0.961  0.00  0.00    -0.251 OA
BRANCH   2   4
ATOM      4  C   UNL     1      -0.057   0.710   0.385  0.00  0.00    +0.147 C 
BRANCH   4   5
ATOM      5  C   UNL     1      -0.694   1.643   1.417  0.00  0.00    +0.117 C 
BRANCH   5  10
ATOM      6  C   UNL     1       1.956   0.801   3.971  0.00  0.00    +0.000 A 
ATOM      7  C   UNL     1       1.387   1.291   5.132  0.00  0.00    +0.001 A 
ATOM      8  C   UNL     1       0.144   1.894   5.091  0.00  0.00    +0.020 A 
ATOM      9  C   UNL     1      -0.530   2.009   3.889  0.00  0.00    +0.046 A 
ATOM     10  C   UNL     1       0.040   1.520   2.727  0.00  0.00    -0.008 A 
ATOM     11  C   UNL     1       1.281   0.911   2.770  0.00  0.00    +0.007 A 
ATOM     12 CL   UNL     1      -2.091   2.766   3.837  0.00  0.00    -0.083 Cl
ENDBRANCH   5  10
BRANCH   5  13
ATOM     13  N   UNL     1      -0.612   3.026   0.940  0.00  0.00    -0.292 N 
ATOM     14  C   UNL     1       0.589   3.584   0.692  0.00  0.00    +0.298 C 
ATOM     15  O   UNL     1       1.599   2.910   0.765  0.00  0.00    -0.253 OA
ATOM     16  N   UNL     1       0.672   4.888   0.363  0.00  0.00    -0.313 N 
ATOM     17  H   UNL     1      -1.532   3.610   0.785  0.00  0.00    +0.151 HD
ATOM     18  H   UNL     1       1.653   5.343   0.160  0.00  0.00    +0.146 HD
ATOM     19  H   UNL     1      -0.241   5.498   0.297  0.00  0.00    +0.146 HD
ENDBRANCH   5  13
ENDBRANCH   4   5
ENDBRANCH   2   4
ENDBRANCH   1   2
BRANCH   1  20
ATOM     20  C   UNL     1      -1.315   0.076  -3.130  0.00  0.00    +0.328 C 
BRANCH  20  21
ATOM     21  C   UNL     1      -0.746  -0.824  -4.197  0.00  0.00    +0.255 C 
ATOM     22  O   UNL     1       0.257  -1.469  -3.974  0.00  0.00    -0.272 OA
ATOM     23  N   UNL     1      -1.350  -0.911  -5.398  0.00  0.00    -0.282 N 
ATOM     24  H   UNL     1      -2.306  -0.395  -5.572  0.00  0.00    +0.155 HD
BRANCH  23  25
ATOM     25  C   UNL     1      -0.762  -1.659  -6.424  0.00  0.00    +0.045 A 
ATOM     26  C   UNL     1       0.606  -1.899  -6.414  0.00  0.00    +0.026 A 
ATOM     27  C   UNL     1       1.183  -2.638  -7.428  0.00  0.00    +0.034 A 
ATOM     28  C   UNL     1       0.401  -3.137  -8.454  0.00  0.00    +0.127 A 
ATOM     29  C   UNL     1      -0.961  -2.899  -8.467  0.00  0.00    +0.047 A 
ATOM     30  C   UNL     1      -1.546  -2.167  -7.452  0.00  0.00    +0.078 A 
BRANCH  30  31
ATOM     31  C   UNL     1      -3.031  -1.913  -7.464  0.00  0.00    +0.419 C 
ATOM     32  F   UNL     1      -3.599  -2.520  -8.589  0.00  0.00    -0.166 F 
ATOM     33  F   UNL     1      -3.605  -2.449  -6.306  0.00  0.00    -0.166 F 
ATOM     34  F   UNL     1      -3.269  -0.535  -7.507  0.00  0.00    -0.166 F 
ENDBRANCH  30  31
BRANCH  28  35
ATOM     35  N   UNL     1       1.022  -3.929  -9.539  0.00  0.00    +0.056 N 
ATOM     36  O   UNL     1       2.222  -4.139  -9.529  0.00  0.00    -0.126 OA
ATOM     37  O   UNL     1       0.335  -4.369 -10.443  0.00  0.00    -0.126 OA
ENDBRANCH  28  35
ENDBRANCH  23  25
ENDBRANCH  20  21
ENDBRANCH   1  20
TORSDOF 10
