REMARK  Name = ZINC40024004
REMARK  7 active torsions:
REMARK  status: ('A' for Active; 'I' for Inactive)
REMARK    1  A    between atoms: C_1  and  C_2
REMARK    2  A    between atoms: C_9  and  N_14
REMARK    3  A    between atoms: N_17  and  C_18
REMARK    4  A    between atoms: C_18  and  C_20
REMARK    5  A    between atoms: C_18  and  C_25
REMARK    6  A    between atoms: C_25  and  C_26
REMARK    7  A    between atoms: C_25  and  C_27
REMARK                            x       y       z     vdW  Elec       q    Type
REMARK                         _______ _______ _______ _____ _____    ______ ____
ROOT
ATOM      1  N   UNL     1       0.118  -5.854   2.337  0.00  0.00    -0.269 N 
ATOM      2  C   UNL     1       1.166  -6.555   2.813  0.00  0.00    +0.304 C 
ATOM      3  O   UNL     1       2.210  -5.989   3.071  0.00  0.00    -0.252 OA
ATOM      4  N   UNL     1       1.056  -7.885   3.004  0.00  0.00    -0.292 N 
ATOM      5  H   UNL     1      -0.735  -6.293   2.195  0.00  0.00    +0.156 HD
ATOM      6  H   UNL     1       0.223  -8.337   2.798  0.00  0.00    +0.151 HD
ENDROOT
BRANCH   1  14
ATOM      7  C   UNL     1       1.354   1.768   1.816  0.00  0.00    +0.062 C 
ATOM      8  C   UNL     1       0.884   0.399   2.312  0.00  0.00    +0.256 C 
ATOM      9  C   UNL     1       1.928  -0.190   3.226  0.00  0.00    +0.258 C 
ATOM     10  O   UNL     1       2.654   0.538   3.870  0.00  0.00    -0.271 OA
ATOM     11  N   UNL     1       2.052  -1.531   3.325  0.00  0.00    -0.279 N 
ATOM     12  C   UNL     1       1.224  -2.350   2.543  0.00  0.00    +0.077 A 
ATOM     13  C   UNL     1       1.085  -3.697   2.834  0.00  0.00    +0.050 A 
ATOM     14  C   UNL     1       0.262  -4.490   2.047  0.00  0.00    +0.037 A 
ATOM     15  C   UNL     1      -0.420  -3.934   0.973  0.00  0.00    +0.027 A 
ATOM     16  C   UNL     1      -0.282  -2.589   0.683  0.00  0.00    +0.049 A 
ATOM     17  C   UNL     1       0.538  -1.794   1.465  0.00  0.00    +0.143 A 
ATOM     18  O   UNL     1       0.681  -0.469   1.193  0.00  0.00    -0.478 OA
ATOM     19  H   UNL     1       2.704  -1.922   3.928  0.00  0.00    +0.155 HD
ENDBRANCH   1  14
BRANCH   4  20
ATOM     20  C   UNL     1       2.195  -8.647   3.522  0.00  0.00    +0.114 C 
BRANCH  20  21
ATOM     21  C   UNL     1       1.695  -9.893   4.208  0.00  0.00    +0.010 A 
ATOM     22  C   UNL     1       2.129 -10.466   5.357  0.00  0.00    +0.013 A 
ATOM     23  C   UNL     1       1.513 -11.620   5.804  0.00  0.00    +0.008 A 
ATOM     24  C   UNL     1       0.494 -12.145   5.080  0.00  0.00    +0.045 A 
ATOM     25  S   UNL     1       0.374 -10.991   3.723  0.00  0.00    -0.100 S 
ENDBRANCH  20  21
BRANCH  20  26
ATOM     26  C   UNL     1       3.116  -9.038   2.364  0.00  0.00    +0.008 C 
ATOM     27  C   UNL     1       3.623  -7.774   1.667  0.00  0.00    +0.009 C 
ATOM     28  C   UNL     1       4.305  -9.834   2.905  0.00  0.00    +0.009 C 
ENDBRANCH  20  26
ENDBRANCH   4  20
TORSDOF 4
