REMARK  Name = ZINC33358919
REMARK  6 active torsions:
REMARK  status: ('A' for Active; 'I' for Inactive)
REMARK    1  A    between atoms: C_1  and  C_2
REMARK    2  A    between atoms: C_4  and  O_28
REMARK    3  A    between atoms: C_6  and  O_27
REMARK    4  A    between atoms: C_8  and  O_26
REMARK    5  A    between atoms: C_10  and  O_13
REMARK    6  A    between atoms: O_13  and  C_14
REMARK                            x       y       z     vdW  Elec       q    Type
REMARK                         _______ _______ _______ _____ _____    ______ ____
ROOT
ATOM      1  C   UNL     1      -0.019   1.526   0.010  0.00  0.00    +0.041 C 
ATOM      2  C   UNL     1       0.002  -0.004   0.002  0.00  0.00    +0.150 C 
ATOM      3  C   UNL     1       0.719  -0.498  -1.257  0.00  0.00    +0.174 C 
ATOM      4  C   UNL     1       0.789  -2.028  -1.229  0.00  0.00    +0.180 C 
ATOM      5  C   UNL     1       1.496  -2.472   0.055  0.00  0.00    +0.214 C 
ATOM      6  C   UNL     1       0.749  -1.902   1.264  0.00  0.00    +0.339 C 
ATOM      7  O   UNL     1       0.694  -0.478   1.159  0.00  0.00    -0.334 OA
ENDROOT
BRANCH   5   8
ATOM      8  O   UNL     1       1.504  -3.899   0.127  0.00  0.00    -0.383 OA
ATOM      9  H   UNL     1       1.938  -4.251   0.917  0.00  0.00    +0.210 HD
ENDBRANCH   5   8
BRANCH   4  10
ATOM     10  O   UNL     1       1.519  -2.494  -2.365  0.00  0.00    -0.386 OA
ATOM     11  H   UNL     1       1.603  -3.457  -2.411  0.00  0.00    +0.210 HD
ENDBRANCH   4  10
BRANCH   3  12
ATOM     12  O   UNL     1       2.042   0.041  -1.296  0.00  0.00    -0.387 OA
ATOM     13  H   UNL     1       2.073   1.007  -1.311  0.00  0.00    +0.210 HD
ENDBRANCH   3  12
BRANCH   6  14
ATOM     14  O   UNL     1      -0.578  -2.430   1.296  0.00  0.00    -0.459 OA
BRANCH  14  15
ATOM     15  C   UNL     1      -1.347  -2.103   2.372  0.00  0.00    +0.149 A 
ATOM     16  C   UNL     1      -0.985  -1.327   3.408  0.00  0.00    +0.130 A 
ATOM     17  N   UNL     1      -2.027  -1.225   4.300  0.00  0.00    -0.358 N 
ATOM     18  H   UNL     1      -2.006  -0.718   5.126  0.00  0.00    +0.165 HD
ATOM     19  C   UNL     1      -3.105  -1.951   3.844  0.00  0.00    +0.052 A 
ATOM     20  C   UNL     1      -2.731  -2.527   2.616  0.00  0.00    +0.043 A 
ATOM     21  C   UNL     1      -3.638  -3.322   1.913  0.00  0.00    +0.030 A 
ATOM     22  C   UNL     1      -4.889  -3.535   2.421  0.00  0.00    +0.037 A 
ATOM     23  C   UNL     1      -5.266  -2.965   3.632  0.00  0.00    +0.057 A 
ATOM     24  C   UNL     1      -4.382  -2.183   4.345  0.00  0.00    +0.047 A 
ATOM     25 CL   UNL     1      -6.860  -3.248   4.256  0.00  0.00    -0.082 Cl
ATOM     26 BR   UNL     1      -6.118  -4.612   1.469  0.00  0.00    -0.049 Br
ENDBRANCH  14  15
ENDBRANCH   6  14
TORSDOF 5
