REMARK  Name = ZINC67592469
REMARK  6 active torsions:
REMARK  status: ('A' for Active; 'I' for Inactive)
REMARK    1  A    between atoms: C_1  and  N_2
REMARK    2  A    between atoms: N_2  and  C_3
REMARK    3  A    between atoms: N_2  and  C_19
REMARK    4  A    between atoms: C_3  and  C_4
REMARK    5  A    between atoms: N_9  and  C_12
REMARK    6  A    between atoms: C_12  and  C_13
REMARK                            x       y       z     vdW  Elec       q    Type
REMARK                         _______ _______ _______ _____ _____    ______ ____
ROOT
ATOM      1  C   UNL     1      -2.067  -0.116  -1.267  0.00  0.00    +0.199 C 
ATOM      2  O   UNL     1      -1.471   0.527  -2.104  0.00  0.00    -0.278 OA
ATOM      3  N   UNL     1      -3.349  -0.476  -1.480  0.00  0.00    -0.307 N 
ATOM      4  C   UNL     1      -4.094  -1.250  -0.475  0.00  0.00    +0.089 C 
ATOM      5  C   UNL     1      -4.739  -2.454  -1.170  0.00  0.00    -0.060 C 
ATOM      6  N   UNL     1      -5.551  -1.988  -2.300  0.00  0.00    +0.382 N 
ATOM      7  C   UNL     1      -4.689  -1.363  -3.312  0.00  0.00    -0.060 C 
ATOM      8  C   UNL     1      -4.044  -0.100  -2.720  0.00  0.00    +0.089 C 
ATOM      9  H   UNL     1      -6.226  -1.313  -1.972  0.00  0.00    -0.082 HD
ENDROOT
BRANCH   1  10
ATOM     10  C   UNL     1      -1.376  -0.512   0.012  0.00  0.00    +0.019 C 
BRANCH  10  12
ATOM     11  C   UNL     1      -0.018   1.465   0.010  0.00  0.00    -0.095 C 
ATOM     12  N   UNL     1       0.002  -0.004   0.002  0.00  0.00    +0.387 N 
ATOM     13  H   UNL     1       0.474  -0.330  -0.828  0.00  0.00    -0.081 HD
BRANCH  12  14
ATOM     14  C   UNL     1       0.713  -0.491   1.192  0.00  0.00    -0.046 C 
ATOM     15  C   UNL     1       0.743  -2.028   1.175  0.00  0.00    +0.009 C 
ATOM     16  C   UNL     1       1.755  -2.504   2.257  0.00  0.00    +0.164 C 
ATOM     17  S   UNL     1       3.107  -1.275   2.018  0.00  0.00    -0.033 S 
ATOM     18  O   UNL     1       3.543  -0.816   3.290  0.00  0.00    -0.174 OA
ATOM     19  O   UNL     1       4.055  -1.803   1.102  0.00  0.00    -0.174 OA
ATOM     20  C   UNL     1       2.157   0.065   1.191  0.00  0.00    +0.151 C 
ENDBRANCH  12  14
ENDBRANCH  10  12
ENDBRANCH   1  10
BRANCH   6  21
ATOM     21  C   UNL     1      -6.256  -3.129  -2.898  0.00  0.00    -0.075 C 
BRANCH  21  22
ATOM     22  C   UNL     1      -7.199  -2.629  -3.995  0.00  0.00    -0.028 C 
ATOM     23  C   UNL     1      -8.292  -1.760  -3.372  0.00  0.00    +0.002 C 
ATOM     24  C   UNL     1      -9.234  -1.260  -4.469  0.00  0.00    +0.000 C 
ATOM     25  C   UNL     1      -9.875  -2.456  -5.175  0.00  0.00    +0.000 C 
ATOM     26  C   UNL     1      -8.781  -3.325  -5.799  0.00  0.00    +0.000 C 
ATOM     27  C   UNL     1      -7.839  -3.826  -4.702  0.00  0.00    +0.002 C 
ENDBRANCH  21  22
ENDBRANCH   6  21
TORSDOF 5
