REMARK  Name = ZINC44577535
REMARK  7 active torsions:
REMARK  status: ('A' for Active; 'I' for Inactive)
REMARK    1  A    between atoms: C_6  and  O_7
REMARK    2  A    between atoms: O_7  and  C_8
REMARK    3  A    between atoms: C_8  and  C_9
REMARK    4  A    between atoms: N_11  and  N_12
REMARK    5  A    between atoms: N_12  and  C_13
REMARK    6  A    between atoms: C_13  and  N_15
REMARK    7  A    between atoms: N_15  and  C_16
REMARK                            x       y       z     vdW  Elec       q    Type
REMARK                         _______ _______ _______ _____ _____    ______ ____
ROOT
ATOM      1  C   UNL     1      -3.558  -0.871   0.032  0.00  0.00    +0.267 C 
ATOM      2  O   UNL     1      -3.383  -2.071   0.024  0.00  0.00    -0.271 OA
ATOM      3  N   UNL     1      -4.810  -0.373   0.047  0.00  0.00    -0.232 N 
ATOM      4  H   UNL     1      -4.950   0.587   0.054  0.00  0.00    +0.173 HD
ENDROOT
BRANCH   3   5
ATOM      5  N   UNL     1      -5.909  -1.241   0.053  0.00  0.00    -0.246 N 
ATOM      6  H   UNL     1      -5.769  -2.201   0.047  0.00  0.00    +0.172 HD
BRANCH   5   7
ATOM      7  C   UNL     1      -7.161  -0.743   0.068  0.00  0.00    +0.147 C 
ATOM      8  S   UNL     1      -8.505  -1.803   0.076  0.00  0.00    -0.017 S 
BRANCH   7   9
ATOM      9  N   UNL     1      -7.356   0.591   0.077  0.00  0.00    -0.323 N 
ATOM     10  H   UNL     1      -6.595   1.192   0.073  0.00  0.00    +0.148 HD
BRANCH   9  11
ATOM     11  C   UNL     1      -8.717   1.133   0.093  0.00  0.00    +0.072 C 
ATOM     12  C   UNL     1      -9.251   1.212  -1.338  0.00  0.00    +0.022 C 
ATOM     13  C   UNL     1     -10.673   1.778  -1.321  0.00  0.00    +0.002 C 
ATOM     14  C   UNL     1     -10.657   3.178  -0.704  0.00  0.00    +0.000 C 
ATOM     15  C   UNL     1     -10.123   3.099   0.728  0.00  0.00    +0.002 C 
ATOM     16  C   UNL     1      -8.701   2.533   0.711  0.00  0.00    +0.022 C 
ENDBRANCH   9  11
ENDBRANCH   7   9
ENDBRANCH   5   7
ENDBRANCH   3   5
BRANCH   1  17
ATOM     17  C   UNL     1      -2.375   0.063   0.026  0.00  0.00    +0.326 C 
BRANCH  17  18
ATOM     18  O   UNL     1      -1.166  -0.700   0.010  0.00  0.00    -0.483 OA
BRANCH  18  24
ATOM     19  C   UNL     1      -0.017   1.383   0.010  0.00  0.00    +0.047 A 
ATOM     20  C   UNL     1       1.169   2.090   0.002  0.00  0.00    +0.027 A 
ATOM     21  C   UNL     1       2.381   1.413  -0.013  0.00  0.00    +0.037 A 
ATOM     22  C   UNL     1       2.399   0.024  -0.020  0.00  0.00    -0.022 A 
ATOM     23  C   UNL     1       1.213  -0.682  -0.013  0.00  0.00    +0.051 A 
ATOM     24  C   UNL     1       0.002  -0.004   0.002  0.00  0.00    +0.122 A 
ATOM     25  C   UNL     1       3.715  -0.709  -0.035  0.00  0.00    +0.046 C 
ATOM     26  C   UNL     1       4.736   0.091  -0.845  0.00  0.00    +0.101 C 
ATOM     27  C   UNL     1       4.729   1.529  -0.402  0.00  0.00    +0.218 C 
ATOM     28  O   UNL     1       5.767   2.157  -0.389  0.00  0.00    -0.275 OA
ATOM     29  N   UNL     1       3.586   2.126  -0.020  0.00  0.00    -0.285 N 
ATOM     30  H   UNL     1       3.596   3.057   0.251  0.00  0.00    +0.155 HD
ENDBRANCH  18  24
ENDBRANCH  17  18
ENDBRANCH   1  17
TORSDOF 7
