REMARK  Name = ZINC58949749
REMARK  8 active torsions:
REMARK  status: ('A' for Active; 'I' for Inactive)
REMARK    1  A    between atoms: C_1  and  C_2
REMARK    2  A    between atoms: C_2  and  C_29
REMARK    3  A    between atoms: C_6  and  C_16
REMARK    4  A    between atoms: C_8  and  C_12
REMARK    5  A    between atoms: C_9  and  N_11
REMARK    6  A    between atoms: C_12  and  O_14
REMARK    7  A    between atoms: O_14  and  C_15
REMARK    8  A    between atoms: C_20  and  N_22
REMARK                            x       y       z     vdW  Elec       q    Type
REMARK                         _______ _______ _______ _____ _____    ______ ____
ROOT
ATOM      1  C   UNL     1      -0.025   1.536  -0.015  0.00  0.00    +0.012 C 
ATOM      2  C   UNL     1       0.029   0.009   0.078  0.00  0.00    -0.021 C 
ATOM      3  C   UNL     1       0.761  -0.554  -1.141  0.00  0.00    +0.081 C 
ATOM      4  C   UNL     1       2.177  -0.028  -1.171  0.00  0.00    +0.115 C 
ATOM      5  C   UNL     1       2.830   0.254  -0.029  0.00  0.00    +0.045 C 
ATOM      6  C   UNL     1       4.247   0.771  -0.061  0.00  0.00    +0.098 C 
ATOM      7  C   UNL     1       4.875   0.489  -1.398  0.00  0.00    +0.105 C 
ATOM      8  C   UNL     1       4.099   0.195  -2.474  0.00  0.00    +0.195 C 
ATOM      9  O   UNL     1       2.761   0.150  -2.372  0.00  0.00    -0.446 OA
ATOM     10  C   UNL     1       2.215   0.081   1.226  0.00  0.00    +0.164 C 
ATOM     11  O   UNL     1       2.842   0.329   2.236  0.00  0.00    -0.292 OA
ATOM     12  C   UNL     1       0.795  -0.404   1.339  0.00  0.00    +0.086 C 
ATOM     13  C   UNL     1      -1.393  -0.552   0.133  0.00  0.00    +0.012 C 
ENDROOT
BRANCH   6  14
ATOM     14  C   UNL     1       4.241   2.259   0.179  0.00  0.00    -0.033 A 
ATOM     15  C   UNL     1       3.554   3.095  -0.681  0.00  0.00    +0.006 A 
ATOM     16  C   UNL     1       3.547   4.460  -0.462  0.00  0.00    +0.022 A 
ATOM     17  C   UNL     1       4.229   4.989   0.620  0.00  0.00    +0.071 A 
ATOM     18  C   UNL     1       4.917   4.152   1.480  0.00  0.00    +0.145 A 
ATOM     19  C   UNL     1       4.918   2.787   1.262  0.00  0.00    +0.038 A 
ATOM     20 CL   UNL     1       4.222   6.703   0.897  0.00  0.00    -0.081 Cl
BRANCH  18  21
ATOM     21  N   UNL     1       5.646   4.717   2.637  0.00  0.00    +0.058 N 
ATOM     22  O   UNL     1       6.247   3.986   3.389  0.00  0.00    -0.126 OA
ATOM     23  O   UNL     1       5.641   5.911   2.830  0.00  0.00    -0.126 OA
ENDBRANCH  18  21
ENDBRANCH   6  14
BRANCH   8  24
ATOM     24  N   UNL     1       4.692  -0.060  -3.682  0.00  0.00    -0.329 N 
ATOM     25  H   UNL     1       5.658  -0.120  -3.745  0.00  0.00    +0.145 HD
ATOM     26  H   UNL     1       4.146  -0.181  -4.474  0.00  0.00    +0.145 HD
ENDBRANCH   8  24
BRANCH   7  27
ATOM     27  C   UNL     1       6.271   0.530  -1.535  0.00  0.00    +0.341 C 
ATOM     28  O   UNL     1       6.949  -0.405  -1.149  0.00  0.00    -0.245 OA
BRANCH  27  29
ATOM     29  O   UNL     1       6.863   1.607  -2.095  0.00  0.00    -0.465 OA
ATOM     30  C   UNL     1       8.288   1.581  -2.202  0.00  0.00    +0.280 C 
ENDBRANCH  27  29
ENDBRANCH   7  27
TORSDOF 5
