REMARK  Name = ZINC59104200
REMARK  11 active torsions:
REMARK  status: ('A' for Active; 'I' for Inactive)
REMARK    1  A    between atoms: C_1  and  C_2
REMARK    2  A    between atoms: C_2  and  O_3
REMARK    3  A    between atoms: O_3  and  C_4
REMARK    4  A    between atoms: C_7  and  O_34
REMARK    5  A    between atoms: C_8  and  N_10
REMARK    6  A    between atoms: C_14  and  C_15
REMARK    7  A    between atoms: C_17  and  C_28
REMARK    8  A    between atoms: N_18  and  C_21
REMARK    9  A    between atoms: C_19  and  C_20
REMARK   10  A    between atoms: O_34  and  C_35
REMARK   11  A    between atoms: C_35  and  C_36
REMARK                            x       y       z     vdW  Elec       q    Type
REMARK                         _______ _______ _______ _____ _____    ______ ____
ROOT
ATOM      1  N   UNL     1      -4.885  -3.195   0.192  0.00  0.00    -0.185 N 
ATOM      2  C   UNL     1      -5.316  -3.796   1.322  0.00  0.00    +0.264 C 
ATOM      3  O   UNL     1      -4.845  -3.507   2.407  0.00  0.00    -0.269 OA
ATOM      4  C   UNL     1      -6.376  -4.813   1.198  0.00  0.00    +0.102 C 
ATOM      5  C   UNL     1      -6.877  -5.479   2.310  0.00  0.00    +0.028 C 
ATOM      6  C   UNL     1      -6.880  -5.091  -0.154  0.00  0.00    +0.276 C 
ATOM      7  O   UNL     1      -7.850  -6.007  -0.355  0.00  0.00    -0.268 OA
ATOM      8  N   UNL     1      -6.361  -4.421  -1.171  0.00  0.00    -0.123 NA
ATOM      9  C   UNL     1      -5.408  -3.509  -1.002  0.00  0.00    +0.340 C 
ATOM     10  O   UNL     1      -4.983  -2.930  -1.987  0.00  0.00    -0.250 OA
ENDROOT
BRANCH   5  11
ATOM     11  C   UNL     1      -6.249  -5.327   3.567  0.00  0.00    -0.003 A 
ATOM     12  C   UNL     1      -4.805  -5.366   3.848  0.00  0.00    +0.031 A 
ATOM     13  C   UNL     1      -4.671  -5.176   5.170  0.00  0.00    +0.022 A 
ATOM     14  N   UNL     1      -5.909  -5.022   5.732  0.00  0.00    -0.317 N 
ATOM     15  C   UNL     1      -6.867  -5.103   4.790  0.00  0.00    +0.028 A 
ATOM     16  C   UNL     1      -8.350  -4.977   5.023  0.00  0.00    +0.064 C 
ATOM     17  C   UNL     1      -3.363  -5.139   5.917  0.00  0.00    +0.064 C 
BRANCH  14  18
ATOM     18  C   UNL     1      -6.146  -4.805   7.096  0.00  0.00    +0.047 A 
ATOM     19  C   UNL     1      -6.819  -5.760   7.846  0.00  0.00    +0.027 A 
ATOM     20  C   UNL     1      -7.051  -5.544   9.190  0.00  0.00    +0.022 A 
ATOM     21  C   UNL     1      -6.615  -4.375   9.789  0.00  0.00    +0.041 A 
ATOM     22  C   UNL     1      -5.944  -3.421   9.044  0.00  0.00    +0.022 A 
ATOM     23  C   UNL     1      -5.704  -3.636   7.701  0.00  0.00    +0.027 A 
ATOM     24 CL   UNL     1      -6.909  -4.105  11.479  0.00  0.00    -0.084 Cl
ENDBRANCH  14  18
ENDBRANCH   5  11
BRANCH   1  29
ATOM     25  C   UNL     1      -3.216   0.072   0.524  0.00  0.00    +0.122 A 
ATOM     26  C   UNL     1      -1.884  -0.300   0.422  0.00  0.00    +0.049 A 
ATOM     27  C   UNL     1      -1.547  -1.629   0.244  0.00  0.00    +0.051 A 
ATOM     28  C   UNL     1      -2.540  -2.592   0.167  0.00  0.00    +0.142 A 
ATOM     29  C   UNL     1      -3.878  -2.221   0.270  0.00  0.00    +0.091 A 
ATOM     30  C   UNL     1      -4.213  -0.888   0.454  0.00  0.00    +0.073 A 
BRANCH  25  31
ATOM     31  O   UNL     1      -3.544   1.381   0.699  0.00  0.00    -0.492 OA
BRANCH  31  33
ATOM     32  C   UNL     1      -3.026   3.727   0.961  0.00  0.00    +0.048 C 
ATOM     33  C   UNL     1      -2.466   2.317   0.763  0.00  0.00    +0.225 C 
ENDBRANCH  31  33
ENDBRANCH  25  31
BRANCH  28  34
ATOM     34  O   UNL     1      -2.207  -3.900  -0.009  0.00  0.00    -0.490 OA
BRANCH  34  35
ATOM     35  C   UNL     1      -0.815  -4.208  -0.107  0.00  0.00    +0.226 C 
ATOM     36  C   UNL     1      -0.639  -5.715  -0.301  0.00  0.00    +0.048 C 
ENDBRANCH  34  35
ENDBRANCH  28  34
ENDBRANCH   1  29
TORSDOF 7
