REMARK  Name = ZINC01821329
REMARK  15 active torsions:
REMARK  status: ('A' for Active; 'I' for Inactive)
REMARK    1  A    between atoms: C_1  and  O_2
REMARK    2  A    between atoms: O_2  and  C_3
REMARK    3  A    between atoms: C_3  and  C_5
REMARK    4  A    between atoms: C_8  and  C_11
REMARK    5  A    between atoms: C_17  and  C_37
REMARK    6  A    between atoms: C_18  and  C_27
REMARK    7  A    between atoms: C_20  and  C_23
REMARK    8  A    between atoms: C_21  and  N_22
REMARK    9  A    between atoms: C_23  and  O_25
REMARK   10  A    between atoms: O_25  and  C_26
REMARK   11  A    between atoms: C_30  and  C_33
REMARK   12  A    between atoms: C_33  and  O_35
REMARK   13  A    between atoms: O_35  and  C_36
REMARK   14  A    between atoms: C_37  and  O_39
REMARK   15  A    between atoms: O_39  and  C_40
REMARK                            x       y       z     vdW  Elec       q    Type
REMARK                         _______ _______ _______ _____ _____    ______ ____
ROOT
ATOM      1  C   UNL     1       2.169  -6.392  -0.919  0.00  0.00    +0.028 C 
ATOM      2  C   UNL     1       2.335  -6.975  -2.132  0.00  0.00    +0.079 A 
ATOM      3  C   UNL     1       2.050  -8.356  -2.552  0.00  0.00    +0.271 A 
ATOM      4  O   UNL     1       1.596  -9.165  -1.766  0.00  0.00    -0.266 OA
ATOM      5  N   UNL     1       2.304  -8.701  -3.831  0.00  0.00    -0.257 N 
ATOM      6  C   UNL     1       2.818  -7.731  -4.667  0.00  0.00    +0.100 A 
ATOM      7  C   UNL     1       3.122  -7.931  -5.977  0.00  0.00    +0.079 C 
ATOM      8  C   UNL     1       2.886  -9.306  -6.569  0.00  0.00    +0.099 C 
ATOM      9  C   UNL     1       2.321 -10.343  -5.618  0.00  0.00    +0.087 C 
ATOM     10  C   UNL     1       2.071  -9.983  -4.337  0.00  0.00    +0.115 C 
ATOM     11  S   UNL     1       2.953  -6.273  -3.653  0.00  0.00    -0.065 S 
ENDROOT
BRANCH   1  15
ATOM     12  C   UNL     1       3.660  -2.491  -0.222  0.00  0.00    +0.059 A 
ATOM     13  C   UNL     1       2.667  -3.018   0.609  0.00  0.00    +0.015 A 
ATOM     14  C   UNL     1       2.185  -4.276   0.386  0.00  0.00    +0.009 A 
ATOM     15  C   UNL     1       2.686  -5.038  -0.677  0.00  0.00    -0.024 A 
ATOM     16  C   UNL     1       3.681  -4.509  -1.509  0.00  0.00    +0.009 A 
ATOM     17  C   UNL     1       4.157  -3.249  -1.286  0.00  0.00    +0.015 A 
BRANCH  12  18
ATOM     18  C   UNL     1       4.180  -1.131   0.021  0.00  0.00    +0.339 C 
ATOM     19  O   UNL     1       5.040  -0.671  -0.704  0.00  0.00    -0.245 OA
BRANCH  18  21
ATOM     20  C   UNL     1       4.250   0.908   1.223  0.00  0.00    +0.280 C 
ATOM     21  O   UNL     1       3.701  -0.400   1.047  0.00  0.00    -0.464 OA
ENDBRANCH  18  21
ENDBRANCH  12  18
ENDBRANCH   1  15
BRANCH   8  22
ATOM     22  C   UNL     1       4.199  -9.824  -7.098  0.00  0.00    -0.035 A 
ATOM     23  C   UNL     1       5.270  -9.992  -6.239  0.00  0.00    +0.005 A 
ATOM     24  C   UNL     1       6.474 -10.465  -6.717  0.00  0.00    +0.015 A 
ATOM     25  C   UNL     1       6.611 -10.774  -8.072  0.00  0.00    +0.059 A 
ATOM     26  C   UNL     1       5.526 -10.602  -8.933  0.00  0.00    +0.015 A 
ATOM     27  C   UNL     1       4.325 -10.134  -8.441  0.00  0.00    +0.005 A 
BRANCH  25  28
ATOM     28  C   UNL     1       7.898 -11.281  -8.591  0.00  0.00    +0.339 C 
ATOM     29  O   UNL     1       8.840 -11.430  -7.839  0.00  0.00    -0.245 OA
BRANCH  28  30
ATOM     30  O   UNL     1       8.026 -11.579  -9.899  0.00  0.00    -0.464 OA
ATOM     31  C   UNL     1       9.299 -12.064 -10.332  0.00  0.00    +0.280 C 
ENDBRANCH  28  30
ENDBRANCH  25  28
ENDBRANCH   8  22
BRANCH  10  32
ATOM     32  N   UNL     1       1.561 -10.931  -3.488  0.00  0.00    -0.344 N 
ATOM     33  H   UNL     1       0.849 -10.697  -2.872  0.00  0.00    +0.144 HD
ATOM     34  H   UNL     1       1.912 -11.835  -3.503  0.00  0.00    +0.144 HD
ENDBRANCH  10  32
BRANCH   9  35
ATOM     35  C   UNL     1       2.063 -11.650  -6.057  0.00  0.00    +0.339 C 
ATOM     36  O   UNL     1       1.539 -12.453  -5.305  0.00  0.00    -0.245 OA
BRANCH  35  37
ATOM     37  O   UNL     1       2.394 -12.018  -7.314  0.00  0.00    -0.465 OA
ATOM     38  C   UNL     1       2.102 -13.364  -7.694  0.00  0.00    +0.280 C 
ENDBRANCH  35  37
ENDBRANCH   9  35
BRANCH   7  39
ATOM     39  C   UNL     1       3.642  -6.891  -6.761  0.00  0.00    +0.338 C 
ATOM     40  O   UNL     1       3.825  -5.791  -6.270  0.00  0.00    -0.245 OA
BRANCH  39  41
ATOM     41  O   UNL     1       3.939  -7.108  -8.061  0.00  0.00    -0.465 OA
ATOM     42  C   UNL     1       4.464  -6.003  -8.800  0.00  0.00    +0.280 C 
ENDBRANCH  39  41
ENDBRANCH   7  39
TORSDOF 11
