REMARK  Name = ZINC63363496
REMARK  7 active torsions:
REMARK  status: ('A' for Active; 'I' for Inactive)
REMARK    1  A    between atoms: C_1  and  C_2
REMARK    2  A    between atoms: C_2  and  C_3
REMARK    3  A    between atoms: C_2  and  N_4
REMARK    4  A    between atoms: N_7  and  N_8
REMARK    5  A    between atoms: C_9  and  C_11
REMARK    6  A    between atoms: C_12  and  C_13
REMARK    7  A    between atoms: C_17  and  N_19
REMARK                            x       y       z     vdW  Elec       q    Type
REMARK                         _______ _______ _______ _____ _____    ______ ____
ROOT
ATOM      1  N   UNL     1       2.066  -1.394   3.370  0.00  0.00    -0.230 N 
ATOM      2  C   UNL     1       2.718  -1.841   4.462  0.00  0.00    +0.253 C 
ATOM      3  O   UNL     1       2.123  -1.971   5.515  0.00  0.00    -0.269 OA
ATOM      4  H   UNL     1       2.541  -1.290   2.530  0.00  0.00    +0.173 HD
ENDROOT
BRANCH   1   8
ATOM      5  N   UNL     1       0.711  -0.489   1.189  0.00  0.00    -0.296 N 
ATOM      6  C   UNL     1       0.051  -0.633   2.355  0.00  0.00    +0.316 C 
ATOM      7  O   UNL     1      -1.132  -0.361   2.423  0.00  0.00    -0.251 OA
ATOM      8  N   UNL     1       0.703  -1.080   3.447  0.00  0.00    -0.218 N 
ATOM      9  H   UNL     1       1.654  -0.707   1.135  0.00  0.00    +0.151 HD
ATOM     10  H   UNL     1       0.229  -1.184   4.287  0.00  0.00    +0.174 HD
BRANCH   5  12
ATOM     11  C   UNL     1      -0.019   1.526   0.010  0.00  0.00    +0.027 C 
ATOM     12  C   UNL     1       0.002  -0.004   0.002  0.00  0.00    +0.068 C 
ATOM     13  C   UNL     1       0.718  -0.497  -1.257  0.00  0.00    +0.027 C 
ENDBRANCH   5  12
ENDBRANCH   1   8
BRANCH   2  14
ATOM     14  C   UNL     1       4.142  -2.169   4.380  0.00  0.00    +0.069 C 
ATOM     15  C   UNL     1       4.794  -2.616   5.473  0.00  0.00    +0.013 C 
BRANCH  15  16
ATOM     16  C   UNL     1       6.226  -2.946   5.391  0.00  0.00    -0.023 A 
ATOM     17  C   UNL     1       6.915  -2.792   4.184  0.00  0.00    +0.009 A 
ATOM     18  C   UNL     1       8.256  -3.103   4.115  0.00  0.00    +0.023 A 
ATOM     19  C   UNL     1       8.922  -3.567   5.238  0.00  0.00    +0.071 A 
ATOM     20  C   UNL     1       8.246  -3.722   6.437  0.00  0.00    +0.145 A 
ATOM     21  C   UNL     1       6.906  -3.409   6.522  0.00  0.00    +0.042 A 
ATOM     22 CL   UNL     1      10.611  -3.957   5.142  0.00  0.00    -0.081 Cl
BRANCH  20  23
ATOM     23  N   UNL     1       8.965  -4.219   7.631  0.00  0.00    +0.058 N 
ATOM     24  O   UNL     1       8.377  -4.355   8.679  0.00  0.00    -0.126 OA
ATOM     25  O   UNL     1      10.142  -4.489   7.560  0.00  0.00    -0.126 OA
ENDBRANCH  20  23
ENDBRANCH  15  16
ENDBRANCH   2  14
TORSDOF 5
