REMARK  Name = ZINC18601450
REMARK  8 active torsions:
REMARK  status: ('A' for Active; 'I' for Inactive)
REMARK    1  A    between atoms: C_1  and  C_2
REMARK    2  A    between atoms: C_2  and  C_4
REMARK    3  A    between atoms: C_6  and  C_10
REMARK    4  A    between atoms: C_10  and  O_12
REMARK    5  A    between atoms: O_12  and  C_13
REMARK    6  A    between atoms: C_13  and  C_14
REMARK    7  A    between atoms: N_16  and  C_17
REMARK    8  A    between atoms: C_18  and  C_26
REMARK                            x       y       z     vdW  Elec       q    Type
REMARK                         _______ _______ _______ _____ _____    ______ ____
ROOT
ATOM      1  C   UNL     1       1.141   2.072   0.002  0.00  0.00    +0.255 C 
ATOM      2  O   UNL     1       2.200   1.480  -0.011  0.00  0.00    -0.272 OA
ATOM      3  N   UNL     1      -0.017   1.382   0.010  0.00  0.00    -0.277 N 
ATOM      4  H   UNL     1      -0.863   1.856   0.016  0.00  0.00    +0.155 HD
ENDROOT
BRANCH   3   5
ATOM      5  C   UNL     1       0.002  -0.004   0.002  0.00  0.00    +0.084 A 
ATOM      6  C   UNL     1      -1.073  -0.881   0.013  0.00  0.00    +0.068 A 
ATOM      7  C   UNL     1      -0.780  -2.304  -0.003  0.00  0.00    -0.023 A 
ATOM      8  C   UNL     1       0.533  -2.620  -0.016  0.00  0.00    -0.004 A 
ATOM      9  S   UNL     1       1.374  -1.062  -0.016  0.00  0.00    -0.077 S 
ATOM     10  C   UNL     1       1.132  -3.993  -0.028  0.00  0.00    +0.043 C 
ATOM     11  C   UNL     1       0.038  -5.000   0.356  0.00  0.00    +0.005 C 
ATOM     12  C   UNL     1      -1.218  -4.703  -0.467  0.00  0.00    +0.005 C 
ATOM     13  C   UNL     1      -1.848  -3.390   0.002  0.00  0.00    +0.037 C 
BRANCH   6  14
ATOM     14  C   UNL     1      -2.455  -0.390   0.036  0.00  0.00    +0.244 C 
ATOM     15  O   UNL     1      -3.044  -0.181  -1.008  0.00  0.00    -0.270 OA
ATOM     16  N   UNL     1      -3.072  -0.170   1.214  0.00  0.00    -0.325 N 
ATOM     17  H   UNL     1      -2.603  -0.337   2.046  0.00  0.00    +0.145 HD
ATOM     18  H   UNL     1      -3.986   0.155   1.229  0.00  0.00    +0.145 HD
ENDBRANCH   6  14
ENDBRANCH   3   5
BRANCH   1  19
ATOM     19  C   UNL     1       1.121   3.579   0.011  0.00  0.00    +0.328 C 
BRANCH  19  20
ATOM     20  O   UNL     1       2.483   4.082   0.000  0.00  0.00    -0.451 OA
BRANCH  20  21
ATOM     21  C   UNL     1       2.642   5.421   0.006  0.00  0.00    +0.356 C 
ATOM     22  O   UNL     1       1.667   6.148   0.019  0.00  0.00    -0.243 OA
BRANCH  21  25
ATOM     23  C   UNL     1       5.697   7.439  -0.013  0.00  0.00    +0.035 A 
ATOM     24  C   UNL     1       4.285   7.330  -0.005  0.00  0.00    +0.045 A 
ATOM     25  C   UNL     1       3.989   6.000  -0.004  0.00  0.00    +0.125 A 
ATOM     26  N   UNL     1       5.172   5.291  -0.019  0.00  0.00    -0.355 N 
ATOM     27  H   UNL     1       5.246   4.324  -0.025  0.00  0.00    +0.166 HD
ATOM     28  C   UNL     1       6.202   6.149  -0.025  0.00  0.00    +0.094 A 
BRANCH  23  30
ATOM     29  C   UNL     1       7.981   8.627  -0.029  0.00  0.00    +0.091 C 
ATOM     30  C   UNL     1       6.476   8.682  -0.014  0.00  0.00    +0.162 C 
ATOM     31  O   UNL     1       5.908   9.754  -0.002  0.00  0.00    -0.292 OA
ENDBRANCH  23  30
ENDBRANCH  21  25
ENDBRANCH  20  21
ENDBRANCH  19  20
ENDBRANCH   1  19
TORSDOF 7
