REMARK  Name = ZINC43736959
REMARK  4 active torsions:
REMARK  status: ('A' for Active; 'I' for Inactive)
REMARK    1  A    between atoms: C_1  and  C_2
REMARK    2  A    between atoms: C_5  and  O_30
REMARK    3  A    between atoms: C_18  and  C_29
REMARK    4  A    between atoms: N_24  and  N_25
REMARK                            x       y       z     vdW  Elec       q    Type
REMARK                         _______ _______ _______ _____ _____    ______ ____
ROOT
ATOM      1  C   UNL     1      -0.064   1.575  -0.143  0.00  0.00    +0.012 C 
ATOM      2  C   UNL     1      -0.024   0.042  -0.137  0.00  0.00    -0.026 C 
ATOM      3  C   UNL     1       0.650  -0.453  -1.414  0.00  0.00    +0.010 C 
ATOM      4  C   UNL     1       2.101   0.027  -1.468  0.00  0.00    +0.032 C 
ATOM      5  C   UNL     1       2.869  -0.452  -0.238  0.00  0.00    +0.115 C 
ATOM      6  C   UNL     1       2.192   0.057   1.038  0.00  0.00    +0.035 C 
ATOM      7  C   UNL     1       0.755  -0.465   1.076  0.00  0.00    -0.002 C 
ATOM      8  C   UNL     1       0.071  -0.083   2.384  0.00  0.00    +0.004 C 
ATOM      9  C   UNL     1      -1.344  -0.681   2.429  0.00  0.00    +0.004 C 
ATOM     10  C   UNL     1      -1.583  -1.435   1.127  0.00  0.00    -0.003 C 
ATOM     11  C   UNL     1      -1.466  -0.462  -0.050  0.00  0.00    -0.001 C 
ATOM     12  C   UNL     1      -1.944  -1.131  -1.328  0.00  0.00    +0.005 C 
ATOM     13  C   UNL     1      -3.450  -1.429  -1.264  0.00  0.00    +0.013 C 
ATOM     14  C   UNL     1      -3.926  -1.545   0.160  0.00  0.00    +0.011 C 
ATOM     15  C   UNL     1      -2.864  -2.204   1.061  0.00  0.00    +0.004 C 
ATOM     16  C   UNL     1      -3.648  -2.396   2.368  0.00  0.00    +0.010 C 
ATOM     17  C   UNL     1      -5.048  -2.836   1.854  0.00  0.00    +0.053 C 
ATOM     18  C   UNL     1      -5.091  -2.500   0.367  0.00  0.00    +0.043 C 
ATOM     19  N   UNL     1      -5.908  -2.914  -0.515  0.00  0.00    -0.187 NA
ATOM     20  C   UNL     1      -4.386  -0.186   0.695  0.00  0.00    +0.018 C 
ENDROOT
BRANCH  19  21
ATOM     21  N   UNL     1      -6.935  -3.799  -0.158  0.00  0.00    -0.191 N 
ATOM     22  C   UNL     1      -7.801  -4.238  -1.093  0.00  0.00    +0.317 C 
ATOM     23  O   UNL     1      -8.691  -5.006  -0.784  0.00  0.00    -0.251 OA
ATOM     24  N   UNL     1      -7.679  -3.826  -2.371  0.00  0.00    -0.312 N 
ATOM     25  H   UNL     1      -7.022  -4.095   0.761  0.00  0.00    +0.179 HD
ATOM     26  H   UNL     1      -6.969  -3.213  -2.617  0.00  0.00    +0.147 HD
ATOM     27  H   UNL     1      -8.303  -4.142  -3.043  0.00  0.00    +0.147 HD
ENDBRANCH  19  21
BRANCH   5  28
ATOM     28  O   UNL     1       4.210   0.044  -0.290  0.00  0.00    -0.392 OA
ATOM     29  H   UNL     1       4.706  -0.247  -1.068  0.00  0.00    +0.210 HD
ENDBRANCH   5  28
TORSDOF 2
