REMARK  Name = ZINC40372500
REMARK  5 active torsions:
REMARK  status: ('A' for Active; 'I' for Inactive)
REMARK    1  A    between atoms: C_1  and  C_2
REMARK    2  A    between atoms: C_5  and  C_8
REMARK    3  A    between atoms: C_5  and  N_12
REMARK    4  A    between atoms: N_9  and  O_10
REMARK    5  A    between atoms: C_13  and  C_15
REMARK                            x       y       z     vdW  Elec       q    Type
REMARK                         _______ _______ _______ _____ _____    ______ ____
ROOT
ATOM      1  C   UNL     1      -0.075   1.514   0.121  0.00  0.00    +0.007 C 
ATOM      2  C   UNL     1      -0.033  -0.015   0.070  0.00  0.00    -0.014 C 
ATOM      3  C   UNL     1       0.685  -0.463  -1.205  0.00  0.00    +0.006 C 
ATOM      4  C   UNL     1       0.727  -1.991  -1.257  0.00  0.00    +0.034 C 
ATOM      5  C   UNL     1       1.479  -2.522  -0.035  0.00  0.00    +0.093 C 
ATOM      6  C   UNL     1       0.762  -2.075   1.240  0.00  0.00    +0.034 C 
ATOM      7  C   UNL     1       0.720  -0.546   1.292  0.00  0.00    +0.006 C 
ENDROOT
BRANCH   5   8
ATOM      8  C   UNL     1       1.521  -4.028  -0.086  0.00  0.00    +0.155 C 
ATOM      9  N   UNL     1       0.883  -4.660  -1.015  0.00  0.00    -0.075 NA
ATOM     10  N   UNL     1       2.239  -4.729   0.857  0.00  0.00    -0.342 N 
ATOM     11  H   UNL     1       2.658  -4.260   1.595  0.00  0.00    +0.144 HD
ATOM     12  H   UNL     1       2.326  -5.692   0.782  0.00  0.00    +0.144 HD
BRANCH   9  13
ATOM     13  O   UNL     1       0.922  -6.075  -1.063  0.00  0.00    -0.408 OA
ATOM     14  H   UNL     1       0.415  -6.458  -1.792  0.00  0.00    +0.328 HD
ENDBRANCH   9  13
ENDBRANCH   5   8
BRANCH   5  15
ATOM     15  N   UNL     1       2.846  -1.996  -0.037  0.00  0.00    -0.299 N 
ATOM     16  C   UNL     1       3.644  -2.195  -1.105  0.00  0.00    +0.245 C 
ATOM     17  O   UNL     1       3.266  -2.897  -2.024  0.00  0.00    -0.270 OA
ATOM     18  H   UNL     1       3.178  -1.504   0.730  0.00  0.00    +0.150 HD
BRANCH  16  19
ATOM     19  C   UNL     1       4.973  -1.564  -1.159  0.00  0.00    +0.044 A 
ATOM     20  C   UNL     1       5.852  -1.751  -2.288  0.00  0.00    +0.020 A 
ATOM     21  C   UNL     1       7.040  -1.118  -2.215  0.00  0.00    +0.046 A 
ATOM     22  S   UNL     1       6.961  -0.289  -0.643  0.00  0.00    -0.104 S 
ATOM     23  C   UNL     1       5.433  -0.764  -0.138  0.00  0.00    +0.058 A 
ENDBRANCH  16  19
ENDBRANCH   5  15
TORSDOF 4
