REMARK  Name = ZINC64137688
REMARK  7 active torsions:
REMARK  status: ('A' for Active; 'I' for Inactive)
REMARK    1  A    between atoms: C_1  and  C_2
REMARK    2  A    between atoms: C_2  and  C_4
REMARK    3  A    between atoms: C_2  and  S_17
REMARK    4  A    between atoms: C_4  and  C_6
REMARK    5  A    between atoms: S_17  and  C_18
REMARK    6  A    between atoms: C_22  and  C_27
REMARK    7  A    between atoms: N_23  and  C_24
REMARK                            x       y       z     vdW  Elec       q    Type
REMARK                         _______ _______ _______ _____ _____    ______ ____
ROOT
ATOM      1  C   UNL     1      -2.410  -0.100   1.669  0.00  0.00    +0.237 C 
ATOM      2  N   UNL     1      -1.532  -0.598   2.741  0.00  0.00    -0.237 N 
ATOM      3  N   UNL     1      -0.969   0.529   3.350  0.00  0.00    -0.169 NA
ATOM      4  C   UNL     1      -1.389   1.632   2.788  0.00  0.00    +0.147 C 
ATOM      5  N   UNL     1      -2.281   1.365   1.743  0.00  0.00    -0.282 N 
ATOM      6  H   UNL     1      -1.377  -1.525   2.979  0.00  0.00    +0.171 HD
ENDROOT
BRANCH   4   7
ATOM      7  C   UNL     1      -0.997   2.920   3.184  0.00  0.00    +0.022 C 
ATOM      8  C   UNL     1      -0.199   3.261   4.276  0.00  0.00    +0.006 A 
ATOM      9  C   UNL     1       0.435   2.487   5.272  0.00  0.00    +0.010 A 
ATOM     10  C   UNL     1       1.168   3.101   6.236  0.00  0.00    +0.001 A 
ATOM     11  C   UNL     1       1.315   4.489   6.271  0.00  0.00    +0.002 A 
ATOM     12  C   UNL     1       0.735   5.293   5.347  0.00  0.00    +0.026 A 
ATOM     13  C   UNL     1      -0.047   4.725   4.309  0.00  0.00    +0.043 A 
ATOM     14  N   UNL     1      -0.703   5.279   3.307  0.00  0.00    -0.380 N 
ATOM     15  C   UNL     1      -1.347   4.229   2.511  0.00  0.00    +0.152 C 
ATOM     16  H   UNL     1      -0.748   6.230   3.124  0.00  0.00    +0.160 HD
ENDBRANCH   4   7
BRANCH   5  17
ATOM     17  C   UNL     1      -2.955   2.347   0.890  0.00  0.00    +0.078 C 
ATOM     18  C   UNL     1      -4.479   2.441   0.988  0.00  0.00    +0.024 C 
ATOM     19  C   UNL     1      -3.828   1.814  -0.247  0.00  0.00    +0.024 C 
ENDBRANCH   5  17
BRANCH   1  20
ATOM     20  S   UNL     1      -1.846  -0.705   0.055  0.00  0.00    -0.107 S 
BRANCH  20  22
ATOM     21  C   UNL     1      -0.104   1.398  -0.093  0.00  0.00    +0.027 C 
ATOM     22  C   UNL     1      -0.129  -0.131  -0.054  0.00  0.00    +0.118 C 
BRANCH  22  23
ATOM     23  C   UNL     1       0.504  -0.676  -1.308  0.00  0.00    +0.176 C 
ATOM     24  O   UNL     1      -0.189  -0.978  -2.256  0.00  0.00    -0.291 OA
BRANCH  23  25
ATOM     25  C   UNL     1       1.962  -0.842  -1.383  0.00  0.00    +0.020 A 
ATOM     26  C   UNL     1       2.764  -0.500  -0.287  0.00  0.00    +0.015 A 
ATOM     27  C   UNL     1       4.131  -0.656  -0.357  0.00  0.00    +0.048 A 
ATOM     28  C   UNL     1       4.717  -1.153  -1.512  0.00  0.00    +0.142 A 
ATOM     29  C   UNL     1       3.923  -1.497  -2.610  0.00  0.00    +0.076 A 
ATOM     30  C   UNL     1       2.552  -1.349  -2.547  0.00  0.00    +0.038 A 
ATOM     31  N   UNL     1       4.535  -1.996  -3.769  0.00  0.00    -0.280 N 
ATOM     32  C   UNL     1       5.813  -2.430  -3.698  0.00  0.00    +0.255 C 
ATOM     33  O   UNL     1       6.373  -2.839  -4.693  0.00  0.00    -0.272 OA
ATOM     34  C   UNL     1       6.539  -2.404  -2.377  0.00  0.00    +0.325 C 
ATOM     35  O   UNL     1       6.063  -1.311  -1.589  0.00  0.00    -0.481 OA
ATOM     36  H   UNL     1       4.049  -2.030  -4.607  0.00  0.00    +0.155 HD
ENDBRANCH  23  25
ENDBRANCH  22  23
ENDBRANCH  20  22
ENDBRANCH   1  20
TORSDOF 6
