REMARK  Name = ZINC41298723
REMARK  5 active torsions:
REMARK  status: ('A' for Active; 'I' for Inactive)
REMARK    1  A    between atoms: C_1  and  C_2
REMARK    2  A    between atoms: C_2  and  C_4
REMARK    3  A    between atoms: C_2  and  N_11
REMARK    4  A    between atoms: C_12  and  C_14
REMARK    5  A    between atoms: C_14  and  N_15
REMARK                            x       y       z     vdW  Elec       q    Type
REMARK                         _______ _______ _______ _____ _____    ______ ____
ROOT
ATOM      1  N   UNL     1      -1.372  -0.511   0.012  0.00  0.00    -0.307 N 
ATOM      2  C   UNL     1      -2.029  -0.655   1.181  0.00  0.00    +0.231 C 
ATOM      3  O   UNL     1      -1.481  -0.365   2.224  0.00  0.00    -0.274 OA
ATOM      4  H   UNL     1      -1.810  -0.743  -0.822  0.00  0.00    +0.149 HD
ENDROOT
BRANCH   1   6
ATOM      5  C   UNL     1      -0.019   1.526   0.010  0.00  0.00    +0.033 C 
ATOM      6  C   UNL     1       0.002  -0.004   0.002  0.00  0.00    +0.101 C 
BRANCH   6   7
ATOM      7  C   UNL     1       0.707  -0.490  -1.238  0.00  0.00    -0.014 A 
ATOM      8  C   UNL     1      -0.023  -0.817  -2.365  0.00  0.00    +0.006 A 
ATOM      9  C   UNL     1       0.624  -1.262  -3.503  0.00  0.00    +0.000 A 
ATOM     10  C   UNL     1       2.002  -1.381  -3.513  0.00  0.00    +0.001 A 
ATOM     11  C   UNL     1       2.732  -1.054  -2.387  0.00  0.00    +0.015 A 
ATOM     12  C   UNL     1       2.086  -0.603  -1.250  0.00  0.00    +0.023 A 
ATOM     13 BR   UNL     1       3.086  -0.149   0.290  0.00  0.00    -0.050 Br
ENDBRANCH   6   7
ENDBRANCH   1   6
BRANCH   2  14
ATOM     14  C   UNL     1      -3.442  -1.177   1.191  0.00  0.00    +0.201 C 
BRANCH  14  15
ATOM     15  N   UNL     1      -3.929  -1.240   2.572  0.00  0.00    -0.291 N 
ATOM     16  C   UNL     1      -5.177  -1.680   2.827  0.00  0.00    +0.297 C 
ATOM     17  O   UNL     1      -5.899  -2.024   1.911  0.00  0.00    -0.253 OA
ATOM     18  N   UNL     1      -5.625  -1.738   4.097  0.00  0.00    -0.313 N 
ATOM     19  H   UNL     1      -3.353  -0.966   3.302  0.00  0.00    +0.151 HD
ATOM     20  H   UNL     1      -5.049  -1.464   4.827  0.00  0.00    +0.146 HD
ATOM     21  H   UNL     1      -6.523  -2.055   4.280  0.00  0.00    +0.146 HD
ENDBRANCH  14  15
ENDBRANCH   2  14
TORSDOF 4
