REMARK  Name = ZINC40005494
REMARK  7 active torsions:
REMARK  status: ('A' for Active; 'I' for Inactive)
REMARK    1  A    between atoms: C_1  and  C_2
REMARK    2  A    between atoms: C_5  and  N_9
REMARK    3  A    between atoms: C_10  and  C_12
REMARK    4  A    between atoms: C_12  and  C_14
REMARK    5  A    between atoms: C_12  and  N_20
REMARK    6  A    between atoms: N_20  and  C_21
REMARK    7  A    between atoms: C_30  and  C_33
REMARK                            x       y       z     vdW  Elec       q    Type
REMARK                         _______ _______ _______ _____ _____    ______ ____
ROOT
ATOM      1  C   UNL     1       0.310  -6.351   1.119  0.00  0.00    +0.188 C 
ENDROOT
BRANCH   1   2
ATOM      2  C   UNL     1      -0.904  -6.956   0.462  0.00  0.00    -0.018 A 
ATOM      3  C   UNL     1      -2.078  -7.098   1.178  0.00  0.00    +0.006 A 
ATOM      4  C   UNL     1      -3.192  -7.653   0.576  0.00  0.00    +0.000 A 
ATOM      5  C   UNL     1      -3.132  -8.066  -0.742  0.00  0.00    +0.000 A 
ATOM      6  C   UNL     1      -1.958  -7.923  -1.458  0.00  0.00    +0.000 A 
ATOM      7  C   UNL     1      -0.846  -7.364  -0.857  0.00  0.00    +0.006 A 
ENDBRANCH   1   2
BRANCH   1   9
ATOM      8  N   UNL     1       0.059  -4.170  -0.022  0.00  0.00    -0.284 N 
ATOM      9  C   UNL     1       0.176  -4.850   1.136  0.00  0.00    +0.242 C 
ATOM     10  O   UNL     1       0.174  -4.254   2.192  0.00  0.00    -0.273 OA
ATOM     11  H   UNL     1      -0.015  -4.651  -0.861  0.00  0.00    +0.155 HD
BRANCH   8  16
ATOM     12  C   UNL     1       0.008   1.503   0.012  0.00  0.00    +0.045 C 
ATOM     13  C   UNL     1       0.022  -0.004   0.003  0.00  0.00    -0.032 A 
ATOM     14  C   UNL     1       0.777  -0.693   0.934  0.00  0.00    +0.006 A 
ATOM     15  C   UNL     1       0.792  -2.074   0.928  0.00  0.00    +0.023 A 
ATOM     16  C   UNL     1       0.046  -2.771  -0.014  0.00  0.00    +0.035 A 
ATOM     17  C   UNL     1      -0.712  -2.078  -0.948  0.00  0.00    +0.043 A 
ATOM     18  C   UNL     1      -0.726  -0.695  -0.934  0.00  0.00    +0.046 A 
ATOM     19 CL   UNL     1      -1.679   0.174  -2.096  0.00  0.00    -0.083 Cl
ENDBRANCH   8  16
ENDBRANCH   1   9
BRANCH   1  20
ATOM     20  N   UNL     1       0.421  -6.847   2.493  0.00  0.00    -0.329 N 
ATOM     21  H   UNL     1       0.053  -6.330   3.226  0.00  0.00    +0.147 HD
BRANCH  20  22
ATOM     22  C   UNL     1       1.057  -8.067   2.747  0.00  0.00    +0.030 A 
ATOM     23  C   UNL     1       1.589  -8.805   1.696  0.00  0.00    +0.026 A 
ATOM     24  C   UNL     1       2.219 -10.010   1.943  0.00  0.00    +0.049 A 
ATOM     25  C   UNL     1       2.321 -10.485   3.239  0.00  0.00    +0.143 A 
ATOM     26  C   UNL     1       1.788  -9.748   4.295  0.00  0.00    +0.077 A 
ATOM     27  C   UNL     1       1.162  -8.537   4.049  0.00  0.00    +0.050 A 
ATOM     28  N   UNL     1       1.898 -10.244   5.602  0.00  0.00    -0.279 N 
ATOM     29  C   UNL     1       2.773 -11.242   5.852  0.00  0.00    +0.258 C 
ATOM     30  O   UNL     1       2.863 -11.707   6.969  0.00  0.00    -0.271 OA
ATOM     31  C   UNL     1       3.639 -11.774   4.738  0.00  0.00    +0.256 C 
ATOM     32  O   UNL     1       2.939 -11.670   3.495  0.00  0.00    -0.478 OA
ATOM     33  C   UNL     1       4.932 -10.960   4.664  0.00  0.00    +0.062 C 
ATOM     34  H   UNL     1       1.353  -9.876   6.315  0.00  0.00    +0.155 HD
ENDBRANCH  20  22
ENDBRANCH   1  20
TORSDOF 5
