REMARK  Name = ZINC18286543
REMARK  5 active torsions:
REMARK  status: ('A' for Active; 'I' for Inactive)
REMARK    1  A    between atoms: C_3  and  N_11
REMARK    2  A    between atoms: C_6  and  C_7
REMARK    3  A    between atoms: C_15  and  N_19
REMARK    4  A    between atoms: C_22  and  C_25
REMARK    5  A    between atoms: C_22  and  N_28
REMARK                            x       y       z     vdW  Elec       q    Type
REMARK                         _______ _______ _______ _____ _____    ______ ____
ROOT
ATOM      1  N   UNL     1       6.732   2.483  -1.240  0.00  0.00    -0.291 NA
ATOM      2  C   UNL     1       7.739   3.553  -1.217  0.00  0.00    +0.084 C 
ATOM      3  C   UNL     1       8.601   3.471  -2.478  0.00  0.00    +0.013 C 
ATOM      4  C   UNL     1       9.285   2.102  -2.536  0.00  0.00    +0.015 C 
ATOM      5  C   UNL     1       8.217   1.006  -2.510  0.00  0.00    +0.013 C 
ATOM      6  C   UNL     1       7.365   1.159  -1.248  0.00  0.00    +0.084 C 
ENDROOT
BRANCH   1  11
ATOM      7  N   UNL     1       3.496   2.379  -0.355  0.00  0.00    -0.209 N 
ATOM      8  C   UNL     1       3.666   3.704  -0.276  0.00  0.00    +0.228 C 
ATOM      9  O   UNL     1       2.780   4.530  -0.326  0.00  0.00    -0.275 OA
ATOM     10  C   UNL     1       5.139   4.009  -0.115  0.00  0.00    +0.125 C 
ATOM     11  C   UNL     1       5.799   2.615  -0.114  0.00  0.00    +0.153 C 
ATOM     12  C   UNL     1       4.628   1.669  -0.270  0.00  0.00    +0.244 C 
ATOM     13  O   UNL     1       4.703   0.459  -0.312  0.00  0.00    -0.273 OA
BRANCH   7  16
ATOM     14  C   UNL     1       0.493   0.365   0.328  0.00  0.00    +0.014 A 
ATOM     15  C   UNL     1       1.735   0.951   0.482  0.00  0.00    +0.024 A 
ATOM     16  C   UNL     1       2.237   1.783  -0.509  0.00  0.00    +0.044 A 
ATOM     17  C   UNL     1       1.488   2.025  -1.653  0.00  0.00    +0.024 A 
ATOM     18  C   UNL     1       0.247   1.437  -1.802  0.00  0.00    +0.014 A 
ATOM     19  C   UNL     1      -0.250   0.608  -0.812  0.00  0.00    +0.055 A 
BRANCH  19  20
ATOM     20  C   UNL     1      -1.604  -0.032  -0.978  0.00  0.00    +0.417 C 
ATOM     21  F   UNL     1      -2.586   0.807  -0.442  0.00  0.00    -0.166 F 
ATOM     22  F   UNL     1      -1.859  -0.239  -2.338  0.00  0.00    -0.166 F 
ATOM     23  F   UNL     1      -1.624  -1.260  -0.308  0.00  0.00    -0.166 F 
ENDBRANCH  19  20
ENDBRANCH   7  16
ENDBRANCH   1  11
BRANCH   4  24
ATOM     24  N   UNL     1      10.068   1.996  -3.774  0.00  0.00    +0.389 N 
ATOM     25  C   UNL     1       9.166   2.071  -4.930  0.00  0.00    -0.077 C 
ATOM     26  C   UNL     1       9.984   2.043  -6.223  0.00  0.00    -0.019 C 
ATOM     27  C   UNL     1      10.787   0.740  -6.284  0.00  0.00    -0.004 C 
ATOM     28  C   UNL     1      11.670   0.638  -5.036  0.00  0.00    -0.019 C 
ATOM     29  C   UNL     1      10.790   0.718  -3.787  0.00  0.00    -0.077 C 
ATOM     30  H   UNL     1      10.731   2.756  -3.818  0.00  0.00    -0.080 HD
ENDBRANCH   4  24
BRANCH   4  31
ATOM     31  C   UNL     1      10.197   1.944  -1.347  0.00  0.00    +0.200 C 
ATOM     32  O   UNL     1       9.825   1.321  -0.375  0.00  0.00    -0.278 OA
ATOM     33  N   UNL     1      11.427   2.496  -1.362  0.00  0.00    -0.330 N 
ATOM     34  H   UNL     1      11.753   2.930  -2.166  0.00  0.00    +0.145 HD
ATOM     35  H   UNL     1      11.985   2.459  -0.570  0.00  0.00    +0.145 HD
ENDBRANCH   4  31
TORSDOF 5
