REMARK  Name = ZINC00556105
REMARK  4 active torsions:
REMARK  status: ('A' for Active; 'I' for Inactive)
REMARK    1  A    between atoms: C_1  and  C_2
REMARK    2  A    between atoms: C_4  and  C_22
REMARK    3  A    between atoms: C_12  and  C_14
REMARK    4  A    between atoms: C_17  and  N_19
REMARK                            x       y       z     vdW  Elec       q    Type
REMARK                         _______ _______ _______ _____ _____    ______ ____
ROOT
ATOM      1  C   UNL     1      -0.018   1.503   0.010  0.00  0.00    +0.044 C 
ATOM      2  C   UNL     1       0.002  -0.004   0.002  0.00  0.00    -0.049 A 
ATOM      3  C   UNL     1       0.006  -0.698  -1.199  0.00  0.00    +0.009 A 
ATOM      4  C   UNL     1       0.025  -2.068  -1.235  0.00  0.00    -0.024 A 
ATOM      5  C   UNL     1       0.041  -2.822  -0.038  0.00  0.00    +0.083 A 
ATOM      6  C   UNL     1       0.037  -2.081   1.166  0.00  0.00    +0.041 A 
ATOM      7  C   UNL     1       0.023  -0.709   1.192  0.00  0.00    +0.020 A 
ATOM      8  S   UNL     1       0.061  -3.361   2.397  0.00  0.00    -0.052 S 
ATOM      9  C   UNL     1       0.075  -4.752   1.275  0.00  0.00    +0.166 A 
ATOM     10  N   UNL     1       0.061  -4.165   0.101  0.00  0.00    -0.224 NA
ATOM     11  N   UNL     1       0.096  -6.104   1.569  0.00  0.00    -0.258 N 
ATOM     12  C   UNL     1       0.108  -6.515   2.853  0.00  0.00    +0.285 C 
ATOM     13  O   UNL     1       0.101  -5.697   3.753  0.00  0.00    -0.266 OA
ATOM     14  C   UNL     1       0.028  -2.779  -2.563  0.00  0.00    +0.046 C 
ATOM     15  H   UNL     1       0.102  -6.757   0.851  0.00  0.00    +0.157 HD
ENDROOT
BRANCH  12  16
ATOM     16  C   UNL     1       0.131  -7.947   3.164  0.00  0.00    +0.192 A 
ATOM     17  C   UNL     1       0.140  -8.497   4.415  0.00  0.00    +0.057 A 
ATOM     18  C   UNL     1       0.161  -9.890   4.243  0.00  0.00    +0.076 A 
ATOM     19  C   UNL     1       0.165 -10.126   2.912  0.00  0.00    +0.280 A 
ATOM     20  O   UNL     1       0.141  -8.954   2.266  0.00  0.00    -0.429 OA
BRANCH  19  21
ATOM     21  N   UNL     1       0.186 -11.462   2.275  0.00  0.00    +0.093 N 
ATOM     22  O   UNL     1       0.201 -12.459   2.959  0.00  0.00    -0.123 OA
ATOM     23  O   UNL     1       0.187 -11.557   1.069  0.00  0.00    -0.123 OA
ENDBRANCH  19  21
ENDBRANCH  12  16
TORSDOF 2
