REMARK  Name = ZINC24746067
REMARK  17 active torsions:
REMARK  status: ('A' for Active; 'I' for Inactive)
REMARK    1  A    between atoms: C_1  and  C_2
REMARK    2  A    between atoms: C_3  and  C_37
REMARK    3  A    between atoms: C_4  and  C_36
REMARK    4  A    between atoms: C_7  and  C_8
REMARK    5  A    between atoms: C_8  and  O_10
REMARK    6  A    between atoms: O_10  and  C_11
REMARK    7  A    between atoms: C_11  and  C_12
REMARK    8  A    between atoms: N_14  and  C_15
REMARK    9  A    between atoms: N_14  and  C_19
REMARK   10  A    between atoms: C_15  and  C_16
REMARK   11  A    between atoms: C_16  and  C_17
REMARK   12  A    between atoms: C_16  and  C_18
REMARK   13  A    between atoms: C_20  and  N_35
REMARK   14  A    between atoms: N_21  and  C_28
REMARK   15  A    between atoms: C_28  and  C_29
REMARK   16  A    between atoms: C_37  and  O_39
REMARK   17  A    between atoms: O_39  and  C_40
REMARK                            x       y       z     vdW  Elec       q    Type
REMARK                         _______ _______ _______ _____ _____    ______ ____
ROOT
ATOM      1  C   UNL     1       0.579  -1.619   6.014  0.00  0.00    +0.258 C 
ATOM      2  O   UNL     1       1.016  -2.660   5.569  0.00  0.00    -0.272 OA
ATOM      3  N   UNL     1       0.399  -1.476   7.344  0.00  0.00    -0.261 N 
ENDROOT
BRANCH   3   4
ATOM      4  C   UNL     1       0.627  -2.568   8.208  0.00  0.00    +0.140 A 
ATOM      5  C   UNL     1      -0.107  -3.730   8.081  0.00  0.00    +0.128 A 
ATOM      6  N   UNL     1       0.139  -4.777   8.938  0.00  0.00    -0.276 N 
ATOM      7  C   UNL     1       1.085  -4.671   9.889  0.00  0.00    +0.331 A 
ATOM      8  O   UNL     1       1.287  -5.608  10.636  0.00  0.00    -0.246 OA
ATOM      9  N   UNL     1       1.811  -3.547  10.027  0.00  0.00    -0.273 N 
ATOM     10  H   UNL     1       2.487  -3.496  10.721  0.00  0.00    +0.173 HD
ATOM     11  C   UNL     1       1.613  -2.494   9.211  0.00  0.00    +0.277 A 
ATOM     12  O   UNL     1       2.279  -1.481   9.342  0.00  0.00    -0.266 OA
BRANCH   5  13
ATOM     13  N   UNL     1      -1.073  -3.838   7.109  0.00  0.00    -0.343 N 
ATOM     14  H   UNL     1      -1.201  -3.120   6.471  0.00  0.00    +0.144 HD
ATOM     15  H   UNL     1      -1.627  -4.633   7.063  0.00  0.00    +0.144 HD
ENDBRANCH   5  13
BRANCH   6  16
ATOM     16  C   UNL     1      -0.633  -6.016   8.814  0.00  0.00    +0.163 C 
BRANCH  16  17
ATOM     17  C   UNL     1       0.069  -6.954   7.866  0.00  0.00    -0.028 A 
ATOM     18  C   UNL     1      -0.213  -6.909   6.514  0.00  0.00    +0.005 A 
ATOM     19  C   UNL     1       0.432  -7.769   5.644  0.00  0.00    +0.000 A 
ATOM     20  C   UNL     1       1.358  -8.674   6.128  0.00  0.00    +0.000 A 
ATOM     21  C   UNL     1       1.641  -8.718   7.480  0.00  0.00    +0.000 A 
ATOM     22  C   UNL     1       1.000  -7.855   8.349  0.00  0.00    +0.005 A 
ENDBRANCH  16  17
ENDBRANCH   6  16
ENDBRANCH   3   4
BRANCH   1  23
ATOM     23  C   UNL     1       0.238  -0.485   5.082  0.00  0.00    +0.328 C 
BRANCH  23  24
ATOM     24  O   UNL     1       0.514  -0.876   3.736  0.00  0.00    -0.451 OA
BRANCH  24  25
ATOM     25  C   UNL     1       0.262   0.032   2.771  0.00  0.00    +0.356 C 
ATOM     26  O   UNL     1      -0.180   1.126   3.065  0.00  0.00    -0.243 OA
BRANCH  25  33
ATOM     27  C   UNL     1      -0.226   1.930   0.344  0.00  0.00    +0.047 C 
ATOM     28  C   UNL     1       0.311   0.523   0.299  0.00  0.00    -0.005 A 
ATOM     29  C   UNL     1       0.698  -0.193  -0.857  0.00  0.00    +0.083 A 
ATOM     30  C   UNL     1       1.127  -1.439  -0.438  0.00  0.00    +0.028 A 
ATOM     31  N   UNL     1       1.016  -1.498   0.898  0.00  0.00    -0.352 N 
ATOM     32  H   UNL     1       1.250  -2.263   1.447  0.00  0.00    +0.166 HD
ATOM     33  C   UNL     1       0.521  -0.300   1.366  0.00  0.00    +0.128 A 
ATOM     34  C   UNL     1       1.634  -2.542  -1.331  0.00  0.00    +0.064 C 
BRANCH  29  35
ATOM     35  C   UNL     1       0.652   0.296  -2.245  0.00  0.00    +0.341 C 
ATOM     36  O   UNL     1       1.613   0.869  -2.720  0.00  0.00    -0.245 OA
BRANCH  35  37
ATOM     37  O   UNL     1      -0.456   0.108  -2.989  0.00  0.00    -0.464 OA
ATOM     38  C   UNL     1      -0.431   0.609  -4.328  0.00  0.00    +0.280 C 
ENDBRANCH  35  37
ENDBRANCH  29  35
ENDBRANCH  25  33
ENDBRANCH  24  25
ENDBRANCH  23  24
ENDBRANCH   1  23
BRANCH   3  39
ATOM     39  C   UNL     1      -0.034  -0.188   7.891  0.00  0.00    +0.117 C 
BRANCH  39  40
ATOM     40  C   UNL     1      -1.561  -0.103   7.847  0.00  0.00    +0.001 C 
ATOM     41  C   UNL     1      -2.157  -1.152   8.788  0.00  0.00    +0.009 C 
ATOM     42  C   UNL     1      -2.006   1.292   8.291  0.00  0.00    +0.009 C 
ENDBRANCH  39  40
ENDBRANCH   3  39
TORSDOF 12
