REMARK  Name = ZINC39315612
REMARK  9 active torsions:
REMARK  status: ('A' for Active; 'I' for Inactive)
REMARK    1  A    between atoms: C_1  and  C_2
REMARK    2  A    between atoms: C_4  and  C_32
REMARK    3  A    between atoms: C_6  and  S_10
REMARK    4  A    between atoms: C_7  and  C_8
REMARK    5  A    between atoms: S_10  and  C_11
REMARK    6  A    between atoms: C_11  and  C_12
REMARK    7  A    between atoms: C_14  and  C_26
REMARK    8  A    between atoms: C_16  and  C_24
REMARK    9  A    between atoms: C_17  and  N_23
REMARK                            x       y       z     vdW  Elec       q    Type
REMARK                         _______ _______ _______ _____ _____    ______ ____
ROOT
ATOM      1  C   UNL     1       0.096  -5.715   3.259  0.00  0.00    +0.079 C 
ATOM      2  C   UNL     1      -0.931  -6.411   3.684  0.00  0.00    +0.031 C 
ATOM      3  C   UNL     1      -2.385  -6.455   3.299  0.00  0.00    +0.099 C 
ATOM      4  C   UNL     1      -3.150  -6.528   4.607  0.00  0.00    +0.098 C 
ATOM      5  C   UNL     1      -2.522  -6.722   5.786  0.00  0.00    +0.195 C 
ATOM      6  O   UNL     1      -1.197  -6.845   5.981  0.00  0.00    -0.448 OA
ATOM      7  C   UNL     1      -0.398  -7.231   4.859  0.00  0.00    +0.343 C 
ATOM      8  N   UNL     1       0.982  -6.746   4.968  0.00  0.00    -0.138 NA
ATOM      9  N   UNL     1       1.179  -5.947   4.045  0.00  0.00    -0.154 NA
ENDROOT
BRANCH   3  10
ATOM     10  C   UNL     1      -2.761  -5.207   2.542  0.00  0.00    -0.017 A 
ATOM     11  C   UNL     1      -3.252  -5.293   1.248  0.00  0.00    +0.007 A 
ATOM     12  C   UNL     1      -3.585  -4.119   0.590  0.00  0.00    +0.020 A 
ATOM     13  C   UNL     1      -3.417  -2.911   1.241  0.00  0.00    +0.111 A 
ATOM     14  N   UNL     1      -2.946  -2.868   2.472  0.00  0.00    -0.263 NA
ATOM     15  C   UNL     1      -2.625  -3.964   3.130  0.00  0.00    +0.115 A 
ENDBRANCH   3  10
BRANCH   5  16
ATOM     16  N   UNL     1      -3.318  -6.802   6.901  0.00  0.00    -0.329 N 
ATOM     17  H   UNL     1      -4.281  -6.720   6.817  0.00  0.00    +0.145 HD
ATOM     18  H   UNL     1      -2.918  -6.941   7.774  0.00  0.00    +0.145 HD
ENDBRANCH   5  16
BRANCH   4  19
ATOM     19  C   UNL     1      -4.575  -6.388   4.591  0.00  0.00    +0.101 C 
ATOM     20  N   UNL     1      -5.705  -6.277   4.577  0.00  0.00    -0.191 NA
ENDBRANCH   4  19
BRANCH   1  21
ATOM     21  C   UNL     1       0.078  -4.794   2.067  0.00  0.00    +0.133 C 
BRANCH  21  22
ATOM     22  S   UNL     1       0.057  -3.071   2.633  0.00  0.00    -0.098 S 
BRANCH  22  28
ATOM     23  C   UNL     1      -0.018   1.503   0.010  0.00  0.00    +0.045 C 
ATOM     24  C   UNL     1       0.002  -0.004   0.002  0.00  0.00    -0.029 A 
ATOM     25  C   UNL     1       0.006  -0.707  -1.191  0.00  0.00    +0.027 A 
ATOM     26  C   UNL     1       0.025  -2.089  -1.167  0.00  0.00    +0.040 A 
ATOM     27  N   UNL     1       0.040  -2.754  -0.028  0.00  0.00    -0.244 NA
ATOM     28  C   UNL     1       0.037  -2.133   1.142  0.00  0.00    +0.115 A 
ATOM     29  C   UNL     1       0.023  -0.727   1.200  0.00  0.00    +0.086 A 
ATOM     30  C   UNL     1       0.029  -2.851  -2.467  0.00  0.00    +0.065 C 
BRANCH  29  31
ATOM     31  C   UNL     1       0.026  -0.049   2.461  0.00  0.00    +0.102 C 
ATOM     32  N   UNL     1       0.028   0.489   3.462  0.00  0.00    -0.191 NA
ENDBRANCH  29  31
ENDBRANCH  22  28
ENDBRANCH  21  22
ENDBRANCH   1  21
TORSDOF 7
