REMARK  Name = ZINC02908117
REMARK  9 active torsions:
REMARK  status: ('A' for Active; 'I' for Inactive)
REMARK    1  A    between atoms: C_1  and  C_2
REMARK    2  A    between atoms: C_5  and  C_8
REMARK    3  A    between atoms: C_10  and  P_15
REMARK    4  A    between atoms: C_11  and  N_13
REMARK    5  A    between atoms: N_13  and  C_14
REMARK    6  A    between atoms: P_15  and  O_17
REMARK    7  A    between atoms: P_15  and  O_19
REMARK    8  A    between atoms: O_17  and  C_18
REMARK    9  A    between atoms: O_19  and  C_20
REMARK                            x       y       z     vdW  Elec       q    Type
REMARK                         _______ _______ _______ _____ _____    ______ ____
ROOT
ATOM      1  C   UNL     1      -2.502   1.008   0.019  0.00  0.00    +0.230 A 
ATOM      2  N   UNL     1      -3.702   1.538   0.027  0.00  0.00    -0.199 NA
ATOM      3  C   UNL     1      -4.609   0.550   0.026  0.00  0.00    +0.213 A 
ATOM      4  C   UNL     1      -3.938  -0.627   0.016  0.00  0.00    +0.222 A 
ATOM      5  O   UNL     1      -2.622  -0.334   0.006  0.00  0.00    -0.421 OA
ENDROOT
BRANCH   1  10
ATOM      6  C   UNL     1       2.452   3.933  -0.000  0.00  0.00    +0.044 C 
ATOM      7  C   UNL     1       1.155   3.167   0.008  0.00  0.00    -0.050 A 
ATOM      8  C   UNL     1       1.172   1.783   0.000  0.00  0.00    +0.004 A 
ATOM      9  C   UNL     1      -0.013   1.076   0.008  0.00  0.00    +0.013 A 
ATOM     10  C   UNL     1      -1.230   1.759   0.017  0.00  0.00    +0.037 A 
ATOM     11  C   UNL     1      -1.240   3.155   0.031  0.00  0.00    +0.013 A 
ATOM     12  C   UNL     1      -0.048   3.850   0.023  0.00  0.00    +0.004 A 
ENDBRANCH   1  10
BRANCH   4  13
ATOM     13  N   UNL     1      -4.500  -1.899   0.011  0.00  0.00    -0.316 N 
ATOM     14  C   UNL     1      -3.635  -3.082   0.000  0.00  0.00    +0.128 C 
ATOM     15  H   UNL     1      -5.464  -2.003   0.015  0.00  0.00    +0.149 HD
ENDBRANCH   4  13
BRANCH   3  16
ATOM     16  P   UNL     1      -6.412   0.752   0.036  0.00  0.00    +0.386 P 
ATOM     17  O   UNL     1      -6.764   2.005   0.742  0.00  0.00    -0.251 OA
BRANCH  16  18
ATOM     18  O   UNL     1      -6.952   0.821  -1.479  0.00  0.00    -0.307 OA
ATOM     19  C   UNL     1      -8.319   1.081  -1.807  0.00  0.00    +0.205 C 
ENDBRANCH  16  18
BRANCH  16  20
ATOM     20  O   UNL     1      -7.088  -0.498   0.791  0.00  0.00    -0.307 OA
ATOM     21  C   UNL     1      -8.490  -0.582   1.056  0.00  0.00    +0.205 C 
ENDBRANCH  16  20
ENDBRANCH   3  16
TORSDOF 5
