REMARK  Name = ZINC54949432
REMARK  10 active torsions:
REMARK  status: ('A' for Active; 'I' for Inactive)
REMARK    1  A    between atoms: C_1  and  C_2
REMARK    2  A    between atoms: C_5  and  C_7
REMARK    3  A    between atoms: C_7  and  C_9
REMARK    4  A    between atoms: C_7  and  N_10
REMARK    5  A    between atoms: C_11  and  C_13
REMARK    6  A    between atoms: N_15  and  C_16
REMARK    7  A    between atoms: C_19  and  O_23
REMARK    8  A    between atoms: C_21  and  C_22
REMARK    9  A    between atoms: O_23  and  C_24
REMARK   10  A    between atoms: C_24  and  C_25
REMARK                            x       y       z     vdW  Elec       q    Type
REMARK                         _______ _______ _______ _____ _____    ______ ____
ROOT
ATOM      1  C   UNL     1       3.718  -5.387  -2.402  0.00  0.00    +0.303 C 
ATOM      2  O   UNL     1       4.378  -4.393  -2.625  0.00  0.00    -0.265 OA
ATOM      3  N   UNL     1       4.058  -6.562  -2.968  0.00  0.00    -0.278 N 
ATOM      4  H   UNL     1       3.581  -7.372  -2.728  0.00  0.00    +0.155 HD
ENDROOT
BRANCH   3   5
ATOM      5  C   UNL     1       5.098  -6.614  -3.901  0.00  0.00    +0.037 A 
ATOM      6  C   UNL     1       5.435  -5.480  -4.630  0.00  0.00    +0.027 A 
ATOM      7  C   UNL     1       6.462  -5.532  -5.551  0.00  0.00    +0.047 A 
ATOM      8  C   UNL     1       7.158  -6.716  -5.749  0.00  0.00    +0.122 A 
ATOM      9  C   UNL     1       6.821  -7.849  -5.023  0.00  0.00    +0.050 A 
ATOM     10  C   UNL     1       5.798  -7.798  -4.097  0.00  0.00    -0.026 A 
ATOM     11  C   UNL     1       5.438  -9.027  -3.303  0.00  0.00    +0.046 C 
BRANCH   8  12
ATOM     12  O   UNL     1       8.169  -6.766  -6.657  0.00  0.00    -0.483 OA
BRANCH  12  13
ATOM     13  C   UNL     1       8.461  -5.563  -7.370  0.00  0.00    +0.324 C 
BRANCH  13  14
ATOM     14  C   UNL     1       9.602  -5.809  -8.323  0.00  0.00    +0.248 C 
ATOM     15  O   UNL     1      10.114  -6.906  -8.386  0.00  0.00    -0.272 OA
ATOM     16  N   UNL     1      10.053  -4.809  -9.106  0.00  0.00    -0.327 N 
ATOM     17  H   UNL     1       9.643  -3.931  -9.056  0.00  0.00    +0.145 HD
ATOM     18  H   UNL     1      10.787  -4.967  -9.720  0.00  0.00    +0.145 HD
ENDBRANCH  13  14
ENDBRANCH  12  13
ENDBRANCH   8  12
ENDBRANCH   3   5
BRANCH   1  20
ATOM     19  N   UNL     1       2.191  -4.134  -0.934  0.00  0.00    -0.301 N 
ATOM     20  C   UNL     1       2.530  -5.309  -1.500  0.00  0.00    +0.300 C 
ATOM     21  O   UNL     1       1.871  -6.303  -1.277  0.00  0.00    -0.265 OA
ATOM     22  H   UNL     1       2.718  -3.339  -1.113  0.00  0.00    +0.150 HD
BRANCH  19  23
ATOM     23  C   UNL     1       1.026  -4.056  -0.050  0.00  0.00    +0.107 C 
ATOM     24  C   UNL     1       1.436  -4.454   1.370  0.00  0.00    +0.033 C 
BRANCH  23  29
ATOM     25  C   UNL     1      -0.024   1.510  -0.018  0.00  0.00    +0.051 C 
ATOM     26  C   UNL     1      -0.007   0.003  -0.027  0.00  0.00    -0.013 A 
ATOM     27  C   UNL     1      -1.050  -0.862  -0.036  0.00  0.00    +0.011 A 
ATOM     28  C   UNL     1      -0.794  -2.220  -0.044  0.00  0.00    +0.013 A 
ATOM     29  C   UNL     1       0.493  -2.647  -0.042  0.00  0.00    +0.010 A 
ATOM     30  S   UNL     1       1.393  -1.105  -0.036  0.00  0.00    -0.097 S 
ENDBRANCH  23  29
ENDBRANCH  19  23
ENDBRANCH   1  20
TORSDOF 7
