REMARK  Name = ZINC67373849
REMARK  6 active torsions:
REMARK  status: ('A' for Active; 'I' for Inactive)
REMARK    1  A    between atoms: C_6  and  C_7
REMARK    2  A    between atoms: C_7  and  C_9
REMARK    3  A    between atoms: C_7  and  O_27
REMARK    4  A    between atoms: N_12  and  C_15
REMARK    5  A    between atoms: C_18  and  C_24
REMARK    6  A    between atoms: C_20  and  N_21
REMARK                            x       y       z     vdW  Elec       q    Type
REMARK                         _______ _______ _______ _____ _____    ______ ____
ROOT
ATOM      1  C   UNL     1      -1.616  -1.155   1.455  0.00  0.00    +0.025 C 
ATOM      2  C   UNL     1      -0.510  -2.033   2.044  0.00  0.00    +0.025 C 
ATOM      3  C   UNL     1      -0.856  -2.378   3.496  0.00  0.00    +0.105 C 
ATOM      4  N   UNL     1      -2.193  -2.988   3.531  0.00  0.00    -0.328 N 
ATOM      5  C   UNL     1      -3.314  -2.268   2.911  0.00  0.00    +0.105 C 
ATOM      6  C   UNL     1      -2.940  -1.924   1.466  0.00  0.00    +0.025 C 
ENDROOT
BRANCH   4   7
ATOM      7  C   UNL     1      -2.393  -4.222   4.139  0.00  0.00    +0.060 A 
ATOM      8  C   UNL     1      -2.356  -5.386   3.376  0.00  0.00    +0.026 A 
ATOM      9  C   UNL     1      -2.553  -6.609   3.975  0.00  0.00    +0.015 A 
ATOM     10  C   UNL     1      -2.790  -6.682   5.351  0.00  0.00    +0.039 A 
ATOM     11  C   UNL     1      -2.826  -5.512   6.114  0.00  0.00    +0.047 A 
ATOM     12  C   UNL     1      -2.623  -4.292   5.510  0.00  0.00    +0.148 A 
BRANCH  10  13
ATOM     13  C   UNL     1      -3.003  -7.992   5.996  0.00  0.00    +0.242 C 
ATOM     14  O   UNL     1      -3.209  -8.054   7.193  0.00  0.00    -0.270 OA
ATOM     15  N   UNL     1      -2.968  -9.120   5.259  0.00  0.00    -0.325 N 
ATOM     16  H   UNL     1      -2.804  -9.070   4.304  0.00  0.00    +0.145 HD
ATOM     17  H   UNL     1      -3.108  -9.981   5.683  0.00  0.00    +0.145 HD
ENDBRANCH  10  13
BRANCH  12  18
ATOM     18  N   UNL     1      -2.655  -3.052   6.318  0.00  0.00    +0.058 N 
ATOM     19  O   UNL     1      -2.755  -3.117   7.521  0.00  0.00    -0.126 OA
ATOM     20  O   UNL     1      -2.582  -1.974   5.775  0.00  0.00    -0.126 OA
ENDBRANCH  12  18
ENDBRANCH   4   7
BRANCH   1  21
ATOM     21  C   UNL     1      -1.257  -0.780   0.016  0.00  0.00    +0.148 C 
BRANCH  21  27
ATOM     22  C   UNL     1       0.042   1.359   0.015  0.00  0.00    +0.007 A 
ATOM     23  C   UNL     1       1.237   2.054   0.005  0.00  0.00    +0.020 A 
ATOM     24  C   UNL     1       2.437   1.366  -0.015  0.00  0.00    +0.041 A 
ATOM     25  C   UNL     1       2.440  -0.017  -0.025  0.00  0.00    +0.020 A 
ATOM     26  C   UNL     1       1.245  -0.711  -0.015  0.00  0.00    +0.007 A 
ATOM     27  C   UNL     1       0.046  -0.023   0.005  0.00  0.00    -0.019 A 
ATOM     28 CL   UNL     1       3.938   2.238  -0.028  0.00  0.00    -0.084 Cl
ENDBRANCH  21  27
BRANCH  21  29
ATOM     29  O   UNL     1      -1.124  -1.968  -0.767  0.00  0.00    -0.387 OA
ATOM     30  H   UNL     1      -0.440  -2.573  -0.451  0.00  0.00    +0.210 HD
ENDBRANCH  21  29
ENDBRANCH   1  21
TORSDOF 6
