REMARK  Name = ZINC06089907
REMARK  14 active torsions:
REMARK  status: ('A' for Active; 'I' for Inactive)
REMARK    1  A    between atoms: C_1  and  C_2
REMARK    2  A    between atoms: C_2  and  O_3
REMARK    3  A    between atoms: O_3  and  C_4
REMARK    4  A    between atoms: C_7  and  N_10
REMARK    5  A    between atoms: N_10  and  C_11
REMARK    6  A    between atoms: C_11  and  N_13
REMARK    7  A    between atoms: N_13  and  C_14
REMARK    8  A    between atoms: N_13  and  C_19
REMARK    9  A    between atoms: C_14  and  C_15
REMARK   10  A    between atoms: C_15  and  C_16
REMARK   11  A    between atoms: C_16  and  N_67
REMARK   12  A    between atoms: C_17  and  N_67
REMARK   13  A    between atoms: C_18  and  N_67
REMARK   14  A    between atoms: C_19  and  C_20
REMARK                            x       y       z     vdW  Elec       q    Type
REMARK                         _______ _______ _______ _____ _____    ______ ____
ROOT
ATOM      1  N   UNL     1       1.108   2.660   0.505  0.00  0.00    -0.308 N 
ENDROOT
BRANCH   1   2
ATOM      2  C   UNL     1      -0.065   2.011   0.364  0.00  0.00    +0.137 C 
ATOM      3  S   UNL     1      -0.176   0.348   0.752  0.00  0.00    -0.018 S 
BRANCH   2   4
ATOM      4  N   UNL     1      -1.150   2.671  -0.089  0.00  0.00    -0.297 N 
ATOM      5  H   UNL     1      -1.068   3.591  -0.388  0.00  0.00    +0.154 HD
BRANCH   4   9
ATOM      6  C   UNL     1      -4.856   0.763  -0.201  0.00  0.00    +0.121 A 
ATOM      7  C   UNL     1      -4.007   0.567   0.879  0.00  0.00    +0.047 A 
ATOM      8  C   UNL     1      -2.780   1.199   0.917  0.00  0.00    +0.027 A 
ATOM      9  C   UNL     1      -2.395   2.030  -0.126  0.00  0.00    +0.033 A 
ATOM     10  C   UNL     1      -3.247   2.231  -1.204  0.00  0.00    +0.027 A 
ATOM     11  C   UNL     1      -4.471   1.594  -1.243  0.00  0.00    +0.047 A 
BRANCH   6  12
ATOM     12  O   UNL     1      -6.064   0.141  -0.238  0.00  0.00    -0.492 OA
BRANCH  12  14
ATOM     13  C   UNL     1      -8.195  -0.393  -1.244  0.00  0.00    +0.048 C 
ATOM     14  C   UNL     1      -6.886   0.388  -1.380  0.00  0.00    +0.225 C 
ENDBRANCH  12  14
ENDBRANCH   6  12
ENDBRANCH   4   9
ENDBRANCH   2   4
ENDBRANCH   1   2
BRANCH   1  15
ATOM     15  C   UNL     1       1.234   4.050   0.062  0.00  0.00    +0.105 C 
BRANCH  15  16
ATOM     16  C   UNL     1       0.871   4.988   1.215  0.00  0.00    +0.000 C 
BRANCH  16  17
ATOM     17  C   UNL     1       1.003   6.440   0.752  0.00  0.00    -0.078 C 
BRANCH  17  20
ATOM     18  C   UNL     1       1.628   7.232   2.953  0.00  0.00    -0.097 C 
ATOM     19  C   UNL     1       0.538   8.729   1.392  0.00  0.00    -0.097 C 
ATOM     20  N   UNL     1       0.628   7.332   1.869  0.00  0.00    +0.376 N 
ATOM     21  H   UNL     1      -0.288   7.045   2.233  0.00  0.00    -0.083 HD
ENDBRANCH  17  20
ENDBRANCH  16  17
ENDBRANCH  15  16
ENDBRANCH   1  15
BRANCH   1  22
ATOM     22  C   UNL     1       2.257   1.974   1.101  0.00  0.00    +0.147 C 
BRANCH  22  23
ATOM     23  C   UNL     1       2.327   2.296   2.571  0.00  0.00    +0.035 A 
ATOM     24  C   UNL     1       1.739   1.470   3.474  0.00  0.00    +0.020 A 
ATOM     25  C   UNL     1       1.829   1.808   4.894  0.00  0.00    +0.003 A 
ATOM     26  C   UNL     1       1.246   0.991   5.870  0.00  0.00    +0.059 A 
ATOM     27  C   UNL     1       1.343   1.337   7.201  0.00  0.00    +0.163 A 
ATOM     28  C   UNL     1       2.021   2.500   7.578  0.00  0.00    +0.164 A 
ATOM     29  C   UNL     1       2.601   3.314   6.620  0.00  0.00    +0.075 A 
ATOM     30  C   UNL     1       2.511   2.980   5.275  0.00  0.00    +0.053 A 
ATOM     31  N   UNL     1       3.082   3.781   4.306  0.00  0.00    -0.322 N 
ATOM     32  H   UNL     1       3.565   4.613   4.577  0.00  0.00    +0.169 HD
ATOM     33  C   UNL     1       2.998   3.458   3.004  0.00  0.00    +0.254 A 
ATOM     34  O   UNL     1       3.514   4.189   2.176  0.00  0.00    -0.268 OA
ATOM     35  O   UNL     1       2.125   2.847   8.889  0.00  0.00    -0.485 OA
ATOM     36  C   UNL     1       1.217   2.214   9.797  0.00  0.00    +0.270 C 
ATOM     37  C   UNL     1       1.201   0.710   9.491  0.00  0.00    +0.270 C 
ATOM     38  O   UNL     1       0.768   0.533   8.138  0.00  0.00    -0.485 OA
ENDBRANCH  22  23
ENDBRANCH   1  22
TORSDOF 11
