REMARK  Name = ZINC12851196
REMARK  7 active torsions:
REMARK  status: ('A' for Active; 'I' for Inactive)
REMARK    1  A    between atoms: C_1  and  C_2
REMARK    2  A    between atoms: C_8  and  C_17
REMARK    3  A    between atoms: C_12  and  C_13
REMARK    4  A    between atoms: C_13  and  O_15
REMARK    5  A    between atoms: O_15  and  C_16
REMARK    6  A    between atoms: C_17  and  S_18
REMARK    7  A    between atoms: S_18  and  C_19
REMARK                            x       y       z     vdW  Elec       q    Type
REMARK                         _______ _______ _______ _____ _____    ______ ____
ROOT
ATOM      1  C   UNL     1      -0.018   1.503   0.010  0.00  0.00    +0.046 C 
ATOM      2  C   UNL     1       0.002  -0.004   0.002  0.00  0.00    -0.015 A 
ATOM      3  C   UNL     1       0.005  -0.697  -1.210  0.00  0.00    +0.076 A 
ATOM      4  C   UNL     1      -0.009  -0.166  -2.592  0.00  0.00    +0.260 A 
ATOM      5  O   UNL     1      -0.025   1.034  -2.800  0.00  0.00    -0.267 OA
ATOM      6  N   UNL     1      -0.002  -1.044  -3.614  0.00  0.00    -0.310 N 
ATOM      7  H   UNL     1      -0.010  -0.712  -4.525  0.00  0.00    +0.170 HD
ATOM      8  C   UNL     1       0.018  -2.382  -3.394  0.00  0.00    +0.121 A 
ATOM      9  N   UNL     1       0.030  -2.883  -2.189  0.00  0.00    -0.226 NA
ATOM     10  C   UNL     1       0.025  -2.108  -1.113  0.00  0.00    +0.116 A 
ATOM     11  S   UNL     1       0.037  -2.396   0.639  0.00  0.00    -0.062 S 
ATOM     12  C   UNL     1       0.023  -0.695   1.179  0.00  0.00    +0.102 A 
ENDROOT
BRANCH  12  13
ATOM     13  C   UNL     1       0.030  -0.170   2.547  0.00  0.00    +0.346 C 
ATOM     14  O   UNL     1       0.015   1.031   2.737  0.00  0.00    -0.244 OA
BRANCH  13  15
ATOM     15  O   UNL     1       0.051  -1.019   3.595  0.00  0.00    -0.464 OA
ATOM     16  C   UNL     1       0.057  -0.438   4.900  0.00  0.00    +0.280 C 
ENDBRANCH  13  15
ENDBRANCH  12  13
BRANCH   8  17
ATOM     17  C   UNL     1       0.024  -3.317  -4.576  0.00  0.00    +0.151 C 
BRANCH  17  18
ATOM     18  S   UNL     1       0.050  -5.033  -3.989  0.00  0.00    -0.085 S 
BRANCH  18  19
ATOM     19  C   UNL     1       0.056  -5.990  -5.468  0.00  0.00    +0.129 C 
ATOM     20  N   UNL     1       0.048  -5.440  -6.693  0.00  0.00    -0.363 N 
ATOM     21  C   UNL     1      -0.221  -6.520  -7.621  0.00  0.00    +0.101 C 
ATOM     22  C   UNL     1       0.429  -6.547  -8.984  0.00  0.00    +0.026 C 
ATOM     23  C   UNL     1      -0.086  -7.822  -9.683  0.00  0.00    +0.002 C 
ATOM     24  C   UNL     1       0.225  -9.077  -8.875  0.00  0.00    +0.002 C 
ATOM     25  C   UNL     1      -0.280  -8.972  -7.423  0.00  0.00    +0.024 C 
ATOM     26  C   UNL     1       0.345  -7.733  -6.834  0.00  0.00    +0.094 C 
ATOM     27  N   UNL     1       0.074  -7.332  -5.470  0.00  0.00    -0.321 N 
ATOM     28  H   UNL     1      -0.068  -7.917  -4.709  0.00  0.00    +0.148 HD
ATOM     29  H   UNL     1       0.192  -4.506  -6.913  0.00  0.00    +0.162 HD
ENDBRANCH  18  19
ENDBRANCH  17  18
ENDBRANCH   8  17
TORSDOF 5
