REMARK  Name = ZINC09358672
REMARK  3 active torsions:
REMARK  status: ('A' for Active; 'I' for Inactive)
REMARK    1  A    between atoms: C_1  and  C_2
REMARK    2  A    between atoms: C_7  and  C_8
REMARK    3  A    between atoms: N_24  and  C_27
REMARK                            x       y       z     vdW  Elec       q    Type
REMARK                         _______ _______ _______ _____ _____    ______ ____
ROOT
ATOM      1  C   UNL     1      -4.837   1.679   0.349  0.00  0.00    +0.044 C 
ATOM      2  C   UNL     1      -3.408   2.153   0.277  0.00  0.00    -0.046 A 
ATOM      3  C   UNL     1      -3.135   3.508   0.226  0.00  0.00    +0.004 A 
ATOM      4  C   UNL     1      -1.823   3.944   0.161  0.00  0.00    +0.005 A 
ATOM      5  C   UNL     1      -0.794   3.030   0.148  0.00  0.00    -0.027 A 
ATOM      6  C   UNL     1      -1.057   1.664   0.192  0.00  0.00    +0.039 A 
ATOM      7  C   UNL     1      -2.380   1.234   0.263  0.00  0.00    -0.026 A 
ATOM      8  C   UNL     1      -2.689  -0.240   0.319  0.00  0.00    +0.046 C 
ATOM      9  N   UNL     1       0.138   0.941   0.171  0.00  0.00    -0.286 N 
ATOM     10  C   UNL     1       1.217   1.744   0.105  0.00  0.00    +0.212 C 
ATOM     11  O   UNL     1       2.378   1.396   0.067  0.00  0.00    -0.277 OA
ATOM     12  C   UNL     1       0.703   3.159   0.087  0.00  0.00    +0.053 C 
ATOM     13  C   UNL     1       1.150   3.901  -1.177  0.00  0.00    +0.089 C 
ATOM     14  C   UNL     1       2.378   4.739  -0.727  0.00  0.00    +0.074 C 
ATOM     15  C   UNL     1       2.559   4.416   0.767  0.00  0.00    -0.054 C 
ATOM     16  C   UNL     1       0.397   5.138   1.438  0.00  0.00    -0.076 C 
ATOM     17  C   UNL     1       1.350   6.327   1.645  0.00  0.00    -0.020 C 
ATOM     18  C   UNL     1       2.786   5.729   1.547  0.00  0.00    -0.016 C 
ATOM     19  C   UNL     1       3.520   4.114  -1.526  0.00  0.00    +0.228 C 
ATOM     20  O   UNL     1       4.679   4.465  -1.480  0.00  0.00    -0.275 OA
ATOM     21  N   UNL     1       3.042   3.124  -2.289  0.00  0.00    -0.209 N 
ATOM     22  C   UNL     1       1.725   2.918  -2.171  0.00  0.00    +0.229 C 
ATOM     23  O   UNL     1       1.091   2.075  -2.769  0.00  0.00    -0.275 OA
ATOM     24  H   UNL     1       0.185  -0.028   0.197  0.00  0.00    +0.155 HD
ATOM     25  N   UNL     1       1.248   3.952   1.185  0.00  0.00    +0.395 N 
ATOM     26  H   UNL     1       1.319   3.382   2.035  0.00  0.00    -0.079 HD
ENDROOT
BRANCH  21  27
ATOM     27  C   UNL     1       3.855   2.364  -3.144  0.00  0.00    +0.062 A 
ATOM     28  C   UNL     1       4.489   1.224  -2.669  0.00  0.00    +0.027 A 
ATOM     29  C   UNL     1       5.285   0.475  -3.513  0.00  0.00    +0.022 A 
ATOM     30  C   UNL     1       5.459   0.866  -4.830  0.00  0.00    +0.042 A 
ATOM     31  C   UNL     1       4.833   2.004  -5.305  0.00  0.00    +0.042 A 
ATOM     32  C   UNL     1       4.031   2.755  -4.465  0.00  0.00    +0.064 A 
ATOM     33 CL   UNL     1       3.246   4.184  -5.062  0.00  0.00    -0.082 Cl
ATOM     34 CL   UNL     1       6.466  -0.074  -5.886  0.00  0.00    -0.083 Cl
ENDBRANCH  21  27
TORSDOF 1
