REMARK  Name = ZINC47604197
REMARK  13 active torsions:
REMARK  status: ('A' for Active; 'I' for Inactive)
REMARK    1  A    between atoms: C_1  and  C_2
REMARK    2  A    between atoms: C_2  and  O_3
REMARK    3  A    between atoms: O_3  and  C_4
REMARK    4  A    between atoms: C_4  and  C_5
REMARK    5  A    between atoms: C_5  and  O_6
REMARK    6  A    between atoms: O_6  and  C_7
REMARK    7  A    between atoms: C_7  and  C_8
REMARK    8  A    between atoms: C_12  and  N_14
REMARK    9  A    between atoms: N_17  and  C_18
REMARK   10  A    between atoms: C_20  and  C_26
REMARK   11  A    between atoms: C_20  and  C_27
REMARK   12  A    between atoms: C_22  and  C_24
REMARK   13  A    between atoms: C_22  and  C_25
REMARK                            x       y       z     vdW  Elec       q    Type
REMARK                         _______ _______ _______ _____ _____    ______ ____
ROOT
ATOM      1  N   UNL     1      -6.411  -2.475  -6.350  0.00  0.00    -0.269 N 
ATOM      2  C   UNL     1      -7.060  -2.179  -7.494  0.00  0.00    +0.304 C 
ATOM      3  O   UNL     1      -7.655  -1.124  -7.600  0.00  0.00    -0.253 OA
ATOM      4  N   UNL     1      -7.050  -3.053  -8.520  0.00  0.00    -0.296 N 
ATOM      5  H   UNL     1      -5.874  -3.280  -6.292  0.00  0.00    +0.156 HD
ATOM      6  H   UNL     1      -6.575  -3.894  -8.435  0.00  0.00    +0.151 HD
ENDROOT
BRANCH   4   7
ATOM      7  C   UNL     1      -7.757  -2.730  -9.766  0.00  0.00    +0.072 C 
ATOM      8  C   UNL     1      -9.217  -3.170  -9.643  0.00  0.00    +0.009 C 
ATOM      9  C   UNL     1      -9.964  -2.853 -10.938  0.00  0.00    -0.072 C 
ATOM     10  N   UNL     1      -9.306  -3.422 -12.104  0.00  0.00    +0.386 N 
ATOM     11  C   UNL     1      -7.869  -3.242 -12.224  0.00  0.00    -0.072 C 
ATOM     12  C   UNL     1      -7.119  -3.502 -10.921  0.00  0.00    +0.009 C 
ATOM     13  C   UNL     1      -7.514  -1.853 -12.761  0.00  0.00    -0.010 C 
ATOM     14  C   UNL     1      -7.356  -4.270 -13.260  0.00  0.00    -0.010 C 
ATOM     15  C   UNL     1     -10.171  -1.344 -11.072  0.00  0.00    -0.010 C 
ATOM     16  C   UNL     1     -11.364  -3.499 -10.829  0.00  0.00    -0.010 C 
ATOM     17  H   UNL     1      -9.508  -4.425 -12.129  0.00  0.00    -0.084 HD
ATOM     18  H   UNL     1      -9.750  -3.038 -12.942  0.00  0.00    -0.084 HD
ENDBRANCH   4   7
BRANCH   1  23
ATOM     19  C   UNL     1      -7.784  -0.075  -3.926  0.00  0.00    -0.020 A 
ATOM     20  C   UNL     1      -6.712   0.071  -3.066  0.00  0.00    +0.006 A 
ATOM     21  C   UNL     1      -5.539  -0.626  -3.293  0.00  0.00    +0.002 A 
ATOM     22  C   UNL     1      -5.437  -1.471  -4.381  0.00  0.00    +0.023 A 
ATOM     23  C   UNL     1      -6.512  -1.620  -5.247  0.00  0.00    +0.035 A 
ATOM     24  C   UNL     1      -7.690  -0.922  -5.013  0.00  0.00    +0.029 A 
BRANCH  19  25
ATOM     25  C   UNL     1      -9.060   0.687  -3.675  0.00  0.00    +0.195 C 
BRANCH  25  26
ATOM     26  O   UNL     1      -9.922  -0.090  -2.841  0.00  0.00    -0.373 OA
BRANCH  26  27
ATOM     27  C   UNL     1     -11.167   0.544  -2.540  0.00  0.00    +0.188 C 
BRANCH  27  28
ATOM     28  C   UNL     1     -12.004  -0.373  -1.647  0.00  0.00    +0.188 C 
BRANCH  28  29
ATOM     29  O   UNL     1     -11.350  -0.538  -0.387  0.00  0.00    -0.378 OA
BRANCH  29  31
ATOM     30  C   UNL     1     -11.265  -1.488   1.834  0.00  0.00    +0.034 C 
ATOM     31  C   UNL     1     -12.053  -1.383   0.527  0.00  0.00    +0.156 C 
ENDBRANCH  29  31
ENDBRANCH  28  29
ENDBRANCH  27  28
ENDBRANCH  26  27
ENDBRANCH  25  26
ENDBRANCH  19  25
ENDBRANCH   1  23
TORSDOF 8
