REMARK  Name = ZINC65513013
REMARK  6 active torsions:
REMARK  status: ('A' for Active; 'I' for Inactive)
REMARK    1  A    between atoms: C_3  and  C_23
REMARK    2  A    between atoms: C_5  and  N_7
REMARK    3  A    between atoms: N_7  and  N_8
REMARK    4  A    between atoms: N_11  and  C_12
REMARK    5  A    between atoms: C_12  and  C_13
REMARK    6  A    between atoms: N_15  and  C_16
REMARK                            x       y       z     vdW  Elec       q    Type
REMARK                         _______ _______ _______ _____ _____    ______ ____
ROOT
ATOM      1  N   UNL     1       0.019  -2.797  -0.008  0.00  0.00    -0.220 N 
ATOM      2  C   UNL     1       0.032  -4.145  -0.012  0.00  0.00    +0.316 C 
ATOM      3  O   UNL     1      -1.015  -4.763   0.003  0.00  0.00    -0.251 OA
ATOM      4  N   UNL     1       1.205  -4.807  -0.034  0.00  0.00    -0.290 N 
ATOM      5  H   UNL     1      -0.826  -2.320   0.008  0.00  0.00    +0.174 HD
ATOM      6  H   UNL     1       2.041  -4.314  -0.046  0.00  0.00    +0.151 HD
ENDROOT
BRANCH   1   7
ATOM      7  N   UNL     1       1.225  -2.085  -0.026  0.00  0.00    -0.263 N 
ATOM      8  H   UNL     1       2.070  -2.562  -0.041  0.00  0.00    +0.170 HD
BRANCH   7  13
ATOM      9  C   UNL     1      -0.018   1.377   0.004  0.00  0.00    +0.003 A 
ATOM     10  C   UNL     1       1.165   2.089  -0.013  0.00  0.00    +0.019 A 
ATOM     11  C   UNL     1       2.386   1.412  -0.035  0.00  0.00    +0.054 A 
ATOM     12  C   UNL     1       2.405   0.017  -0.039  0.00  0.00    +0.043 A 
ATOM     13  C   UNL     1       1.212  -0.688  -0.021  0.00  0.00    +0.046 A 
ATOM     14  C   UNL     1       0.001  -0.004   0.001  0.00  0.00    +0.024 A 
BRANCH  11  15
ATOM     15  C   UNL     1       3.615   2.148  -0.054  0.00  0.00    +0.099 C 
ATOM     16  N   UNL     1       4.589   2.731  -0.069  0.00  0.00    -0.191 NA
ENDBRANCH  11  15
ENDBRANCH   7  13
ENDBRANCH   1   7
BRANCH   4  17
ATOM     17  C   UNL     1       1.220  -6.272  -0.038  0.00  0.00    +0.202 C 
BRANCH  17  18
ATOM     18  C   UNL     1       2.645  -6.761  -0.064  0.00  0.00    +0.234 C 
ATOM     19  O   UNL     1       3.559  -5.964  -0.076  0.00  0.00    -0.274 OA
ATOM     20  N   UNL     1       2.904  -8.083  -0.072  0.00  0.00    -0.284 N 
ATOM     21  H   UNL     1       2.177  -8.720   0.006  0.00  0.00    +0.155 HD
BRANCH  20  22
ATOM     22  C   UNL     1       4.222  -8.537  -0.193  0.00  0.00    +0.034 A 
ATOM     23  C   UNL     1       4.495  -9.699  -0.904  0.00  0.00    +0.025 A 
ATOM     24  C   UNL     1       5.797 -10.145  -1.022  0.00  0.00    +0.022 A 
ATOM     25  C   UNL     1       6.829  -9.435  -0.432  0.00  0.00    +0.041 A 
ATOM     26  C   UNL     1       6.560  -8.278   0.276  0.00  0.00    +0.022 A 
ATOM     27  C   UNL     1       5.260  -7.824   0.392  0.00  0.00    +0.025 A 
ATOM     28 CL   UNL     1       8.464  -9.999  -0.582  0.00  0.00    -0.084 Cl
ENDBRANCH  20  22
ENDBRANCH  17  18
ENDBRANCH   4  17
TORSDOF 6
