REMARK  Name = ZINC09124149
REMARK  9 active torsions:
REMARK  status: ('A' for Active; 'I' for Inactive)
REMARK    1  A    between atoms: C_1  and  C_2
REMARK    2  A    between atoms: C_5  and  C_10
REMARK    3  A    between atoms: C_6  and  O_9
REMARK    4  A    between atoms: C_7  and  C_8
REMARK    5  A    between atoms: C_12  and  C_16
REMARK    6  A    between atoms: N_18  and  C_19
REMARK    7  A    between atoms: C_20  and  C_27
REMARK    8  A    between atoms: N_29  and  C_30
REMARK    9  A    between atoms: C_30  and  C_31
REMARK                            x       y       z     vdW  Elec       q    Type
REMARK                         _______ _______ _______ _____ _____    ______ ____
ROOT
ATOM      1  C   UNL     1       0.103  -7.613  -1.489  0.00  0.00    +0.266 C 
ATOM      2  O   UNL     1       0.102  -7.554  -2.704  0.00  0.00    -0.268 OA
ATOM      3  N   UNL     1       0.119  -8.811  -0.873  0.00  0.00    -0.274 N 
ATOM      4  H   UNL     1       0.120  -8.859   0.096  0.00  0.00    +0.156 HD
ENDROOT
BRANCH   3   5
ATOM      5  C   UNL     1       0.134  -9.976  -1.623  0.00  0.00    +0.085 A 
ATOM      6  C   UNL     1       0.146 -11.281  -1.167  0.00  0.00    +0.069 A 
ATOM      7  C   UNL     1       0.160 -12.342  -2.173  0.00  0.00    -0.023 A 
ATOM      8  C   UNL     1       0.161 -11.895  -3.442  0.00  0.00    -0.004 A 
ATOM      9  S   UNL     1       0.134 -10.127  -3.293  0.00  0.00    -0.077 S 
ATOM     10  C   UNL     1       0.180 -13.026  -4.434  0.00  0.00    +0.043 C 
ATOM     11  C   UNL     1       0.623 -14.258  -3.615  0.00  0.00    +0.010 C 
ATOM     12  C   UNL     1       0.171 -13.869  -2.193  0.00  0.00    +0.037 C 
BRANCH   6  13
ATOM     13  C   UNL     1       0.145 -11.589   0.266  0.00  0.00    +0.247 C 
ATOM     14  O   UNL     1      -0.910 -11.727   0.858  0.00  0.00    -0.270 OA
ATOM     15  N   UNL     1       1.311 -11.718   0.929  0.00  0.00    -0.304 N 
ATOM     16  H   UNL     1       2.152 -11.608   0.457  0.00  0.00    +0.149 HD
BRANCH  15  17
ATOM     17  C   UNL     1       1.310 -12.025   2.361  0.00  0.00    +0.179 C 
BRANCH  17  18
ATOM     18  C   UNL     1       2.731 -12.116   2.857  0.00  0.00    +0.122 A 
ATOM     19  C   UNL     1       3.459 -11.098   3.349  0.00  0.00    +0.046 A 
ATOM     20  C   UNL     1       4.725 -11.627   3.690  0.00  0.00    +0.041 A 
ATOM     21  C   UNL     1       4.695 -12.936   3.386  0.00  0.00    +0.195 A 
ATOM     22  O   UNL     1       3.483 -13.229   2.886  0.00  0.00    -0.466 OA
ENDBRANCH  17  18
ENDBRANCH  15  17
ENDBRANCH   6  13
ENDBRANCH   3   5
BRANCH   1  25
ATOM     23  C   UNL     1       0.060  -4.260  -0.033  0.00  0.00    +0.097 A 
ATOM     24  C   UNL     1       0.070  -5.081  -1.175  0.00  0.00    +0.062 A 
ATOM     25  C   UNL     1       0.087  -6.376  -0.692  0.00  0.00    +0.121 A 
ATOM     26  N   UNL     1       0.087  -6.281   0.671  0.00  0.00    -0.272 N 
ATOM     27  H   UNL     1       0.097  -7.035   1.282  0.00  0.00    +0.189 HD
ATOM     28  N   UNL     1       0.076  -5.046   1.023  0.00  0.00    -0.173 NA
BRANCH  23  33
ATOM     29  C   UNL     1      -0.018   1.503   0.010  0.00  0.00    +0.044 C 
ATOM     30  C   UNL     1       0.002  -0.004   0.002  0.00  0.00    -0.044 A 
ATOM     31  C   UNL     1       0.006  -0.686  -1.202  0.00  0.00    +0.004 A 
ATOM     32  C   UNL     1       0.024  -2.066  -1.219  0.00  0.00    +0.014 A 
ATOM     33  C   UNL     1       0.040  -2.776  -0.020  0.00  0.00    +0.044 A 
ATOM     34  C   UNL     1       0.037  -2.084   1.194  0.00  0.00    +0.129 A 
ATOM     35  C   UNL     1       0.023  -0.698   1.197  0.00  0.00    -0.005 A 
ATOM     36  C   UNL     1       0.025   0.052   2.504  0.00  0.00    +0.048 C 
BRANCH  34  37
ATOM     37  O   UNL     1       0.052  -2.768   2.368  0.00  0.00    -0.506 OA
ATOM     38  H   UNL     1       0.940  -2.954   2.703  0.00  0.00    +0.292 HD
ENDBRANCH  34  37
ENDBRANCH  23  33
ENDBRANCH   1  25
TORSDOF 7
