REMARK  Name = ZINC09337341
REMARK  7 active torsions:
REMARK  status: ('A' for Active; 'I' for Inactive)
REMARK    1  A    between atoms: C_1  and  C_2
REMARK    2  A    between atoms: C_2  and  C_4
REMARK    3  A    between atoms: C_2  and  N_22
REMARK    4  A    between atoms: N_6  and  C_7
REMARK    5  A    between atoms: C_7  and  C_8
REMARK    6  A    between atoms: C_8  and  C_10
REMARK    7  A    between atoms: C_8  and  N_59
REMARK                            x       y       z     vdW  Elec       q    Type
REMARK                         _______ _______ _______ _____ _____    ______ ____
ROOT
ATOM      1  C   UNL     1      -3.018   1.500  -3.437  0.00  0.00    +0.234 C 
ATOM      2  O   UNL     1      -1.958   0.986  -3.724  0.00  0.00    -0.274 OA
ATOM      3  N   UNL     1      -4.160   1.049  -3.993  0.00  0.00    -0.315 N 
ATOM      4  H   UNL     1      -5.007   1.461  -3.763  0.00  0.00    +0.149 HD
ENDROOT
BRANCH   1   6
ATOM      5  C   UNL     1      -3.651   3.880  -3.138  0.00  0.00    +0.038 C 
ATOM      6  C   UNL     1      -3.058   2.644  -2.456  0.00  0.00    +0.167 C 
BRANCH   6   7
ATOM      7  N   UNL     1      -1.699   2.944  -1.999  0.00  0.00    -0.230 N 
ATOM      8  C   UNL     1      -1.327   2.873  -0.707  0.00  0.00    +0.227 C 
ATOM      9  O   UNL     1      -1.962   2.377   0.199  0.00  0.00    -0.275 OA
ATOM     10  C   UNL     1       0.055   3.539  -0.594  0.00  0.00    +0.091 C 
ATOM     11  C   UNL     1      -0.257   5.023  -0.381  0.00  0.00    +0.040 C 
ATOM     12  C   UNL     1       0.729   5.932  -1.029  0.00  0.00    -0.030 C 
ATOM     13  C   UNL     1       1.555   5.585  -1.959  0.00  0.00    -0.030 C 
ATOM     14  C   UNL     1       1.662   4.187  -2.481  0.00  0.00    +0.040 C 
ATOM     15  C   UNL     1       0.560   3.289  -2.025  0.00  0.00    +0.091 C 
ATOM     16  C   UNL     1      -0.712   3.313  -2.824  0.00  0.00    +0.227 C 
ATOM     17  O   UNL     1      -0.829   3.606  -3.995  0.00  0.00    -0.275 OA
ENDBRANCH   6   7
ENDBRANCH   1   6
BRANCH   3  18
ATOM     18  C   UNL     1      -4.120  -0.063  -4.946  0.00  0.00    +0.093 C 
BRANCH  18  19
ATOM     19  C   UNL     1      -5.540  -0.376  -5.423  0.00  0.00    -0.020 C 
BRANCH  19  20
ATOM     20  C   UNL     1      -5.515  -1.596  -6.307  0.00  0.00    -0.059 A 
ATOM     21  C   UNL     1      -4.851  -2.736  -5.893  0.00  0.00    +0.005 A 
ATOM     22  C   UNL     1      -4.832  -3.857  -6.700  0.00  0.00    +0.038 A 
ATOM     23  C   UNL     1      -5.469  -3.836  -7.929  0.00  0.00    +0.123 A 
ATOM     24  C   UNL     1      -6.129  -2.692  -8.345  0.00  0.00    +0.038 A 
ATOM     25  C   UNL     1      -6.151  -1.573  -7.534  0.00  0.00    +0.005 A 
ATOM     26  F   UNL     1      -5.446  -4.929  -8.722  0.00  0.00    -0.205 F 
ENDBRANCH  19  20
BRANCH  19  32
ATOM     27  C   UNL     1      -5.933  -1.797  -3.501  0.00  0.00    -0.049 C 
ATOM     28  C   UNL     1      -6.822  -1.989  -2.270  0.00  0.00    +0.141 C 
ATOM     29  O   UNL     1      -8.183  -2.127  -2.688  0.00  0.00    -0.383 OA
ATOM     30  C   UNL     1      -8.673  -1.008  -3.431  0.00  0.00    +0.141 C 
ATOM     31  C   UNL     1      -7.803  -0.806  -4.674  0.00  0.00    -0.049 C 
ATOM     32  N   UNL     1      -6.402  -0.609  -4.245  0.00  0.00    +0.388 N 
ATOM     33  H   UNL     1      -6.354   0.211  -3.629  0.00  0.00    -0.081 HD
ENDBRANCH  19  32
ENDBRANCH  18  19
ENDBRANCH   3  18
TORSDOF 6
