REMARK  Name = ZINC67119346
REMARK  5 active torsions:
REMARK  status: ('A' for Active; 'I' for Inactive)
REMARK    1  A    between atoms: C_1  and  C_2
REMARK    2  A    between atoms: C_2  and  C_4
REMARK    3  A    between atoms: C_2  and  N_16
REMARK    4  A    between atoms: C_10  and  C_13
REMARK    5  A    between atoms: C_20  and  C_23
REMARK                            x       y       z     vdW  Elec       q    Type
REMARK                         _______ _______ _______ _____ _____    ______ ____
ROOT
ATOM      1  N   UNL     1       0.874  -0.702  -1.186  0.00  0.00    +0.388 N 
ATOM      2  C   UNL     1      -0.073   0.006  -2.055  0.00  0.00    -0.078 C 
ATOM      3  C   UNL     1       0.277  -0.258  -3.521  0.00  0.00    -0.018 C 
ATOM      4  C   UNL     1       0.198  -1.763  -3.796  0.00  0.00    +0.009 C 
ATOM      5  C   UNL     1       1.136  -2.498  -2.833  0.00  0.00    +0.059 C 
ATOM      6  C   UNL     1       0.753  -2.151  -1.393  0.00  0.00    -0.065 C 
ATOM      7  H   UNL     1       1.814  -0.409  -1.407  0.00  0.00    -0.081 HD
ENDROOT
BRANCH   5   8
ATOM      8  C   UNL     1       1.009  -3.984  -3.044  0.00  0.00    +0.217 C 
ATOM      9  O   UNL     1       0.368  -4.655  -2.263  0.00  0.00    -0.275 OA
ATOM     10  N   UNL     1       1.608  -4.569  -4.101  0.00  0.00    -0.301 N 
ATOM     11  C   UNL     1       1.382  -5.977  -4.334  0.00  0.00    +0.108 C 
ATOM     12  C   UNL     1       2.443  -6.807  -3.570  0.00  0.00    +0.019 C 
ATOM     13  C   UNL     1       3.761  -6.661  -4.206  0.00  0.00    +0.002 C 
ATOM     14  C   UNL     1       4.312  -5.239  -4.191  0.00  0.00    +0.002 C 
ATOM     15  C   UNL     1       3.762  -4.476  -5.371  0.00  0.00    +0.019 C 
ATOM     16  C   UNL     1       2.464  -3.742  -4.975  0.00  0.00    +0.108 C 
ENDBRANCH   5   8
BRANCH   1  18
ATOM     17  C   UNL     1       0.708   1.126   0.435  0.00  0.00    -0.004 C 
ATOM     18  C   UNL     1       0.581  -0.384   0.218  0.00  0.00    +0.016 C 
BRANCH  18  19
ATOM     19  C   UNL     1       1.559  -1.103   1.111  0.00  0.00    +0.202 C 
ATOM     20  O   UNL     1       2.651  -1.416   0.687  0.00  0.00    -0.277 OA
ATOM     21  N   UNL     1       1.219  -1.400   2.381  0.00  0.00    -0.302 N 
ATOM     22  C   UNL     1      -0.059  -0.939   2.941  0.00  0.00    +0.108 C 
ATOM     23  C   UNL     1      -0.811  -2.146   3.511  0.00  0.00    +0.020 C 
ATOM     24  C   UNL     1       0.087  -2.876   4.511  0.00  0.00    +0.016 C 
ATOM     25  C   UNL     1       1.343  -3.383   3.798  0.00  0.00    +0.092 C 
ATOM     26  C   UNL     1       2.117  -2.195   3.230  0.00  0.00    +0.120 C 
BRANCH  25  27
ATOM     27  C   UNL     1       2.211  -4.130   4.777  0.00  0.00    +0.215 C 
ATOM     28  O   UNL     1       3.341  -3.749   4.999  0.00  0.00    -0.276 OA
ATOM     29  N   UNL     1       1.732  -5.222   5.406  0.00  0.00    -0.329 N 
ATOM     30  H   UNL     1       0.829  -5.526   5.228  0.00  0.00    +0.145 HD
ATOM     31  H   UNL     1       2.291  -5.703   6.036  0.00  0.00    +0.145 HD
ENDBRANCH  25  27
ENDBRANCH  18  19
ENDBRANCH   1  18
TORSDOF 4
