REMARK  Name = ZINC20976334
REMARK  8 active torsions:
REMARK  status: ('A' for Active; 'I' for Inactive)
REMARK    1  A    between atoms: C_4  and  N_31
REMARK    2  A    between atoms: C_6  and  C_7
REMARK    3  A    between atoms: N_9  and  C_10
REMARK    4  A    between atoms: C_10  and  C_11
REMARK    5  A    between atoms: C_11  and  O_13
REMARK    6  A    between atoms: O_13  and  C_14
REMARK    7  A    between atoms: C_14  and  C_15
REMARK    8  A    between atoms: N_20  and  C_21
REMARK                            x       y       z     vdW  Elec       q    Type
REMARK                         _______ _______ _______ _____ _____    ______ ____
ROOT
ATOM      1  C   UNL     1       5.864   2.765  -0.039  0.00  0.00    +0.328 C 
ENDROOT
BRANCH   1   2
ATOM      2  C   UNL     1       7.216   2.099  -0.056  0.00  0.00    +0.258 C 
ATOM      3  O   UNL     1       7.296   0.889  -0.063  0.00  0.00    -0.272 OA
ATOM      4  N   UNL     1       8.336   2.848  -0.062  0.00  0.00    -0.237 N 
ATOM      5  C   UNL     1       9.546   2.253  -0.077  0.00  0.00    +0.306 C 
ATOM      6  O   UNL     1       9.626   1.040  -0.084  0.00  0.00    -0.252 OA
ATOM      7  N   UNL     1      10.666   3.002  -0.084  0.00  0.00    -0.294 N 
ATOM      8  H   UNL     1       8.264   3.946  -0.056  0.00  0.00    +0.159 HD
ATOM      9  H   UNL     1      10.593   4.100  -0.077  0.00  0.00    +0.151 HD
BRANCH   7  10
ATOM     10  C   UNL     1      11.980   2.355  -0.100  0.00  0.00    +0.037 C 
ATOM     11  C   UNL     1      12.131   1.476   1.143  0.00  0.00    +0.029 C 
ATOM     12  C   UNL     1      13.503   0.800   1.127  0.00  0.00    -0.008 C 
ATOM     13  C   UNL     1      14.598   1.869   1.122  0.00  0.00    +0.007 C 
ATOM     14  C   UNL     1      14.447   2.748  -0.121  0.00  0.00    -0.008 C 
ATOM     15  C   UNL     1      13.075   3.424  -0.104  0.00  0.00    +0.029 C 
ATOM     16  C   UNL     1      14.574   1.882  -1.376  0.00  0.00    +0.007 C 
ATOM     17  C   UNL     1      13.479   0.813  -1.372  0.00  0.00    -0.008 C 
ATOM     18  C   UNL     1      13.630  -0.066  -0.128  0.00  0.00    +0.007 C 
ATOM     19  C   UNL     1      12.107   1.489  -1.355  0.00  0.00    +0.029 C 
ENDBRANCH   7  10
ENDBRANCH   1   2
BRANCH   1  20
ATOM     20  O   UNL     1       4.825   1.751  -0.035  0.00  0.00    -0.454 OA
BRANCH  20  21
ATOM     21  C   UNL     1       3.554   2.181  -0.020  0.00  0.00    +0.325 C 
ATOM     22  O   UNL     1       3.317   3.365  -0.011  0.00  0.00    -0.249 OA
BRANCH  21  23
ATOM     23  C   UNL     1       2.422   1.186  -0.015  0.00  0.00    +0.225 C 
BRANCH  23  26
ATOM     24  C   UNL     1      -0.014   1.211   0.009  0.00  0.00    +0.245 C 
ATOM     25  O   UNL     1       0.002  -0.004   0.002  0.00  0.00    -0.270 OA
ATOM     26  N   UNL     1       1.143   1.901   0.001  0.00  0.00    -0.301 N 
ATOM     27  H   UNL     1       1.129   3.001   0.007  0.00  0.00    +0.150 HD
BRANCH  24  33
ATOM     28  C   UNL     1      -1.326   3.329   0.032  0.00  0.00    +0.014 A 
ATOM     29  C   UNL     1      -2.533   3.996   0.035  0.00  0.00    +0.023 A 
ATOM     30  C   UNL     1      -3.721   3.285   0.037  0.00  0.00    +0.071 A 
ATOM     31  C   UNL     1      -3.706   1.900   0.030  0.00  0.00    +0.145 A 
ATOM     32  C   UNL     1      -2.506   1.221   0.021  0.00  0.00    +0.047 A 
ATOM     33  C   UNL     1      -1.304   1.933   0.019  0.00  0.00    +0.039 A 
ATOM     34 CL   UNL     1      -5.236   4.132   0.048  0.00  0.00    -0.081 Cl
BRANCH  31  35
ATOM     35  N   UNL     1      -4.980   1.147   0.032  0.00  0.00    +0.058 N 
ATOM     36  O   UNL     1      -4.968  -0.071   0.025  0.00  0.00    -0.126 OA
ATOM     37  O   UNL     1      -6.041   1.745   0.040  0.00  0.00    -0.126 OA
ENDBRANCH  31  35
ENDBRANCH  24  33
ENDBRANCH  23  26
ENDBRANCH  21  23
ENDBRANCH  20  21
ENDBRANCH   1  20
TORSDOF 8
