REMARK  Name = ZINC63809499
REMARK  5 active torsions:
REMARK  status: ('A' for Active; 'I' for Inactive)
REMARK    1  A    between atoms: C_1  and  N_2
REMARK    2  A    between atoms: C_6  and  C_7
REMARK    3  A    between atoms: C_7  and  C_8
REMARK    4  A    between atoms: C_7  and  N_14
REMARK    5  A    between atoms: C_15  and  C_17
REMARK                            x       y       z     vdW  Elec       q    Type
REMARK                         _______ _______ _______ _____ _____    ______ ____
ROOT
ATOM      1  N   UNL     1       1.024  -1.123   3.273  0.00  0.00    -0.298 N 
ATOM      2  C   UNL     1       2.315  -0.733   3.278  0.00  0.00    +0.245 C 
ATOM      3  O   UNL     1       2.653   0.256   2.659  0.00  0.00    -0.270 OA
ATOM      4  H   UNL     1       0.754  -1.913   3.768  0.00  0.00    +0.150 HD
ENDROOT
BRANCH   2   5
ATOM      5  C   UNL     1       3.320  -1.511   4.039  0.00  0.00    +0.039 A 
ATOM      6  C   UNL     1       2.923  -2.655   4.747  0.00  0.00    +0.014 A 
ATOM      7  C   UNL     1       3.829  -3.387   5.454  0.00  0.00    +0.016 A 
ATOM      8  C   UNL     1       5.175  -2.997   5.479  0.00  0.00    +0.065 A 
ATOM      9  C   UNL     1       5.591  -1.841   4.766  0.00  0.00    +0.080 A 
ATOM     10  C   UNL     1       4.644  -1.104   4.040  0.00  0.00    +0.041 A 
ATOM     11  N   UNL     1       6.882  -1.482   4.800  0.00  0.00    -0.223 NA
ATOM     12  C   UNL     1       7.764  -2.192   5.486  0.00  0.00    +0.180 A 
ATOM     13  N   UNL     1       7.423  -3.293   6.176  0.00  0.00    -0.301 N 
ATOM     14  H   UNL     1       8.103  -3.782   6.664  0.00  0.00    +0.171 HD
ATOM     15  C   UNL     1       6.144  -3.728   6.199  0.00  0.00    +0.260 A 
ATOM     16  O   UNL     1       5.803  -4.830   6.889  0.00  0.00    -0.267 OA
ATOM     17  S   UNL     1       9.401  -1.689   5.494  0.00  0.00    -0.011 S 
ENDBRANCH   2   5
BRANCH   1  18
ATOM     18  C   UNL     1       0.030  -0.354   2.521  0.00  0.00    +0.170 C 
BRANCH  18  24
ATOM     19  C   UNL     1      -0.018   1.461   0.010  0.00  0.00    +0.150 C 
ATOM     20  N   UNL     1       0.002  -0.004   0.002  0.00  0.00    -0.336 N 
ATOM     21  C   UNL     1       0.009  -0.810  -1.104  0.00  0.00    +0.106 A 
ATOM     22  C   UNL     1       0.029  -2.081  -0.660  0.00  0.00    +0.130 A 
ATOM     23  N   UNL     1       0.034  -2.052   0.681  0.00  0.00    -0.238 NA
ATOM     24  C   UNL     1       0.023  -0.811   1.085  0.00  0.00    +0.134 A 
ENDBRANCH  18  24
BRANCH  18  25
ATOM     25  C   UNL     1      -1.334  -0.572   3.123  0.00  0.00    -0.020 A 
ATOM     26  C   UNL     1      -1.702  -1.829   3.566  0.00  0.00    +0.006 A 
ATOM     27  C   UNL     1      -2.953  -2.028   4.119  0.00  0.00    +0.000 A 
ATOM     28  C   UNL     1      -3.836  -0.971   4.229  0.00  0.00    +0.000 A 
ATOM     29  C   UNL     1      -3.469   0.286   3.787  0.00  0.00    +0.000 A 
ATOM     30  C   UNL     1      -2.216   0.486   3.238  0.00  0.00    +0.006 A 
ENDBRANCH  18  25
ENDBRANCH   1  18
TORSDOF 4
