REMARK  Name = ZINC13361421
REMARK  5 active torsions:
REMARK  status: ('A' for Active; 'I' for Inactive)
REMARK    1  A    between atoms: C_8  and  C_22
REMARK    2  A    between atoms: C_12  and  C_17
REMARK    3  A    between atoms: C_25  and  O_28
REMARK    4  A    between atoms: O_28  and  C_29
REMARK    5  A    between atoms: C_29  and  C_30
REMARK                            x       y       z     vdW  Elec       q    Type
REMARK                         _______ _______ _______ _____ _____    ______ ____
ROOT
ATOM      1  C   UNL     1      -0.041   1.549  -0.019  0.00  0.00    +0.001 A 
ATOM      2  C   UNL     1       0.016   0.162  -0.041  0.00  0.00    +0.002 A 
ATOM      3  C   UNL     1      -1.140  -0.587  -0.034  0.00  0.00    +0.026 A 
ATOM      4  C   UNL     1      -2.377   0.048  -0.004  0.00  0.00    +0.047 A 
ATOM      5  N   UNL     1      -3.677  -0.411   0.010  0.00  0.00    -0.356 N 
ATOM      6  C   UNL     1      -4.542   0.643   0.040  0.00  0.00    +0.043 A 
ATOM      7  H   UNL     1      -3.938  -1.346  -0.001  0.00  0.00    +0.166 HD
ATOM      8  C   UNL     1      -6.052   0.593   0.067  0.00  0.00    +0.131 C 
ATOM      9  N   UNL     1      -6.553   1.908   0.500  0.00  0.00    -0.304 NA
ATOM     10  C   UNL     1      -5.967   2.996  -0.296  0.00  0.00    +0.095 C 
ATOM     11  C   UNL     1      -4.487   3.162   0.077  0.00  0.00    +0.072 C 
ATOM     12  C   UNL     1      -3.846   1.798   0.047  0.00  0.00    -0.008 A 
ATOM     13  C   UNL     1      -2.430   1.456   0.019  0.00  0.00    +0.004 A 
ATOM     14  C   UNL     1      -1.245   2.194   0.016  0.00  0.00    +0.010 A 
ATOM     15  H   UNL     1      -7.561   1.939   0.468  0.00  0.00    +0.123 HD
ENDROOT
BRANCH   8  16
ATOM     16  C   UNL     1      -6.574   0.279  -1.312  0.00  0.00    -0.024 A 
ATOM     17  C   UNL     1      -5.755  -0.346  -2.233  0.00  0.00    +0.009 A 
ATOM     18  C   UNL     1      -6.231  -0.635  -3.498  0.00  0.00    +0.046 A 
ATOM     19  C   UNL     1      -7.531  -0.296  -3.843  0.00  0.00    +0.121 A 
ATOM     20  C   UNL     1      -8.351   0.331  -2.916  0.00  0.00    +0.046 A 
ATOM     21  C   UNL     1      -7.872   0.613  -1.651  0.00  0.00    +0.009 A 
BRANCH  19  22
ATOM     22  O   UNL     1      -8.001  -0.579  -5.086  0.00  0.00    -0.481 OA
BRANCH  22  23
ATOM     23  C   UNL     1      -9.350  -0.201  -5.371  0.00  0.00    +0.353 C 
BRANCH  23  24
ATOM     24  C   UNL     1      -9.692  -0.591  -6.786  0.00  0.00    +0.393 C 
ATOM     25  O   UNL     1      -8.859  -1.141  -7.486  0.00  0.00    -0.243 OA
ATOM     26  O   UNL     1     -10.803  -0.356  -7.231  0.00  0.00    -0.243 OA
ENDBRANCH  23  24
ENDBRANCH  22  23
ENDBRANCH  19  22
ENDBRANCH   8  16
BRANCH  11  27
ATOM     27  C   UNL     1      -3.809   4.068  -0.919  0.00  0.00    -0.002 A 
ATOM     28  C   UNL     1      -3.177   5.248  -0.707  0.00  0.00    +0.012 A 
ATOM     29  C   UNL     1      -2.620   5.913  -1.783  0.00  0.00    +0.008 A 
ATOM     30  C   UNL     1      -2.723   5.365  -3.019  0.00  0.00    +0.045 A 
ATOM     31  S   UNL     1      -3.623   3.861  -2.682  0.00  0.00    -0.101 S 
ENDBRANCH  11  27
TORSDOF 5
