REMARK  Name = ZINC01080044
REMARK  8 active torsions:
REMARK  status: ('A' for Active; 'I' for Inactive)
REMARK    1  A    between atoms: C_1  and  C_2
REMARK    2  A    between atoms: C_2  and  C_29
REMARK    3  A    between atoms: C_6  and  C_17
REMARK    4  A    between atoms: C_8  and  C_15
REMARK    5  A    between atoms: C_9  and  N_14
REMARK    6  A    between atoms: N_10  and  N_11
REMARK    7  A    between atoms: N_11  and  C_12
REMARK    8  A    between atoms: N_11  and  C_13
REMARK                            x       y       z     vdW  Elec       q    Type
REMARK                         _______ _______ _______ _____ _____    ______ ____
ROOT
ATOM      1  C   UNL     1       1.166   0.396  -2.473  0.00  0.00    +0.011 C 
ATOM      2  C   UNL     1       0.882  -0.881  -1.680  0.00  0.00    -0.023 C 
ATOM      3  C   UNL     1      -0.629  -1.064  -1.523  0.00  0.00    +0.059 C 
ATOM      4  C   UNL     1      -0.907  -2.297  -0.699  0.00  0.00    +0.037 C 
ATOM      5  C   UNL     1      -0.047  -2.700   0.261  0.00  0.00    +0.026 C 
ATOM      6  C   UNL     1      -0.333  -3.924   1.093  0.00  0.00    +0.098 C 
ATOM      7  C   UNL     1      -1.365  -4.795   0.438  0.00  0.00    +0.078 C 
ATOM      8  C   UNL     1      -2.174  -4.309  -0.540  0.00  0.00    +0.117 C 
ATOM      9  N   UNL     1      -2.052  -3.003  -0.950  0.00  0.00    -0.223 N 
ATOM     10  C   UNL     1       1.141  -1.992   0.513  0.00  0.00    +0.162 C 
ATOM     11  O   UNL     1       1.887  -2.374   1.392  0.00  0.00    -0.292 OA
ATOM     12  C   UNL     1       1.505  -0.770  -0.285  0.00  0.00    +0.086 C 
ATOM     13  C   UNL     1       1.477  -2.085  -2.414  0.00  0.00    +0.011 C 
ENDROOT
BRANCH   6  14
ATOM     14  C   UNL     1      -0.838  -3.496   2.447  0.00  0.00    -0.031 A 
ATOM     15  C   UNL     1      -1.995  -2.746   2.546  0.00  0.00    +0.008 A 
ATOM     16  C   UNL     1      -2.462  -2.351   3.785  0.00  0.00    +0.050 A 
ATOM     17  C   UNL     1      -1.771  -2.705   4.932  0.00  0.00    +0.166 A 
ATOM     18  C   UNL     1      -0.605  -3.461   4.833  0.00  0.00    +0.167 A 
ATOM     19  C   UNL     1      -0.146  -3.858   3.587  0.00  0.00    +0.054 A 
ATOM     20  O   UNL     1      -0.117  -3.676   6.089  0.00  0.00    -0.453 OA
ATOM     21  C   UNL     1      -0.767  -2.703   6.927  0.00  0.00    +0.466 C 
ATOM     22  O   UNL     1      -2.013  -2.448   6.251  0.00  0.00    -0.453 OA
ENDBRANCH   6  14
BRANCH   9  23
ATOM     23  N   UNL     1      -3.084  -2.403  -1.615  0.00  0.00    -0.227 NA
ATOM     24  C   UNL     1      -3.286  -3.014  -2.935  0.00  0.00    +0.128 C 
ATOM     25  C   UNL     1      -4.319  -2.449  -0.820  0.00  0.00    +0.128 C 
ENDBRANCH   9  23
BRANCH   8  26
ATOM     26  N   UNL     1      -3.115  -5.125  -1.120  0.00  0.00    -0.344 N 
ATOM     27  H   UNL     1      -2.946  -6.077  -1.203  0.00  0.00    +0.144 HD
ATOM     28  H   UNL     1      -3.948  -4.750  -1.446  0.00  0.00    +0.144 HD
ENDBRANCH   8  26
BRANCH   7  29
ATOM     29  C   UNL     1      -1.498  -6.160   0.848  0.00  0.00    +0.099 C 
ATOM     30  N   UNL     1      -1.604  -7.243   1.174  0.00  0.00    -0.191 NA
ENDBRANCH   7  29
TORSDOF 4
