REMARK  Name = ZINC15967759
REMARK  5 active torsions:
REMARK  status: ('A' for Active; 'I' for Inactive)
REMARK    1  A    between atoms: C_1  and  C_2
REMARK    2  A    between atoms: C_17  and  C_20
REMARK    3  A    between atoms: C_20  and  C_21
REMARK    4  A    between atoms: N_26  and  C_29
REMARK    5  A    between atoms: C_29  and  C_30
REMARK                            x       y       z     vdW  Elec       q    Type
REMARK                         _______ _______ _______ _____ _____    ______ ____
ROOT
ATOM      1  C   UNL     1      -0.018   1.503   0.010  0.00  0.00    +0.044 C 
ATOM      2  C   UNL     1       0.002  -0.004   0.002  0.00  0.00    -0.049 A 
ATOM      3  C   UNL     1       0.006  -0.691  -1.199  0.00  0.00    +0.011 A 
ATOM      4  C   UNL     1       0.024  -2.068  -1.207  0.00  0.00    +0.005 A 
ATOM      5  C   UNL     1       0.040  -2.783  -0.013  0.00  0.00    +0.057 A 
ATOM      6  C   UNL     1       0.036  -2.084   1.193  0.00  0.00    +0.063 A 
ATOM      7  C   UNL     1       0.023  -0.703   1.195  0.00  0.00    +0.025 A 
ATOM      8 CL   UNL     1       0.054  -2.951   2.696  0.00  0.00    -0.082 Cl
ATOM      9  N   UNL     1       0.059  -4.155  -0.272  0.00  0.00    -0.282 N 
ATOM     10  C   UNL     1       0.058  -4.423  -1.593  0.00  0.00    +0.243 C 
ATOM     11  O   UNL     1       0.075  -5.520  -2.110  0.00  0.00    -0.273 OA
ATOM     12  C   UNL     1       0.032  -3.096  -2.302  0.00  0.00    +0.136 C 
ATOM     13  C   UNL     1       1.246  -2.928  -3.223  0.00  0.00    +0.122 C 
ATOM     14  C   UNL     1       0.717  -3.294  -4.638  0.00  0.00    +0.107 C 
ATOM     15  C   UNL     1      -0.769  -3.655  -4.424  0.00  0.00    +0.076 C 
ATOM     16  N   UNL     1      -1.155  -2.973  -3.168  0.00  0.00    -0.295 NA
ATOM     17  C   UNL     1       1.499  -4.540  -4.990  0.00  0.00    +0.227 C 
ATOM     18  O   UNL     1       1.397  -5.162  -6.026  0.00  0.00    -0.275 OA
ATOM     19  N   UNL     1       2.321  -4.849  -3.981  0.00  0.00    -0.237 N 
ATOM     20  C   UNL     1       2.267  -4.003  -2.927  0.00  0.00    +0.229 C 
ATOM     21  O   UNL     1       2.922  -4.086  -1.911  0.00  0.00    -0.275 OA
ATOM     22  H   UNL     1       0.072  -4.837   0.418  0.00  0.00    +0.155 HD
ATOM     23  H   UNL     1      -1.959  -3.413  -2.745  0.00  0.00    +0.124 HD
ENDROOT
BRANCH  15  24
ATOM     24  C   UNL     1      -1.612  -3.159  -5.601  0.00  0.00    +0.115 C 
BRANCH  24  25
ATOM     25  C   UNL     1      -3.034  -3.627  -5.432  0.00  0.00    +0.212 C 
ATOM     26  O   UNL     1      -3.343  -4.291  -4.466  0.00  0.00    -0.276 OA
ATOM     27  N   UNL     1      -3.963  -3.308  -6.355  0.00  0.00    -0.329 N 
ATOM     28  H   UNL     1      -3.716  -2.776  -7.128  0.00  0.00    +0.145 HD
ATOM     29  H   UNL     1      -4.878  -3.609  -6.247  0.00  0.00    +0.145 HD
ENDBRANCH  24  25
ENDBRANCH  15  24
BRANCH  19  30
ATOM     30  C   UNL     1       3.216  -6.009  -4.015  0.00  0.00    +0.151 C 
BRANCH  30  31
ATOM     31  C   UNL     1       4.540  -5.605  -4.609  0.00  0.00    -0.026 A 
ATOM     32  C   UNL     1       4.740  -5.695  -5.974  0.00  0.00    +0.009 A 
ATOM     33  C   UNL     1       5.953  -5.325  -6.524  0.00  0.00    +0.050 A 
ATOM     34  C   UNL     1       6.972  -4.863  -5.708  0.00  0.00    +0.166 A 
ATOM     35  C   UNL     1       6.771  -4.772  -4.333  0.00  0.00    +0.167 A 
ATOM     36  C   UNL     1       5.551  -5.139  -3.789  0.00  0.00    +0.054 A 
ATOM     37  O   UNL     1       7.912  -4.295  -3.756  0.00  0.00    -0.453 OA
ATOM     38  C   UNL     1       8.947  -4.481  -4.739  0.00  0.00    +0.466 C 
ATOM     39  O   UNL     1       8.239  -4.442  -5.992  0.00  0.00    -0.453 OA
ENDBRANCH  30  31
ENDBRANCH  19  30
TORSDOF 4
