REMARK  Name = ZINC01239268
REMARK  7 active torsions:
REMARK  status: ('A' for Active; 'I' for Inactive)
REMARK    1  A    between atoms: C_1  and  C_2
REMARK    2  A    between atoms: C_2  and  C_3
REMARK    3  A    between atoms: C_3  and  C_21
REMARK    4  A    between atoms: C_8  and  N_12
REMARK    5  A    between atoms: C_9  and  C_10
REMARK    6  A    between atoms: C_13  and  C_15
REMARK    7  A    between atoms: C_15  and  C_17
REMARK                            x       y       z     vdW  Elec       q    Type
REMARK                         _______ _______ _______ _____ _____    ______ ____
ROOT
ATOM      1  C   UNL     1       3.597   2.693   0.421  0.00  0.00    +0.071 C 
ATOM      2  C   UNL     1       2.614   1.600  -0.012  0.00  0.00    +0.072 C 
ATOM      3  C   UNL     1       1.211   2.197   0.002  0.00  0.00    -0.013 A 
ATOM      4  C   UNL     1       1.052   3.541   0.010  0.00  0.00    +0.022 A 
ATOM      5  S   UNL     1      -0.699   3.787   0.028  0.00  0.00    -0.075 S 
ATOM      6  C   UNL     1      -1.214   2.132   0.019  0.00  0.00    +0.090 A 
ATOM      7  C   UNL     1      -0.017   1.428   0.010  0.00  0.00    +0.084 A 
ATOM      8  C   UNL     1       2.149   4.559   0.003  0.00  0.00    +0.203 C 
ATOM      9  O   UNL     1       3.372   3.886  -0.335  0.00  0.00    -0.368 OA
ATOM     10  C   UNL     1       3.399   2.993   1.908  0.00  0.00    +0.042 C 
ENDROOT
BRANCH   6  11
ATOM     11  N   UNL     1      -2.508   1.632   0.023  0.00  0.00    -0.278 N 
ATOM     12  C   UNL     1      -3.558   2.478   0.032  0.00  0.00    +0.231 C 
ATOM     13  O   UNL     1      -3.370   3.676   0.037  0.00  0.00    -0.274 OA
ATOM     14  H   UNL     1      -2.658   0.674   0.019  0.00  0.00    +0.155 HD
BRANCH  12  15
ATOM     15  C   UNL     1      -4.963   1.935   0.036  0.00  0.00    +0.139 C 
ATOM     16  C   UNL     1      -5.801   2.698   1.064  0.00  0.00    +0.029 C 
ATOM     17 BR   UNL     1      -5.756   2.155  -1.749  0.00  0.00    -0.079 Br
ENDBRANCH  12  15
ENDBRANCH   6  11
BRANCH   1  19
ATOM     18  C   UNL     1       6.014   3.243   0.733  0.00  0.00    +0.007 C 
ATOM     19  C   UNL     1       5.029   2.207   0.188  0.00  0.00    +0.032 C 
ENDBRANCH   1  19
BRANCH   7  20
ATOM     20  C   UNL     1       0.002  -0.004   0.002  0.00  0.00    +0.102 C 
ATOM     21  N   UNL     1       0.018  -1.140  -0.004  0.00  0.00    -0.191 NA
ENDBRANCH   7  20
TORSDOF 4
