REMARK  Name = ZINC03593363
REMARK  7 active torsions:
REMARK  status: ('A' for Active; 'I' for Inactive)
REMARK    1  A    between atoms: C_1  and  C_2
REMARK    2  A    between atoms: C_2  and  C_4
REMARK    3  A    between atoms: C_2  and  N_10
REMARK    4  A    between atoms: C_11  and  C_13
REMARK    5  A    between atoms: C_13  and  N_14
REMARK    6  A    between atoms: C_17  and  C_21
REMARK    7  A    between atoms: C_17  and  C_22
REMARK                            x       y       z     vdW  Elec       q    Type
REMARK                         _______ _______ _______ _____ _____    ______ ____
ROOT
ATOM      1  N   UNL     1      -3.608   1.789   0.029  0.00  0.00    -0.215 N 
ATOM      2  C   UNL     1      -4.189   2.263   1.149  0.00  0.00    +0.251 C 
ATOM      3  O   UNL     1      -3.888   2.005   2.295  0.00  0.00    -0.272 OA
ATOM      4  C   UNL     1      -5.293   3.188   0.679  0.00  0.00    +0.135 C 
ATOM      5  N   UNL     1      -5.204   3.116  -0.790  0.00  0.00    -0.281 N 
ATOM      6  C   UNL     1      -4.192   2.276  -1.073  0.00  0.00    +0.310 C 
ATOM      7  O   UNL     1      -3.846   1.990  -2.202  0.00  0.00    -0.252 OA
ATOM      8  C   UNL     1      -6.655   2.683   1.160  0.00  0.00    +0.047 C 
ATOM      9  H   UNL     1      -5.765   3.583  -1.429  0.00  0.00    +0.152 HD
ENDROOT
BRANCH   4  10
ATOM     10  C   UNL     1      -5.050   4.597   1.156  0.00  0.00    -0.014 A 
ATOM     11  C   UNL     1      -4.461   4.818   2.387  0.00  0.00    +0.006 A 
ATOM     12  C   UNL     1      -4.232   6.109   2.822  0.00  0.00    +0.001 A 
ATOM     13  C   UNL     1      -4.603   7.181   2.033  0.00  0.00    +0.015 A 
ATOM     14  C   UNL     1      -5.198   6.961   0.803  0.00  0.00    +0.018 A 
ATOM     15  C   UNL     1      -5.422   5.668   0.365  0.00  0.00    +0.021 A 
ATOM     16 BR   UNL     1      -5.707   8.427  -0.277  0.00  0.00    -0.050 Br
ENDBRANCH   4  10
BRANCH   1  17
ATOM     17  C   UNL     1      -2.482   0.853   0.018  0.00  0.00    +0.213 C 
BRANCH  17  19
ATOM     18  N   UNL     1      -0.011   0.966   0.007  0.00  0.00    -0.307 N 
ATOM     19  C   UNL     1      -1.187   1.624   0.017  0.00  0.00    +0.231 C 
ATOM     20  O   UNL     1      -1.204   2.837   0.023  0.00  0.00    -0.274 OA
ATOM     21  H   UNL     1       0.002  -0.004   0.002  0.00  0.00    +0.149 HD
BRANCH  18  23
ATOM     22  C   UNL     1       1.635   2.077   1.435  0.00  0.00    +0.033 C 
ATOM     23  C   UNL     1       1.248   1.716  -0.001  0.00  0.00    +0.100 C 
BRANCH  23  24
ATOM     24  C   UNL     1       2.332   0.870  -0.616  0.00  0.00    -0.027 A 
ATOM     25  C   UNL     1       2.404  -0.480  -0.327  0.00  0.00    +0.005 A 
ATOM     26  C   UNL     1       3.396  -1.257  -0.895  0.00  0.00    +0.000 A 
ATOM     27  C   UNL     1       4.323  -0.682  -1.744  0.00  0.00    +0.000 A 
ATOM     28  C   UNL     1       4.254   0.668  -2.030  0.00  0.00    +0.000 A 
ATOM     29  C   UNL     1       3.259   1.444  -1.466  0.00  0.00    +0.005 A 
ENDBRANCH  23  24
ENDBRANCH  18  23
ENDBRANCH  17  19
ENDBRANCH   1  17
TORSDOF 5
