REMARK  Name = ZINC25865512
REMARK  9 active torsions:
REMARK  status: ('A' for Active; 'I' for Inactive)
REMARK    1  A    between atoms: C_1  and  C_2
REMARK    2  A    between atoms: N_4  and  C_5
REMARK    3  A    between atoms: C_9  and  C_16
REMARK    4  A    between atoms: C_16  and  S_17
REMARK    5  A    between atoms: S_17  and  C_18
REMARK    6  A    between atoms: N_19  and  C_20
REMARK    7  A    between atoms: C_20  and  C_21
REMARK    8  A    between atoms: C_20  and  C_22
REMARK    9  A    between atoms: C_20  and  C_23
REMARK                            x       y       z     vdW  Elec       q    Type
REMARK                         _______ _______ _______ _____ _____    ______ ____
ROOT
ATOM      1  C   UNL     1      -1.286  -2.217  -0.579  0.00  0.00    +0.037 A 
ATOM      2  C   UNL     1      -0.038  -2.793  -0.340  0.00  0.00    +0.024 A 
ATOM      3  C   UNL     1       0.080  -4.144  -0.188  0.00  0.00    +0.013 A 
ATOM      4  C   UNL     1      -1.054  -4.958  -0.285  0.00  0.00    +0.022 A 
ATOM      5  C   UNL     1      -0.955  -6.411  -0.131  0.00  0.00    -0.020 A 
ATOM      6  C   UNL     1      -2.092  -7.147  -0.235  0.00  0.00    +0.097 A 
ATOM      7  C   UNL     1      -3.323  -6.504  -0.484  0.00  0.00    +0.338 A 
ATOM      8  O   UNL     1      -4.335  -7.176  -0.574  0.00  0.00    -0.245 OA
ATOM      9  O   UNL     1      -3.407  -5.172  -0.623  0.00  0.00    -0.422 OA
ATOM     10  C   UNL     1      -2.315  -4.383  -0.531  0.00  0.00    +0.141 A 
ATOM     11  C   UNL     1      -2.420  -3.008  -0.677  0.00  0.00    +0.070 A 
ENDROOT
BRANCH   1  15
ATOM     12  C   UNL     1      -2.557   1.315  -0.340  0.00  0.00    +0.109 C 
ATOM     13  C   UNL     1      -2.482  -0.189  -0.264  0.00  0.00    +0.214 C 
ATOM     14  O   UNL     1      -3.403  -0.818   0.213  0.00  0.00    -0.276 OA
ATOM     15  N   UNL     1      -1.392  -0.833  -0.725  0.00  0.00    -0.286 N 
ATOM     16  H   UNL     1      -0.587  -0.269  -1.218  0.00  0.00    +0.155 HD
ENDBRANCH   1  15
BRANCH   5  17
ATOM     17  C   UNL     1       0.373  -7.072   0.133  0.00  0.00    +0.113 C 
BRANCH  17  18
ATOM     18  S   UNL     1       1.161  -7.496  -1.440  0.00  0.00    -0.088 S 
BRANCH  18  19
ATOM     19  C   UNL     1       2.649  -8.231  -0.849  0.00  0.00    +0.126 C 
ATOM     20  N   UNL     1       2.869  -8.318   0.433  0.00  0.00    -0.363 N 
ATOM     21  N   UNL     1       3.579  -8.714  -1.741  0.00  0.00    -0.339 N 
ATOM     22  H   UNL     1       4.508  -9.173  -1.372  0.00  0.00    +0.144 HD
ATOM     23  H   UNL     1       3.393  -8.641  -2.823  0.00  0.00    +0.144 HD
ATOM     24  H   UNL     1       2.177  -7.841   1.143  0.00  0.00    +0.162 HD
BRANCH  20  25
ATOM     25  C   UNL     1       4.037  -9.050   0.928  0.00  0.00    +0.032 C 
ATOM     26  C   UNL     1       5.314  -8.358   0.448  0.00  0.00    +0.033 C 
ATOM     27  C   UNL     1       4.014  -9.074   2.458  0.00  0.00    +0.033 C 
ATOM     28  C   UNL     1       4.003 -10.484   0.395  0.00  0.00    +0.033 C 
ENDBRANCH  20  25
ENDBRANCH  18  19
ENDBRANCH  17  18
ENDBRANCH   5  17
TORSDOF 5
