REMARK  Name = ZINC65193520
REMARK  12 active torsions:
REMARK  status: ('A' for Active; 'I' for Inactive)
REMARK    1  A    between atoms: C_1  and  C_2
REMARK    2  A    between atoms: C_2  and  C_3
REMARK    3  A    between atoms: C_2  and  C_4
REMARK    4  A    between atoms: C_4  and  O_5
REMARK    5  A    between atoms: O_5  and  C_6
REMARK    6  A    between atoms: C_9  and  C_14
REMARK    7  A    between atoms: C_11  and  O_12
REMARK    8  A    between atoms: O_12  and  C_13
REMARK    9  A    between atoms: C_15  and  C_16
REMARK   10  A    between atoms: N_18  and  N_19
REMARK   11  A    between atoms: N_22  and  C_23
REMARK   12  A    between atoms: C_23  and  C_24
REMARK                            x       y       z     vdW  Elec       q    Type
REMARK                         _______ _______ _______ _____ _____    ______ ____
ROOT
ATOM      1  C   UNL     1      -7.413  -1.789  -1.819  0.00  0.00    +0.013 C 
ATOM      2  C   UNL     1      -8.017  -2.499  -0.843  0.00  0.00    +0.069 C 
ENDROOT
BRANCH   1   6
ATOM      3  C   UNL     1      -3.380  -0.552  -1.351  0.00  0.00    +0.162 A 
ATOM      4  C   UNL     1      -4.003  -1.282  -0.347  0.00  0.00    +0.050 A 
ATOM      5  C   UNL     1      -5.311  -1.686  -0.495  0.00  0.00    +0.012 A 
ATOM      6  C   UNL     1      -6.016  -1.360  -1.659  0.00  0.00    -0.021 A 
ATOM      7  C   UNL     1      -5.388  -0.624  -2.670  0.00  0.00    +0.057 A 
ATOM      8  C   UNL     1      -4.077  -0.219  -2.511  0.00  0.00    +0.162 A 
BRANCH   8   9
ATOM      9  O   UNL     1      -3.465   0.501  -3.489  0.00  0.00    -0.491 OA
ATOM     10  C   UNL     1      -4.239   0.807  -4.651  0.00  0.00    +0.277 C 
ENDBRANCH   8   9
BRANCH   3  11
ATOM     11  O   UNL     1      -2.089  -0.158  -1.200  0.00  0.00    -0.488 OA
BRANCH  11  12
ATOM     12  C   UNL     1      -1.433  -0.534   0.013  0.00  0.00    +0.232 C 
BRANCH  12  14
ATOM     13  C   UNL     1      -0.019   1.526   0.010  0.00  0.00    +0.010 C 
ATOM     14  C   UNL     1       0.002  -0.004   0.002  0.00  0.00    +0.020 C 
ATOM     15  C   UNL     1       0.742  -0.511   1.242  0.00  0.00    +0.010 C 
ENDBRANCH  12  14
ENDBRANCH  11  12
ENDBRANCH   3  11
ENDBRANCH   1   6
BRANCH   2  16
ATOM     16  C   UNL     1      -9.407  -2.927  -1.003  0.00  0.00    +0.253 C 
ATOM     17  O   UNL     1     -10.018  -2.642  -2.016  0.00  0.00    -0.269 OA
ATOM     18  N   UNL     1     -10.010  -3.636  -0.028  0.00  0.00    -0.230 N 
ATOM     19  H   UNL     1      -9.522  -3.863   0.779  0.00  0.00    +0.173 HD
BRANCH  18  20
ATOM     20  N   UNL     1     -11.341  -4.045  -0.181  0.00  0.00    -0.218 N 
ATOM     21  C   UNL     1     -11.944  -4.755   0.794  0.00  0.00    +0.316 C 
ATOM     22  O   UNL     1     -13.099  -5.110   0.661  0.00  0.00    -0.251 OA
ATOM     23  N   UNL     1     -11.267  -5.070   1.915  0.00  0.00    -0.298 N 
ATOM     24  H   UNL     1     -11.828  -3.819  -0.988  0.00  0.00    +0.174 HD
ATOM     25  H   UNL     1     -10.345  -4.786   2.021  0.00  0.00    +0.150 HD
BRANCH  23  26
ATOM     26  C   UNL     1     -11.922  -5.840   2.975  0.00  0.00    +0.109 C 
BRANCH  26  27
ATOM     27  C   UNL     1     -10.941  -6.060   4.128  0.00  0.00    +0.006 C 
ATOM     28  C   UNL     1     -10.533  -7.501   4.444  0.00  0.00    +0.005 C 
ATOM     29  C   UNL     1     -11.473  -6.747   5.387  0.00  0.00    +0.005 C 
ENDBRANCH  26  27
ENDBRANCH  23  26
ENDBRANCH  18  20
ENDBRANCH   2  16
TORSDOF 9
