REMARK  Name = ZINC65988730
REMARK  7 active torsions:
REMARK  status: ('A' for Active; 'I' for Inactive)
REMARK    1  A    between atoms: C_1  and  C_2
REMARK    2  A    between atoms: C_2  and  C_3
REMARK    3  A    between atoms: C_2  and  N_12
REMARK    4  A    between atoms: N_5  and  C_6
REMARK    5  A    between atoms: C_6  and  C_7
REMARK    6  A    between atoms: N_15  and  C_16
REMARK    7  A    between atoms: C_16  and  C_17
REMARK                            x       y       z     vdW  Elec       q    Type
REMARK                         _______ _______ _______ _____ _____    ______ ____
ROOT
ATOM      1  N   UNL     1       0.768  -0.496   1.118  0.00  0.00    -0.288 N 
ATOM      2  C   UNL     1       2.111  -0.602   1.126  0.00  0.00    +0.300 C 
ATOM      3  O   UNL     1       2.751  -0.296   0.138  0.00  0.00    -0.253 OA
ATOM      4  N   UNL     1       2.746  -1.049   2.228  0.00  0.00    -0.295 N 
ATOM      5  H   UNL     1       0.257  -0.741   1.906  0.00  0.00    +0.151 HD
ATOM      6  H   UNL     1       2.236  -1.294   3.015  0.00  0.00    +0.151 HD
ENDROOT
BRANCH   1   8
ATOM      7  C   UNL     1       0.052   1.519  -0.069  0.00  0.00    +0.038 C 
ATOM      8  C   UNL     1       0.078  -0.011  -0.080  0.00  0.00    +0.157 C 
BRANCH   8   9
ATOM      9  C   UNL     1      -1.335  -0.537  -0.094  0.00  0.00    +0.233 C 
ATOM     10  O   UNL     1      -1.726  -1.247   0.808  0.00  0.00    -0.274 OA
ATOM     11  N   UNL     1      -2.162  -0.218  -1.108  0.00  0.00    -0.307 N 
ATOM     12  H   UNL     1      -1.849   0.350  -1.829  0.00  0.00    +0.149 HD
BRANCH  11  13
ATOM     13  C   UNL     1      -3.535  -0.729  -1.122  0.00  0.00    +0.178 C 
BRANCH  13  14
ATOM     14  C   UNL     1      -4.245  -0.230  -2.354  0.00  0.00    +0.122 A 
ATOM     15  C   UNL     1      -4.286  -0.853  -3.545  0.00  0.00    +0.046 A 
ATOM     16  C   UNL     1      -5.054  -0.038  -4.408  0.00  0.00    +0.041 A 
ATOM     17  C   UNL     1      -5.436   1.035  -3.693  0.00  0.00    +0.195 A 
ATOM     18  O   UNL     1      -4.948   0.911  -2.448  0.00  0.00    -0.466 OA
ENDBRANCH  13  14
ENDBRANCH  11  13
ENDBRANCH   8   9
ENDBRANCH   1   8
BRANCH   4  19
ATOM     19  C   UNL     1       4.206  -1.165   2.236  0.00  0.00    +0.141 C 
BRANCH  19  20
ATOM     20  C   UNL     1       4.662  -1.683   3.575  0.00  0.00    -0.026 A 
ATOM     21  C   UNL     1       4.957  -0.807   4.612  0.00  0.00    +0.023 A 
ATOM     22  C   UNL     1       5.372  -1.314   5.827  0.00  0.00    +0.084 A 
ATOM     23  N   UNL     1       5.489  -2.615   6.013  0.00  0.00    -0.350 N 
ATOM     24  C   UNL     1       5.218  -3.482   5.050  0.00  0.00    +0.099 A 
ATOM     25  C   UNL     1       4.789  -3.041   3.802  0.00  0.00    +0.047 A 
ATOM     26  N   UNL     1       5.356  -4.844   5.290  0.00  0.00    -0.312 N 
ATOM     27  C   UNL     1       4.944  -5.836   4.284  0.00  0.00    +0.134 C 
ATOM     28  C   UNL     1       6.101  -6.818   4.071  0.00  0.00    +0.178 C 
ATOM     29  O   UNL     1       6.519  -7.334   5.337  0.00  0.00    -0.377 OA
ATOM     30  C   UNL     1       7.028  -6.344   6.234  0.00  0.00    +0.178 C 
ATOM     31  C   UNL     1       5.924  -5.337   6.554  0.00  0.00    +0.134 C 
ATOM     32  H   UNL     1       5.783  -2.945   6.877  0.00  0.00    +0.166 HD
ENDBRANCH  19  20
ENDBRANCH   4  19
TORSDOF 6
