REMARK  Name = ZINC07404341
REMARK  7 active torsions:
REMARK  status: ('A' for Active; 'I' for Inactive)
REMARK    1  A    between atoms: C_1  and  C_2
REMARK    2  A    between atoms: C_5  and  S_9
REMARK    3  A    between atoms: C_7  and  C_8
REMARK    4  A    between atoms: S_9  and  N_12
REMARK    5  A    between atoms: N_12  and  N_13
REMARK    6  A    between atoms: C_14  and  C_16
REMARK    7  A    between atoms: C_16  and  N_17
REMARK                            x       y       z     vdW  Elec       q    Type
REMARK                         _______ _______ _______ _____ _____    ______ ____
ROOT
ATOM      1  N   UNL     1       4.949   2.838  -2.397  0.00  0.00    -0.231 N 
ATOM      2  C   UNL     1       3.839   3.364  -1.841  0.00  0.00    +0.246 C 
ATOM      3  O   UNL     1       3.019   3.925  -2.537  0.00  0.00    -0.273 OA
ATOM      4  H   UNL     1       5.604   2.390  -1.840  0.00  0.00    +0.171 HD
ENDROOT
BRANCH   1   5
ATOM      5  N   UNL     1       5.155   2.939  -3.779  0.00  0.00    -0.108 NA
ATOM      6  H   UNL     1       4.480   2.613  -4.395  0.00  0.00    +0.172 HD
BRANCH   5   7
ATOM      7  S   UNL     1       6.551   3.612  -4.361  0.00  0.00    +0.074 S 
ATOM      8  O   UNL     1       6.528   3.440  -5.771  0.00  0.00    -0.152 OA
ATOM      9  O   UNL     1       6.670   4.890  -3.751  0.00  0.00    -0.152 OA
BRANCH   7  14
ATOM     10  C   UNL     1      11.137   0.281  -2.293  0.00  0.00    +0.044 C 
ATOM     11  C   UNL     1       9.992   1.113  -2.809  0.00  0.00    -0.047 A 
ATOM     12  C   UNL     1       9.535   2.192  -2.075  0.00  0.00    +0.005 A 
ATOM     13  C   UNL     1       8.488   2.958  -2.551  0.00  0.00    +0.029 A 
ATOM     14  C   UNL     1       7.890   2.639  -3.757  0.00  0.00    +0.107 A 
ATOM     15  C   UNL     1       8.347   1.561  -4.491  0.00  0.00    +0.032 A 
ATOM     16  C   UNL     1       9.398   0.798  -4.017  0.00  0.00    -0.046 A 
ATOM     17  C   UNL     1       9.896  -0.378  -4.817  0.00  0.00    +0.044 C 
ENDBRANCH   7  14
ENDBRANCH   5   7
ENDBRANCH   1   5
BRANCH   2  18
ATOM     18  C   UNL     1       3.617   3.256  -0.354  0.00  0.00    +0.210 C 
BRANCH  18  19
ATOM     19  N   UNL     1       2.350   3.901  -0.001  0.00  0.00    -0.256 N 
ATOM     20  C   UNL     1       1.156   3.166   0.008  0.00  0.00    +0.079 A 
ATOM     21  C   UNL     1       1.177   1.781   0.000  0.00  0.00    +0.027 A 
ATOM     22  C   UNL     1      -0.013   1.076   0.008  0.00  0.00    +0.002 A 
ATOM     23  C   UNL     1      -1.220   1.749   0.017  0.00  0.00    +0.004 A 
ATOM     24  C   UNL     1      -1.248   3.132   0.031  0.00  0.00    +0.047 A 
ATOM     25  C   UNL     1      -0.062   3.845   0.023  0.00  0.00    +0.143 A 
ATOM     26  O   UNL     1      -0.070   5.204   0.032  0.00  0.00    -0.481 OA
ATOM     27  C   UNL     1       1.006   5.849   0.718  0.00  0.00    +0.325 C 
ATOM     28  C   UNL     1       2.314   5.213   0.321  0.00  0.00    +0.258 C 
ATOM     29  O   UNL     1       3.329   5.875   0.290  0.00  0.00    -0.271 OA
ENDBRANCH  18  19
ENDBRANCH   2  18
TORSDOF 5
