REMARK  Name = ZINC12103835
REMARK  12 active torsions:
REMARK  status: ('A' for Active; 'I' for Inactive)
REMARK    1  A    between atoms: C_1  and  C_2
REMARK    2  A    between atoms: C_2  and  C_3
REMARK    3  A    between atoms: C_3  and  C_4
REMARK    4  A    between atoms: C_4  and  N_5
REMARK    5  A    between atoms: N_5  and  C_6
REMARK    6  A    between atoms: C_7  and  N_22
REMARK    7  A    between atoms: N_8  and  C_15
REMARK    8  A    between atoms: C_15  and  C_16
REMARK    9  A    between atoms: C_23  and  C_25
REMARK   10  A    between atoms: C_25  and  S_26
REMARK   11  A    between atoms: S_26  and  C_27
REMARK   12  A    between atoms: C_31  and  C_33
REMARK                            x       y       z     vdW  Elec       q    Type
REMARK                         _______ _______ _______ _____ _____    ______ ____
ROOT
ATOM      1  N   UNL     1       1.384  -2.514  -2.422  0.00  0.00    -0.264 N 
ATOM      2  C   UNL     1       0.560  -2.857  -3.434  0.00  0.00    +0.230 C 
ATOM      3  O   UNL     1       1.013  -3.367  -4.438  0.00  0.00    -0.274 OA
ENDROOT
BRANCH   1   4
ATOM      4  C   UNL     1       2.781  -2.642  -2.574  0.00  0.00    +0.140 A 
ATOM      5  C   UNL     1       3.489  -3.550  -1.814  0.00  0.00    +0.128 A 
ATOM      6  N   UNL     1       4.850  -3.651  -1.985  0.00  0.00    -0.276 N 
ATOM      7  C   UNL     1       5.483  -2.875  -2.882  0.00  0.00    +0.331 A 
ATOM      8  O   UNL     1       6.687  -2.979  -3.018  0.00  0.00    -0.246 OA
ATOM      9  N   UNL     1       4.809  -1.985  -3.632  0.00  0.00    -0.273 N 
ATOM     10  H   UNL     1       5.289  -1.437  -4.273  0.00  0.00    +0.173 HD
ATOM     11  C   UNL     1       3.475  -1.850  -3.508  0.00  0.00    +0.277 A 
ATOM     12  O   UNL     1       2.873  -1.043  -4.196  0.00  0.00    -0.266 OA
BRANCH   5  13
ATOM     13  N   UNL     1       2.842  -4.342  -0.896  0.00  0.00    -0.343 N 
ATOM     14  H   UNL     1       1.894  -4.220  -0.732  0.00  0.00    +0.144 HD
ATOM     15  H   UNL     1       3.334  -5.024  -0.412  0.00  0.00    +0.144 HD
ENDBRANCH   5  13
BRANCH   6  16
ATOM     16  C   UNL     1       5.615  -4.611  -1.184  0.00  0.00    +0.163 C 
BRANCH  16  17
ATOM     17  C   UNL     1       5.678  -5.931  -1.908  0.00  0.00    -0.028 A 
ATOM     18  C   UNL     1       4.696  -6.882  -1.698  0.00  0.00    +0.005 A 
ATOM     19  C   UNL     1       4.753  -8.093  -2.361  0.00  0.00    +0.000 A 
ATOM     20  C   UNL     1       5.792  -8.354  -3.235  0.00  0.00    +0.000 A 
ATOM     21  C   UNL     1       6.773  -7.403  -3.446  0.00  0.00    +0.000 A 
ATOM     22  C   UNL     1       6.713  -6.190  -2.786  0.00  0.00    +0.005 A 
ENDBRANCH  16  17
ENDBRANCH   6  16
ENDBRANCH   1   4
BRANCH   1  23
ATOM     23  C   UNL     1       0.827  -2.008  -1.165  0.00  0.00    +0.114 C 
BRANCH  23  24
ATOM     24  C   UNL     1       0.809  -0.478  -1.194  0.00  0.00    +0.019 C 
BRANCH  24  26
ATOM     25  C   UNL     1       0.210   1.580   0.090  0.00  0.00    +0.004 C 
ATOM     26  C   UNL     1       0.228   0.051   0.119  0.00  0.00    -0.002 C 
ENDBRANCH  24  26
ENDBRANCH  23  24
ENDBRANCH   1  23
BRANCH   2  27
ATOM     27  C   UNL     1      -0.921  -2.608  -3.318  0.00  0.00    +0.173 C 
BRANCH  27  28
ATOM     28  S   UNL     1      -1.750  -3.174  -4.829  0.00  0.00    -0.077 S 
BRANCH  28  29
ATOM     29  C   UNL     1      -3.451  -2.819  -4.542  0.00  0.00    +0.185 A 
ATOM     30  N   UNL     1      -4.471  -3.070  -5.391  0.00  0.00    -0.254 N 
ATOM     31  H   UNL     1      -4.410  -3.477  -6.269  0.00  0.00    +0.191 HD
ATOM     32  N   UNL     1      -5.638  -2.624  -4.749  0.00  0.00    -0.157 NA
ATOM     33  C   UNL     1      -5.277  -2.145  -3.589  0.00  0.00    +0.155 A 
ATOM     34  N   UNL     1      -3.955  -2.266  -3.458  0.00  0.00    -0.205 NA
BRANCH  33  35
ATOM     35  C   UNL     1      -6.206  -1.554  -2.560  0.00  0.00    +0.059 C 
ATOM     36  C   UNL     1      -7.288  -2.583  -2.173  0.00  0.00    +0.011 C 
ATOM     37  C   UNL     1      -8.569  -1.733  -1.979  0.00  0.00    +0.001 C 
ATOM     38  C   UNL     1      -8.450  -0.674  -3.103  0.00  0.00    +0.001 C 
ATOM     39  C   UNL     1      -6.944  -0.341  -3.151  0.00  0.00    +0.011 C 
ENDBRANCH  33  35
ENDBRANCH  28  29
ENDBRANCH  27  28
ENDBRANCH   2  27
TORSDOF 11
