REMARK  Name = ZINC22619332
REMARK  9 active torsions:
REMARK  status: ('A' for Active; 'I' for Inactive)
REMARK    1  A    between atoms: C_1  and  C_2
REMARK    2  A    between atoms: C_5  and  C_8
REMARK    3  A    between atoms: N_14  and  C_15
REMARK    4  A    between atoms: C_15  and  C_16
REMARK    5  A    between atoms: C_16  and  C_17
REMARK    6  A    between atoms: N_19  and  C_20
REMARK    7  A    between atoms: C_20  and  C_21
REMARK    8  A    between atoms: C_21  and  C_23
REMARK    9  A    between atoms: C_21  and  N_30
REMARK                            x       y       z     vdW  Elec       q    Type
REMARK                         _______ _______ _______ _____ _____    ______ ____
ROOT
ATOM      1  C   UNL     1      -1.512   2.920  -5.443  0.00  0.00    +0.215 C 
ATOM      2  O   UNL     1      -2.372   2.407  -6.128  0.00  0.00    -0.276 OA
ATOM      3  N   UNL     1      -0.840   2.179  -4.540  0.00  0.00    -0.316 N 
ATOM      4  H   UNL     1      -0.060   2.644  -3.919  0.00  0.00    +0.149 HD
ENDROOT
BRANCH   1   5
ATOM      5  C   UNL     1      -1.195   4.384  -5.603  0.00  0.00    +0.117 C 
BRANCH   5   6
ATOM      6  C   UNL     1      -2.094   4.985  -6.686  0.00  0.00    +0.135 C 
BRANCH   6  13
ATOM      7  C   UNL     1      -2.463   7.454  -6.245  0.00  0.00    +0.163 A 
ATOM      8  N   UNL     1      -1.904   8.573  -6.611  0.00  0.00    -0.153 NA
ATOM      9  N   UNL     1      -0.843   8.267  -7.473  0.00  0.00    -0.254 N 
ATOM     10  H   UNL     1      -0.235   9.075  -7.906  0.00  0.00    +0.191 HD
ATOM     11  C   UNL     1      -0.794   6.924  -7.596  0.00  0.00    +0.176 A 
ATOM     12  S   UNL     1       0.324   6.036  -8.540  0.00  0.00    -0.011 S 
ATOM     13  N   UNL     1      -1.785   6.409  -6.841  0.00  0.00    -0.303 N 
BRANCH   7  18
ATOM     14  C   UNL     1      -6.987   6.948  -2.722  0.00  0.00    +0.044 C 
ATOM     15  C   UNL     1      -5.802   7.081  -3.644  0.00  0.00    -0.050 A 
ATOM     16  C   UNL     1      -5.625   8.241  -4.376  0.00  0.00    +0.004 A 
ATOM     17  C   UNL     1      -4.543   8.368  -5.222  0.00  0.00    +0.012 A 
ATOM     18  C   UNL     1      -3.626   7.324  -5.339  0.00  0.00    +0.019 A 
ATOM     19  C   UNL     1      -3.813   6.154  -4.603  0.00  0.00    +0.012 A 
ATOM     20  C   UNL     1      -4.896   6.041  -3.755  0.00  0.00    +0.004 A 
ENDBRANCH   7  18
ENDBRANCH   6  13
ENDBRANCH   5   6
ENDBRANCH   1   5
BRANCH   3  21
ATOM     21  C   UNL     1      -1.148   0.756  -4.384  0.00  0.00    +0.093 C 
BRANCH  21  22
ATOM     22  C   UNL     1      -0.377   0.195  -3.188  0.00  0.00    -0.019 C 
BRANCH  22  23
ATOM     23  C   UNL     1      -0.601  -1.293  -3.099  0.00  0.00    -0.041 A 
ATOM     24  C   UNL     1      -1.595  -1.795  -2.279  0.00  0.00    +0.003 A 
ATOM     25  C   UNL     1      -1.800  -3.159  -2.197  0.00  0.00    +0.000 A 
ATOM     26  C   UNL     1      -1.011  -4.023  -2.935  0.00  0.00    +0.001 A 
ATOM     27  C   UNL     1      -0.018  -3.523  -3.755  0.00  0.00    +0.020 A 
ATOM     28  C   UNL     1       0.185  -2.156  -3.841  0.00  0.00    +0.043 A 
ATOM     29 CL   UNL     1       1.428  -1.527  -4.876  0.00  0.00    -0.083 Cl
ENDBRANCH  22  23
BRANCH  22  30
ATOM     30  N   UNL     1      -0.852   0.836  -1.954  0.00  0.00    +0.385 N 
ATOM     31  C   UNL     1      -0.487   2.276  -1.929  0.00  0.00    -0.078 C 
ATOM     32  C   UNL     1      -0.546   2.668  -0.437  0.00  0.00    -0.020 C 
ATOM     33  C   UNL     1      -0.337   1.343   0.331  0.00  0.00    -0.020 C 
ATOM     34  C   UNL     1      -0.172   0.266  -0.762  0.00  0.00    -0.078 C 
ATOM     35  H   UNL     1      -1.939   0.672  -1.943  0.00  0.00    -0.081 HD
ENDBRANCH  22  30
ENDBRANCH  21  22
ENDBRANCH   3  21
TORSDOF 8
