REMARK  Name = ZINC03770008
REMARK  9 active torsions:
REMARK  status: ('A' for Active; 'I' for Inactive)
REMARK    1  A    between atoms: C_1  and  C_2
REMARK    2  A    between atoms: C_5  and  N_8
REMARK    3  A    between atoms: C_9  and  C_11
REMARK    4  A    between atoms: C_17  and  C_18
REMARK    5  A    between atoms: C_18  and  O_20
REMARK    6  A    between atoms: O_20  and  C_21
REMARK    7  A    between atoms: C_23  and  N_36
REMARK    8  A    between atoms: C_24  and  C_34
REMARK    9  A    between atoms: C_25  and  C_27
REMARK                            x       y       z     vdW  Elec       q    Type
REMARK                         _______ _______ _______ _____ _____    ______ ____
ROOT
ATOM      1  C   UNL     1      -5.658  -1.588   0.040  0.00  0.00    +0.058 C 
ATOM      2  C   UNL     1      -4.869  -0.485   0.051  0.00  0.00    +0.099 A 
ATOM      3  N   UNL     1      -5.343   0.811   0.069  0.00  0.00    -0.257 N 
ATOM      4  C   UNL     1      -4.439   1.811   0.079  0.00  0.00    +0.272 A 
ATOM      5  O   UNL     1      -4.792   2.974   0.095  0.00  0.00    -0.266 OA
ATOM      6  C   UNL     1      -3.002   1.451   0.071  0.00  0.00    +0.086 A 
ATOM      7  C   UNL     1      -1.909   2.259   0.078  0.00  0.00    +0.112 C 
ATOM      8  S   UNL     1      -3.094  -0.332   0.041  0.00  0.00    -0.065 S 
ATOM      9  C   UNL     1      -6.726   1.032   0.075  0.00  0.00    +0.118 C 
ATOM     10  C   UNL     1      -7.643   0.039   0.066  0.00  0.00    +0.079 C 
ATOM     11  C   UNL     1      -7.162  -1.397   0.047  0.00  0.00    +0.102 C 
ENDROOT
BRANCH  11  12
ATOM     12  C   UNL     1      -7.728  -2.068  -1.178  0.00  0.00    -0.016 A 
ATOM     13  C   UNL     1      -7.426  -1.579  -2.435  0.00  0.00    +0.006 A 
ATOM     14  C   UNL     1      -7.946  -2.193  -3.559  0.00  0.00    +0.000 A 
ATOM     15  C   UNL     1      -8.767  -3.298  -3.427  0.00  0.00    +0.001 A 
ATOM     16  C   UNL     1      -9.069  -3.788  -2.170  0.00  0.00    +0.020 A 
ATOM     17  C   UNL     1      -8.545  -3.176  -1.045  0.00  0.00    +0.045 A 
ATOM     18 CL   UNL     1      -8.918  -3.796   0.533  0.00  0.00    -0.083 Cl
ENDBRANCH  11  12
BRANCH   1  20
ATOM     19  N   UNL     1      -5.895  -3.963   0.011  0.00  0.00    -0.282 N 
ATOM     20  C   UNL     1      -5.095  -2.878   0.022  0.00  0.00    +0.248 C 
ATOM     21  O   UNL     1      -3.884  -3.014   0.016  0.00  0.00    -0.270 OA
ATOM     22  H   UNL     1      -6.856  -3.856  -0.063  0.00  0.00    +0.155 HD
BRANCH  19  27
ATOM     23  C   UNL     1      -3.642  -9.154   0.397  0.00  0.00    +0.044 C 
ATOM     24  C   UNL     1      -4.241  -7.775   0.294  0.00  0.00    -0.050 A 
ATOM     25  C   UNL     1      -3.661  -6.719   0.974  0.00  0.00    +0.005 A 
ATOM     26  C   UNL     1      -4.207  -5.454   0.882  0.00  0.00    +0.023 A 
ATOM     27  C   UNL     1      -5.340  -5.242   0.105  0.00  0.00    +0.034 A 
ATOM     28  C   UNL     1      -5.922  -6.306  -0.572  0.00  0.00    +0.023 A 
ATOM     29  C   UNL     1      -5.368  -7.568  -0.479  0.00  0.00    +0.005 A 
ENDBRANCH  19  27
ENDBRANCH   1  20
BRANCH   9  30
ATOM     30  N   UNL     1      -7.176   2.329   0.093  0.00  0.00    -0.343 N 
ATOM     31  H   UNL     1      -6.617   3.041  -0.258  0.00  0.00    +0.144 HD
ATOM     32  H   UNL     1      -8.052   2.535   0.456  0.00  0.00    +0.144 HD
ENDBRANCH   9  30
BRANCH   7  33
ATOM     33  C   UNL     1      -0.568   1.675   0.067  0.00  0.00    +0.333 C 
ATOM     34  O   UNL     1      -0.431   0.467   0.052  0.00  0.00    -0.246 OA
BRANCH  33  35
ATOM     35  O   UNL     1       0.517   2.477   0.069  0.00  0.00    -0.465 OA
ATOM     36  C   UNL     1       1.796   1.839   0.052  0.00  0.00    +0.280 C 
ENDBRANCH  33  35
ENDBRANCH   7  33
BRANCH  10  37
ATOM     37  C   UNL     1      -9.043   0.340   0.075  0.00  0.00    +0.099 C 
ATOM     38  N   UNL     1     -10.154   0.578   0.082  0.00  0.00    -0.191 NA
ENDBRANCH  10  37
TORSDOF 7
