REMARK  Name = ZINC02134735
REMARK  7 active torsions:
REMARK  status: ('A' for Active; 'I' for Inactive)
REMARK    1  A    between atoms: C_1  and  C_2
REMARK    2  A    between atoms: C_4  and  C_32
REMARK    3  A    between atoms: C_13  and  C_15
REMARK    4  A    between atoms: C_15  and  C_16
REMARK    5  A    between atoms: C_16  and  S_17
REMARK    6  A    between atoms: S_17  and  C_18
REMARK    7  A    between atoms: N_21  and  C_24
REMARK                            x       y       z     vdW  Elec       q    Type
REMARK                         _______ _______ _______ _____ _____    ______ ____
ROOT
ATOM      1  C   UNL     1       2.653  -3.707   0.918  0.00  0.00    +0.044 C 
ATOM      2  C   UNL     1       3.984  -3.127   1.320  0.00  0.00    -0.050 A 
ATOM      3  C   UNL     1       4.627  -3.586   2.455  0.00  0.00    +0.008 A 
ATOM      4  C   UNL     1       5.845  -3.058   2.827  0.00  0.00    -0.029 A 
ATOM      5  C   UNL     1       6.439  -2.057   2.061  0.00  0.00    +0.039 A 
ATOM      6  C   UNL     1       5.784  -1.604   0.920  0.00  0.00    -0.027 A 
ATOM      7  C   UNL     1       4.567  -2.133   0.553  0.00  0.00    +0.008 A 
ATOM      8  C   UNL     1       6.673  -0.547   0.330  0.00  0.00    +0.050 C 
ATOM      9  C   UNL     1       5.956   0.804   0.227  0.00  0.00    +0.088 C 
ATOM     10  C   UNL     1       5.489   0.890  -1.253  0.00  0.00    +0.073 C 
ATOM     11  C   UNL     1       5.950  -0.438  -1.890  0.00  0.00    -0.057 C 
ATOM     12  C   UNL     1       3.981   0.885  -1.143  0.00  0.00    +0.224 C 
ATOM     13  O   UNL     1       3.210   0.941  -2.077  0.00  0.00    -0.275 OA
ATOM     14  N   UNL     1       3.630   0.814   0.146  0.00  0.00    -0.239 N 
ATOM     15  C   UNL     1       4.658   0.757   1.000  0.00  0.00    +0.225 C 
ATOM     16  O   UNL     1       4.564   0.681   2.206  0.00  0.00    -0.275 OA
ATOM     17  C   UNL     1       7.858  -0.471   1.253  0.00  0.00    +0.211 C 
ATOM     18  O   UNL     1       8.818   0.262   1.142  0.00  0.00    -0.277 OA
ATOM     19  N   UNL     1       7.647  -1.376   2.228  0.00  0.00    -0.286 N 
ATOM     20  C   UNL     1       6.537  -3.565   4.066  0.00  0.00    +0.045 C 
ATOM     21  H   UNL     1       8.261  -1.536   2.962  0.00  0.00    +0.155 HD
ATOM     22  N   UNL     1       7.054  -0.877  -1.033  0.00  0.00    +0.394 N 
ATOM     23  H   UNL     1       7.196  -1.889  -1.127  0.00  0.00    -0.083 HD
ATOM     24  H   UNL     1       7.918  -0.385  -1.289  0.00  0.00    -0.083 HD
ENDROOT
BRANCH  14  25
ATOM     25  C   UNL     1       2.232   0.792   0.586  0.00  0.00    +0.084 C 
ATOM     26  C   UNL     1       1.453   1.995  -0.001  0.00  0.00    +0.023 C 
ATOM     27  C   UNL     1      -0.019   1.534   0.011  0.00  0.00    +0.002 C 
ATOM     28  C   UNL     1       0.002  -0.004   0.002  0.00  0.00    +0.002 C 
ATOM     29  C   UNL     1       1.486  -0.425  -0.014  0.00  0.00    +0.023 C 
ENDBRANCH  14  25
BRANCH  11  30
ATOM     30  C   UNL     1       6.417  -0.208  -3.329  0.00  0.00    -0.004 C 
BRANCH  30  31
ATOM     31  C   UNL     1       6.822  -1.544  -3.953  0.00  0.00    +0.067 C 
BRANCH  31  32
ATOM     32  S   UNL     1       7.376  -1.271  -5.659  0.00  0.00    -0.164 S 
ATOM     33  C   UNL     1       7.815  -2.930  -6.249  0.00  0.00    +0.084 C 
ENDBRANCH  31  32
ENDBRANCH  30  31
ENDBRANCH  11  30
TORSDOF 4
