REMARK  Name = ZINC58381792
REMARK  5 active torsions:
REMARK  status: ('A' for Active; 'I' for Inactive)
REMARK    1  A    between atoms: C_3  and  N_23
REMARK    2  A    between atoms: C_4  and  C_10
REMARK    3  A    between atoms: C_6  and  N_7
REMARK    4  A    between atoms: N_12  and  N_13
REMARK    5  A    between atoms: C_14  and  C_16
REMARK                            x       y       z     vdW  Elec       q    Type
REMARK                         _______ _______ _______ _____ _____    ______ ____
ROOT
ATOM      1  C   UNL     1       3.690  -0.696  -0.038  0.00  0.00    +0.262 C 
ATOM      2  O   UNL     1       4.735  -0.075  -0.046  0.00  0.00    -0.269 OA
ATOM      3  N   UNL     1       3.706  -2.044  -0.045  0.00  0.00    -0.230 N 
ATOM      4  H   UNL     1       2.872  -2.539  -0.040  0.00  0.00    +0.173 HD
ENDROOT
BRANCH   1   8
ATOM      5  C   UNL     1      -0.017   1.381   0.010  0.00  0.00    +0.034 A 
ATOM      6  C   UNL     1       1.164   2.096   0.002  0.00  0.00    +0.026 A 
ATOM      7  C   UNL     1       2.382   1.429  -0.013  0.00  0.00    +0.042 A 
ATOM      8  C   UNL     1       2.404   0.025  -0.021  0.00  0.00    +0.061 A 
ATOM      9  C   UNL     1       1.200  -0.684  -0.013  0.00  0.00    +0.047 A 
ATOM     10  C   UNL     1       0.002  -0.004   0.002  0.00  0.00    +0.127 A 
BRANCH   7  11
ATOM     11  N   UNL     1       3.571   2.146  -0.022  0.00  0.00    -0.329 N 
ATOM     12  C   UNL     1       4.289   2.600  -1.222  0.00  0.00    +0.105 C 
ATOM     13  C   UNL     1       5.563   3.329  -0.745  0.00  0.00    +0.020 C 
ATOM     14  C   UNL     1       5.780   2.752   0.680  0.00  0.00    +0.020 C 
ATOM     15  C   UNL     1       4.319   2.583   1.171  0.00  0.00    +0.105 C 
ENDBRANCH   7  11
BRANCH  10  16
ATOM     16  N   UNL     1      -1.272  -0.758   0.011  0.00  0.00    +0.056 N 
ATOM     17  O   UNL     1      -2.325  -0.164   0.024  0.00  0.00    -0.126 OA
ATOM     18  O   UNL     1      -1.259  -1.966   0.004  0.00  0.00    -0.126 OA
ENDBRANCH  10  16
ENDBRANCH   1   8
BRANCH   3  19
ATOM     19  N   UNL     1       4.928  -2.729  -0.062  0.00  0.00    -0.230 N 
ATOM     20  C   UNL     1       4.945  -4.077  -0.069  0.00  0.00    +0.262 C 
ATOM     21  O   UNL     1       3.900  -4.698  -0.062  0.00  0.00    -0.269 OA
ATOM     22  H   UNL     1       5.762  -2.234  -0.068  0.00  0.00    +0.173 HD
BRANCH  20  23
ATOM     23  C   UNL     1       6.234  -4.800  -0.086  0.00  0.00    +0.056 A 
ATOM     24  C   UNL     1       6.264  -6.201  -0.100  0.00  0.00    +0.017 A 
ATOM     25  C   UNL     1       7.495  -6.829  -0.116  0.00  0.00    +0.041 A 
ATOM     26  C   UNL     1       8.649  -6.062  -0.118  0.00  0.00    +0.129 A 
ATOM     27  N   UNL     1       8.589  -4.743  -0.105  0.00  0.00    -0.243 NA
ATOM     28  C   UNL     1       7.440  -4.099  -0.095  0.00  0.00    +0.125 A 
ATOM     29 CL   UNL     1      10.197  -6.846  -0.138  0.00  0.00    -0.062 Cl
ENDBRANCH  20  23
ENDBRANCH   3  19
TORSDOF 5
