REMARK  Name = ZINC07636158
REMARK  7 active torsions:
REMARK  status: ('A' for Active; 'I' for Inactive)
REMARK    1  A    between atoms: C_1  and  C_2
REMARK    2  A    between atoms: C_14  and  N_22
REMARK    3  A    between atoms: C_15  and  C_16
REMARK    4  A    between atoms: N_22  and  C_23
REMARK    5  A    between atoms: C_23  and  C_24
REMARK    6  A    between atoms: C_24  and  O_25
REMARK    7  A    between atoms: O_25  and  C_26
REMARK                            x       y       z     vdW  Elec       q    Type
REMARK                         _______ _______ _______ _____ _____    ______ ____
ROOT
ATOM      1  C   UNL     1       5.191   4.869  -0.020  0.00  0.00    +0.047 C 
ATOM      2  C   UNL     1       3.698   4.663  -0.007  0.00  0.00    -0.007 A 
ATOM      3  C   UNL     1       2.853   5.754   0.005  0.00  0.00    +0.007 A 
ATOM      4  C   UNL     1       1.478   5.582   0.016  0.00  0.00    +0.001 A 
ATOM      5  C   UNL     1       0.938   4.315   0.015  0.00  0.00    +0.015 A 
ATOM      6  C   UNL     1       1.781   3.201   0.002  0.00  0.00    +0.061 A 
ATOM      7  C   UNL     1       3.175   3.376  -0.010  0.00  0.00    +0.145 A 
ATOM      8  O   UNL     1       4.009   2.312  -0.023  0.00  0.00    -0.421 OA
ATOM      9  C   UNL     1       3.556   1.047  -0.026  0.00  0.00    +0.349 A 
ATOM     10  O   UNL     1       4.346   0.122  -0.039  0.00  0.00    -0.244 OA
ATOM     11  C   UNL     1       2.124   0.776  -0.014  0.00  0.00    +0.115 A 
ATOM     12  C   UNL     1       1.227   1.841   0.000  0.00  0.00    +0.155 A 
ATOM     13  O   UNL     1      -0.016   1.339   0.009  0.00  0.00    -0.440 OA
ATOM     14  C   UNL     1       0.002  -0.004   0.002  0.00  0.00    +0.196 A 
ATOM     15  C   UNL     1       1.298  -0.439  -0.013  0.00  0.00    +0.057 A 
ENDROOT
BRANCH  15  16
ATOM     16  C   UNL     1       1.771  -1.842  -0.024  0.00  0.00    -0.012 A 
ATOM     17  C   UNL     1       2.493  -2.347   1.058  0.00  0.00    +0.009 A 
ATOM     18  C   UNL     1       2.926  -3.657   1.043  0.00  0.00    +0.001 A 
ATOM     19  C   UNL     1       2.655  -4.466  -0.046  0.00  0.00    +0.000 A 
ATOM     20  C   UNL     1       1.944  -3.970  -1.124  0.00  0.00    +0.001 A 
ATOM     21  C   UNL     1       1.501  -2.663  -1.120  0.00  0.00    +0.009 A 
ENDBRANCH  15  16
BRANCH  14  22
ATOM     22  N   UNL     1      -1.117  -0.820   0.008  0.00  0.00    -0.313 N 
ATOM     23  H   UNL     1      -1.014  -1.785   0.002  0.00  0.00    +0.149 HD
BRANCH  22  24
ATOM     24  C   UNL     1      -2.456  -0.227   0.025  0.00  0.00    +0.132 C 
BRANCH  24  25
ATOM     25  C   UNL     1      -3.507  -1.339   0.029  0.00  0.00    +0.178 C 
BRANCH  25  26
ATOM     26  O   UNL     1      -3.408  -2.084   1.245  0.00  0.00    -0.381 OA
ATOM     27  C   UNL     1      -4.350  -3.153   1.350  0.00  0.00    +0.194 C 
ENDBRANCH  25  26
ENDBRANCH  24  25
ENDBRANCH  22  24
ENDBRANCH  14  22
TORSDOF 5
