REMARK  Name = ZINC16032980
REMARK  8 active torsions:
REMARK  status: ('A' for Active; 'I' for Inactive)
REMARK    1  A    between atoms: C_1  and  C_2
REMARK    2  A    between atoms: C_2  and  C_3
REMARK    3  A    between atoms: C_14  and  C_17
REMARK    4  A    between atoms: C_17  and  C_18
REMARK    5  A    between atoms: C_18  and  C_19
REMARK    6  A    between atoms: N_24  and  C_27
REMARK    7  A    between atoms: C_27  and  C_28
REMARK    8  A    between atoms: C_28  and  C_29
REMARK                            x       y       z     vdW  Elec       q    Type
REMARK                         _______ _______ _______ _____ _____    ______ ____
ROOT
ATOM      1  C   UNL     1       0.731  -0.503   1.223  0.00  0.00    -0.047 A 
ATOM      2  C   UNL     1       2.098  -0.710   1.178  0.00  0.00    +0.005 A 
ATOM      3  C   UNL     1       2.770  -1.166   2.293  0.00  0.00    +0.024 A 
ATOM      4  C   UNL     1       2.077  -1.422   3.473  0.00  0.00    +0.039 A 
ATOM      5  C   UNL     1       0.702  -1.211   3.507  0.00  0.00    +0.004 A 
ATOM      6  C   UNL     1       0.035  -0.750   2.393  0.00  0.00    +0.011 A 
ATOM      7  C   UNL     1       0.264  -1.573   4.897  0.00  0.00    +0.136 C 
ATOM      8  C   UNL     1      -0.408  -0.388   5.602  0.00  0.00    +0.122 C 
ATOM      9  C   UNL     1      -1.931  -0.647   5.434  0.00  0.00    +0.107 C 
ATOM     10  C   UNL     1      -2.024  -1.953   4.617  0.00  0.00    +0.068 C 
ATOM     11  N   UNL     1      -0.735  -2.657   4.886  0.00  0.00    -0.295 NA
ATOM     12  C   UNL     1      -2.402  -0.892   6.849  0.00  0.00    +0.227 C 
ATOM     13  O   UNL     1      -3.542  -1.147   7.174  0.00  0.00    -0.275 OA
ATOM     14  N   UNL     1      -1.365  -0.784   7.688  0.00  0.00    -0.241 N 
ATOM     15  C   UNL     1      -0.185  -0.491   7.094  0.00  0.00    +0.228 C 
ATOM     16  O   UNL     1       0.879  -0.338   7.656  0.00  0.00    -0.275 OA
ATOM     17  C   UNL     1       1.522  -1.994   5.606  0.00  0.00    +0.243 C 
ATOM     18  O   UNL     1       1.616  -2.365   6.758  0.00  0.00    -0.273 OA
ATOM     19  N   UNL     1       2.525  -1.880   4.714  0.00  0.00    -0.283 N 
ATOM     20  H   UNL     1      -0.535  -3.326   4.157  0.00  0.00    +0.123 HD
ATOM     21  H   UNL     1       3.451  -2.092   4.911  0.00  0.00    +0.155 HD
ENDROOT
BRANCH   1  23
ATOM     22  C   UNL     1      -0.019   1.526   0.010  0.00  0.00    +0.009 C 
ATOM     23  C   UNL     1       0.002  -0.004   0.002  0.00  0.00    +0.032 C 
ENDBRANCH   1  23
BRANCH  10  24
ATOM     24  C   UNL     1      -3.195  -2.806   5.108  0.00  0.00    +0.031 C 
BRANCH  24  25
ATOM     25  C   UNL     1      -3.346  -4.033   4.206  0.00  0.00    +0.126 C 
BRANCH  25  26
ATOM     26  C   UNL     1      -4.499  -4.874   4.691  0.00  0.00    +0.356 C 
ATOM     27  O   UNL     1      -5.141  -4.524   5.667  0.00  0.00    -0.246 OA
ATOM     28  O   UNL     1      -4.790  -5.904   4.106  0.00  0.00    -0.246 OA
ENDBRANCH  25  26
ENDBRANCH  24  25
ENDBRANCH  10  24
BRANCH  14  29
ATOM     29  C   UNL     1      -1.496  -0.960   9.136  0.00  0.00    +0.121 C 
BRANCH  29  30
ATOM     30  C   UNL     1      -1.274  -2.431   9.493  0.00  0.00    +0.054 C 
BRANCH  30  31
ATOM     31  C   UNL     1      -1.408  -2.613  10.983  0.00  0.00    -0.046 A 
ATOM     32  C   UNL     1      -0.299  -2.482  11.798  0.00  0.00    +0.004 A 
ATOM     33  C   UNL     1      -0.422  -2.649  13.164  0.00  0.00    +0.000 A 
ATOM     34  C   UNL     1      -1.654  -2.946  13.716  0.00  0.00    +0.000 A 
ATOM     35  C   UNL     1      -2.763  -3.076  12.901  0.00  0.00    +0.000 A 
ATOM     36  C   UNL     1      -2.641  -2.905  11.535  0.00  0.00    +0.004 A 
ENDBRANCH  30  31
ENDBRANCH  29  30
ENDBRANCH  14  29
TORSDOF 7
