REMARK  Name = ZINC50640459
REMARK  5 active torsions:
REMARK  status: ('A' for Active; 'I' for Inactive)
REMARK    1  A    between atoms: C_1  and  N_2
REMARK    2  A    between atoms: N_2  and  C_3
REMARK    3  A    between atoms: C_8  and  S_9
REMARK    4  A    between atoms: S_9  and  N_12
REMARK    5  A    between atoms: N_12  and  C_13
REMARK                            x       y       z     vdW  Elec       q    Type
REMARK                         _______ _______ _______ _____ _____    ______ ____
ROOT
ATOM      1  S   UNL     1       0.545  -2.856  -0.115  0.00  0.00    +0.074 S 
ATOM      2  O   UNL     1       1.437  -2.310   0.847  0.00  0.00    -0.150 OA
ATOM      3  O   UNL     1       0.208  -4.236  -0.145  0.00  0.00    -0.150 OA
ENDROOT
BRANCH   1   9
ATOM      4  C   UNL     1      -2.032  -2.253  -0.807  0.00  0.00    +0.054 A 
ATOM      5  C   UNL     1      -3.227  -1.556  -0.675  0.00  0.00    +0.025 A 
ATOM      6  C   UNL     1      -3.353  -0.582   0.295  0.00  0.00    +0.002 A 
ATOM      7  C   UNL     1      -2.292  -0.299   1.135  0.00  0.00    +0.002 A 
ATOM      8  C   UNL     1      -1.101  -0.991   1.007  0.00  0.00    +0.031 A 
ATOM      9  C   UNL     1      -0.970  -1.970   0.042  0.00  0.00    +0.129 A 
BRANCH   4  11
ATOM     10  C   UNL     1      -2.983  -3.463  -2.750  0.00  0.00    +0.125 C 
ATOM     11  N   UNL     1      -1.901  -3.239  -1.787  0.00  0.00    -0.345 N 
ATOM     12  H   UNL     1      -1.094  -3.776  -1.831  0.00  0.00    +0.146 HD
ENDBRANCH   4  11
ENDBRANCH   1   9
BRANCH   1  13
ATOM     13  N   UNL     1       1.173  -2.490  -1.603  0.00  0.00    -0.215 N 
ATOM     14  H   UNL     1       1.322  -3.195  -2.253  0.00  0.00    +0.174 HD
BRANCH  13  15
ATOM     15  C   UNL     1       1.489  -1.167  -1.922  0.00  0.00    +0.062 A 
ATOM     16  C   UNL     1       1.990  -0.316  -0.945  0.00  0.00    +0.025 A 
ATOM     17  C   UNL     1       2.301   0.991  -1.264  0.00  0.00    +0.002 A 
ATOM     18  C   UNL     1       2.115   1.454  -2.554  0.00  0.00    +0.001 A 
ATOM     19  C   UNL     1       1.617   0.610  -3.530  0.00  0.00    +0.017 A 
ATOM     20  C   UNL     1       1.309  -0.701  -3.219  0.00  0.00    +0.040 A 
ATOM     21 BR   UNL     1       0.634  -1.857  -4.555  0.00  0.00    -0.048 Br
ENDBRANCH  13  15
ENDBRANCH   1  13
TORSDOF 4
