REMARK  Name = ZINC63161725
REMARK  6 active torsions:
REMARK  status: ('A' for Active; 'I' for Inactive)
REMARK    1  A    between atoms: C_6  and  O_7
REMARK    2  A    between atoms: O_7  and  C_8
REMARK    3  A    between atoms: C_8  and  C_9
REMARK    4  A    between atoms: C_9  and  N_10
REMARK    5  A    between atoms: N_13  and  C_14
REMARK    6  A    between atoms: C_16  and  C_22
REMARK                            x       y       z     vdW  Elec       q    Type
REMARK                         _______ _______ _______ _____ _____    ______ ____
ROOT
ATOM      1  N   UNL     1      -3.505  -1.780   1.199  0.00  0.00    -0.296 N 
ATOM      2  C   UNL     1      -4.471  -2.688   1.440  0.00  0.00    +0.304 C 
ATOM      3  O   UNL     1      -5.256  -2.987   0.561  0.00  0.00    -0.253 OA
ATOM      4  N   UNL     1      -4.568  -3.263   2.655  0.00  0.00    -0.265 N 
ATOM      5  H   UNL     1      -2.878  -1.540   1.901  0.00  0.00    +0.150 HD
ATOM      6  H   UNL     1      -3.898  -3.080   3.333  0.00  0.00    +0.157 HD
ENDROOT
BRANCH   4   7
ATOM      7  C   UNL     1      -5.635  -4.126   2.939  0.00  0.00    +0.100 A 
ATOM      8  C   UNL     1      -5.398  -5.417   3.324  0.00  0.00    +0.042 A 
ATOM      9  C   UNL     1      -6.484  -6.260   3.602  0.00  0.00    +0.073 A 
ATOM     10  C   UNL     1      -7.749  -5.793   3.489  0.00  0.00    +0.098 A 
ATOM     11  N   UNL     1      -7.987  -4.511   3.106  0.00  0.00    -0.327 N 
ATOM     12  H   UNL     1      -8.901  -4.195   3.030  0.00  0.00    +0.168 HD
ATOM     13  C   UNL     1      -6.968  -3.672   2.836  0.00  0.00    +0.270 A 
ATOM     14  O   UNL     1      -7.197  -2.522   2.498  0.00  0.00    -0.266 OA
BRANCH   9  15
ATOM     15  C   UNL     1      -6.242  -7.685   4.028  0.00  0.00    +0.419 C 
ATOM     16  F   UNL     1      -7.469  -8.321   4.247  0.00  0.00    -0.166 F 
ATOM     17  F   UNL     1      -5.541  -8.359   3.022  0.00  0.00    -0.166 F 
ATOM     18  F   UNL     1      -5.492  -7.698   5.209  0.00  0.00    -0.166 F 
ENDBRANCH   9  15
ENDBRANCH   4   7
BRANCH   1  19
ATOM     19  C   UNL     1      -3.400  -1.154  -0.121  0.00  0.00    +0.146 C 
BRANCH  19  20
ATOM     20  C   UNL     1      -2.228  -0.170  -0.128  0.00  0.00    +0.247 C 
BRANCH  20  21
ATOM     21  O   UNL     1      -1.004  -0.885   0.050  0.00  0.00    -0.490 OA
BRANCH  21  27
ATOM     22  C   UNL     1       0.086   1.225  -0.082  0.00  0.00    +0.049 A 
ATOM     23  C   UNL     1       1.250   1.971  -0.064  0.00  0.00    +0.053 A 
ATOM     24  C   UNL     1       2.474   1.345   0.104  0.00  0.00    +0.166 A 
ATOM     25  C   UNL     1       2.532  -0.038   0.256  0.00  0.00    +0.170 A 
ATOM     26  C   UNL     1       1.365  -0.784   0.239  0.00  0.00    +0.095 A 
ATOM     27  C   UNL     1       0.142  -0.153   0.069  0.00  0.00    +0.124 A 
ATOM     28  O   UNL     1       3.838  -0.407   0.403  0.00  0.00    -0.452 OA
ATOM     29  C   UNL     1       4.609   0.714  -0.068  0.00  0.00    +0.466 C 
ATOM     30  O   UNL     1       3.745   1.843   0.157  0.00  0.00    -0.453 OA
ENDBRANCH  21  27
ENDBRANCH  20  21
ENDBRANCH  19  20
ENDBRANCH   1  19
TORSDOF 6
