REMARK  Name = ZINC04845019
REMARK  12 active torsions:
REMARK  status: ('A' for Active; 'I' for Inactive)
REMARK    1  A    between atoms: C_1  and  C_2
REMARK    2  A    between atoms: C_2  and  C_3
REMARK    3  A    between atoms: C_2  and  C_4
REMARK    4  A    between atoms: C_2  and  C_5
REMARK    5  A    between atoms: C_5  and  C_6
REMARK    6  A    between atoms: C_5  and  C_24
REMARK    7  A    between atoms: C_5  and  O_30
REMARK    8  A    between atoms: C_6  and  C_7
REMARK    9  A    between atoms: C_8  and  C_9
REMARK   10  A    between atoms: C_9  and  N_62
REMARK   11  A    between atoms: N_12  and  C_15
REMARK   12  A    between atoms: C_18  and  N_21
REMARK                            x       y       z     vdW  Elec       q    Type
REMARK                         _______ _______ _______ _____ _____    ______ ____
ROOT
ATOM      1  C   UNL     1       0.092   0.447   3.417  0.00  0.00    +0.012 C 
ENDROOT
BRANCH   1   7
ATOM      2  C   UNL     1       0.101  -0.387   1.143  0.00  0.00    -0.058 C 
ATOM      3  C   UNL     1      -0.602  -0.286  -0.212  0.00  0.00    +0.086 C 
ATOM      4  N   UNL     1      -0.491   1.089  -0.718  0.00  0.00    -0.333 N 
ATOM      5  C   UNL     1      -1.100   2.043   0.220  0.00  0.00    +0.086 C 
ATOM      6  C   UNL     1      -0.396   1.942   1.575  0.00  0.00    -0.058 C 
ATOM      7  N   UNL     1      -0.535   0.560   2.083  0.00  0.00    +0.389 N 
ATOM      8  H   UNL     1      -1.533   0.332   2.162  0.00  0.00    -0.080 HD
BRANCH   4   9
ATOM      9  C   UNL     1      -1.060   1.203  -1.988  0.00  0.00    +0.030 A 
ATOM     10  C   UNL     1      -1.625   0.091  -2.600  0.00  0.00    +0.025 A 
ATOM     11  C   UNL     1      -2.192   0.209  -3.854  0.00  0.00    +0.034 A 
ATOM     12  C   UNL     1      -2.188   1.429  -4.505  0.00  0.00    +0.126 A 
ATOM     13  C   UNL     1      -1.622   2.537  -3.900  0.00  0.00    +0.034 A 
ATOM     14  C   UNL     1      -1.058   2.428  -2.644  0.00  0.00    +0.025 A 
BRANCH  12  15
ATOM     15  N   UNL     1      -2.792   1.550  -5.851  0.00  0.00    +0.056 N 
ATOM     16  O   UNL     1      -2.790   2.624  -6.425  0.00  0.00    -0.126 OA
ATOM     17  O   UNL     1      -3.291   0.575  -6.384  0.00  0.00    -0.126 OA
ENDBRANCH  12  15
ENDBRANCH   4   9
ENDBRANCH   1   7
BRANCH   1  19
ATOM     18  C   UNL     1      -0.922   2.301   5.008  0.00  0.00    -0.101 C 
ATOM     19  C   UNL     1      -0.472   1.478   4.302  0.00  0.00    -0.121 C 
BRANCH  18  20
ATOM     20  C   UNL     1      -1.486   3.333   5.894  0.00  0.00    +0.128 C 
BRANCH  20  21
ATOM     21  C   UNL     1      -3.001   3.145   5.996  0.00  0.00    +0.106 C 
BRANCH  21  22
ATOM     22  C   UNL     1      -3.586   4.235   6.856  0.00  0.00    -0.015 A 
ATOM     23  C   UNL     1      -3.774   5.502   6.335  0.00  0.00    +0.006 A 
ATOM     24  C   UNL     1      -4.315   6.500   7.123  0.00  0.00    +0.000 A 
ATOM     25  C   UNL     1      -4.658   6.236   8.435  0.00  0.00    +0.000 A 
ATOM     26  C   UNL     1      -4.466   4.971   8.958  0.00  0.00    +0.000 A 
ATOM     27  C   UNL     1      -3.930   3.970   8.169  0.00  0.00    +0.006 A 
ENDBRANCH  21  22
BRANCH  21  29
ATOM     28  C   UNL     1      -3.634   1.813   3.978  0.00  0.00    +0.014 C 
ATOM     29  C   UNL     1      -3.619   3.213   4.597  0.00  0.00    -0.004 C 
ATOM     30  C   UNL     1      -5.051   3.742   4.697  0.00  0.00    +0.014 C 
ATOM     31  C   UNL     1      -2.789   4.150   3.718  0.00  0.00    +0.014 C 
ENDBRANCH  21  29
BRANCH  21  32
ATOM     32  O   UNL     1      -3.285   1.873   6.581  0.00  0.00    -0.382 OA
ATOM     33  H   UNL     1      -2.923   1.759   7.470  0.00  0.00    +0.211 HD
ENDBRANCH  21  32
ENDBRANCH  20  21
ENDBRANCH  18  20
ENDBRANCH   1  19
TORSDOF 9
