REMARK  Name = ZINC04718823
REMARK  6 active torsions:
REMARK  status: ('A' for Active; 'I' for Inactive)
REMARK    1  A    between atoms: C_1  and  C_2
REMARK    2  A    between atoms: C_4  and  N_19
REMARK    3  A    between atoms: C_7  and  N_8
REMARK    4  A    between atoms: N_8  and  C_9
REMARK    5  A    between atoms: C_10  and  C_11
REMARK    6  A    between atoms: C_11  and  C_13
REMARK                            x       y       z     vdW  Elec       q    Type
REMARK                         _______ _______ _______ _____ _____    ______ ____
ROOT
ATOM      1  N   UNL     1       0.025  -0.016   2.416  0.00  0.00    -0.320 N 
ATOM      2  H   UNL     1       0.011   0.954   2.423  0.00  0.00    +0.152 HD
ENDROOT
BRANCH   1   9
ATOM      3  C   UNL     1      -0.018   1.503   0.010  0.00  0.00    +0.046 C 
ATOM      4  C   UNL     1       0.002  -0.004   0.002  0.00  0.00    -0.027 A 
ATOM      5  C   UNL     1       0.006  -0.689  -1.197  0.00  0.00    +0.038 A 
ATOM      6  C   UNL     1       0.025  -2.071  -1.206  0.00  0.00    +0.127 A 
ATOM      7  C   UNL     1       0.040  -2.773  -0.014  0.00  0.00    +0.034 A 
ATOM      8  C   UNL     1       0.036  -2.095   1.188  0.00  0.00    +0.026 A 
ATOM      9  C   UNL     1       0.023  -0.706   1.201  0.00  0.00    +0.034 A 
BRANCH   6  10
ATOM     10  N   UNL     1       0.028  -2.802  -2.493  0.00  0.00    +0.056 N 
ATOM     11  O   UNL     1       0.014  -2.190  -3.536  0.00  0.00    -0.126 OA
ATOM     12  O   UNL     1       0.044  -4.011  -2.502  0.00  0.00    -0.126 OA
ENDBRANCH   6  10
ENDBRANCH   1   9
BRANCH   1  13
ATOM     13  C   UNL     1       0.045  -0.708   3.594  0.00  0.00    +0.076 C 
ATOM     14  C   UNL     1       0.047  -0.040   4.770  0.00  0.00    +0.066 C 
BRANCH  14  15
ATOM     15  C   UNL     1       0.068  -0.755   5.987  0.00  0.00    +0.187 C 
ATOM     16  O   UNL     1       0.085  -1.973   5.978  0.00  0.00    -0.287 OA
BRANCH  15  17
ATOM     17  C   UNL     1       0.070  -0.025   7.274  0.00  0.00    +0.022 A 
ATOM     18  C   UNL     1       0.045   1.371   7.288  0.00  0.00    +0.012 A 
ATOM     19  C   UNL     1       0.046   2.046   8.492  0.00  0.00    +0.001 A 
ATOM     20  C   UNL     1       0.072   1.342   9.683  0.00  0.00    +0.000 A 
ATOM     21  C   UNL     1       0.098  -0.041   9.676  0.00  0.00    +0.001 A 
ATOM     22  C   UNL     1       0.091  -0.728   8.479  0.00  0.00    +0.012 A 
ENDBRANCH  15  17
ENDBRANCH  14  15
ENDBRANCH   1  13
TORSDOF 5
