REMARK  Name = ZINC15053375
REMARK  4 active torsions:
REMARK  status: ('A' for Active; 'I' for Inactive)
REMARK    1  A    between atoms: C_1  and  C_2
REMARK    2  A    between atoms: C_2  and  C_10
REMARK    3  A    between atoms: C_3  and  C_4
REMARK    4  A    between atoms: N_14  and  C_18
REMARK                            x       y       z     vdW  Elec       q    Type
REMARK                         _______ _______ _______ _____ _____    ______ ____
ROOT
ATOM      1  C   UNL     1       0.191  -1.174  -0.861  0.00  0.00    +0.023 C 
ATOM      2  C   UNL     1       0.429  -0.600  -2.075  0.00  0.00    +0.078 C 
ATOM      3  C   UNL     1       0.261  -1.165  -3.425  0.00  0.00    +0.263 C 
ATOM      4  O   UNL     1      -0.145  -2.301  -3.592  0.00  0.00    -0.269 OA
ATOM      5  N   UNL     1       0.569  -0.385  -4.447  0.00  0.00    -0.215 N 
ATOM      6  C   UNL     1       1.027   0.902  -4.234  0.00  0.00    +0.165 C 
ATOM      7  N   UNL     1       1.372   1.797  -5.118  0.00  0.00    -0.279 NA
ATOM      8  S   UNL     1       1.023   1.042  -2.455  0.00  0.00    -0.049 S 
ATOM      9  H   UNL     1       1.679   2.670  -4.830  0.00  0.00    +0.189 HD
ENDROOT
BRANCH   5  10
ATOM     10  C   UNL     1       0.430  -0.866  -5.756  0.00  0.00    +0.044 A 
ATOM     11  C   UNL     1      -0.833  -1.125  -6.272  0.00  0.00    +0.025 A 
ATOM     12  C   UNL     1      -0.968  -1.598  -7.562  0.00  0.00    +0.022 A 
ATOM     13  C   UNL     1       0.155  -1.815  -8.341  0.00  0.00    +0.041 A 
ATOM     14  C   UNL     1       1.415  -1.558  -7.830  0.00  0.00    +0.022 A 
ATOM     15  C   UNL     1       1.555  -1.079  -6.542  0.00  0.00    +0.025 A 
ATOM     16 CL   UNL     1      -0.017  -2.411  -9.962  0.00  0.00    -0.084 Cl
ENDBRANCH   5  10
BRANCH   1  18
ATOM     17  C   UNL     1       1.326   0.794   0.244  0.00  0.00    +0.044 C 
ATOM     18  C   UNL     1       0.556  -0.499   0.321  0.00  0.00    -0.049 C 
ATOM     19  C   UNL     1       0.215  -1.013   1.526  0.00  0.00    +0.011 C 
BRANCH  19  20
ATOM     20  C   UNL     1       0.428  -0.225   2.749  0.00  0.00    -0.025 A 
ATOM     21  C   UNL     1       0.174   1.151   2.752  0.00  0.00    +0.008 A 
ATOM     22  C   UNL     1       0.376   1.883   3.902  0.00  0.00    +0.001 A 
ATOM     23  C   UNL     1       0.830   1.261   5.052  0.00  0.00    +0.000 A 
ATOM     24  C   UNL     1       1.084  -0.100   5.058  0.00  0.00    +0.001 A 
ATOM     25  C   UNL     1       0.882  -0.847   3.917  0.00  0.00    +0.008 A 
ENDBRANCH  19  20
ENDBRANCH   1  18
TORSDOF 3
