REMARK  Name = ZINC50671387
REMARK  8 active torsions:
REMARK  status: ('A' for Active; 'I' for Inactive)
REMARK    1  A    between atoms: C_1  and  C_2
REMARK    2  A    between atoms: C_2  and  C_21
REMARK    3  A    between atoms: C_4  and  N_6
REMARK    4  A    between atoms: N_6  and  S_7
REMARK    5  A    between atoms: S_7  and  C_10
REMARK    6  A    between atoms: C_13  and  N_19
REMARK    7  A    between atoms: C_15  and  N_16
REMARK    8  A    between atoms: N_19  and  C_20
REMARK                            x       y       z     vdW  Elec       q    Type
REMARK                         _______ _______ _______ _____ _____    ______ ____
ROOT
ATOM      1  C   UNL     1       2.594  -2.581   3.307  0.00  0.00    +0.135 A 
ATOM      2  C   UNL     1       2.996  -1.658   4.255  0.00  0.00    +0.032 A 
ATOM      3  C   UNL     1       2.714  -1.871   5.590  0.00  0.00    +0.025 A 
ATOM      4  C   UNL     1       2.026  -3.014   5.980  0.00  0.00    +0.029 A 
ATOM      5  C   UNL     1       1.625  -3.938   5.024  0.00  0.00    +0.057 A 
ATOM      6  C   UNL     1       1.905  -3.717   3.690  0.00  0.00    +0.154 A 
ENDROOT
BRANCH   1   7
ATOM      7  S   UNL     1       2.955  -2.305   1.604  0.00  0.00    +0.061 S 
ATOM      8  O   UNL     1       3.569  -3.492   1.121  0.00  0.00    -0.153 OA
ATOM      9  O   UNL     1       3.587  -1.034   1.524  0.00  0.00    -0.153 OA
BRANCH   7  10
ATOM     10  N   UNL     1       1.507  -2.165   0.813  0.00  0.00    -0.186 NA
ATOM     11  H   UNL     1       1.263  -2.809   0.130  0.00  0.00    +0.148 HD
BRANCH  10  15
ATOM     12  C   UNL     1      -0.497   1.048   0.060  0.00  0.00    +0.012 C 
ATOM     13  C   UNL     1      -0.218  -0.456   0.002  0.00  0.00    -0.016 C 
ATOM     14  C   UNL     1      -0.907  -1.342   1.041  0.00  0.00    +0.029 C 
ATOM     15  C   UNL     1       0.595  -1.068   1.144  0.00  0.00    +0.083 C 
ATOM     16  C   UNL     1      -0.015  -1.035  -1.399  0.00  0.00    +0.012 C 
ENDBRANCH  10  15
ENDBRANCH   7  10
ENDBRANCH   1   7
BRANCH   6  17
ATOM     17  N   UNL     1       1.472  -4.698   2.671  0.00  0.00    +0.058 N 
ATOM     18  O   UNL     1       0.982  -5.749   3.013  0.00  0.00    -0.126 OA
ATOM     19  O   UNL     1       1.608  -4.449   1.495  0.00  0.00    -0.126 OA
ENDBRANCH   6  17
BRANCH   4  20
ATOM     20  N   UNL     1       1.740  -3.233   7.329  0.00  0.00    -0.347 N 
ATOM     21  C   UNL     1       2.165  -2.257   8.336  0.00  0.00    +0.125 C 
ATOM     22  H   UNL     1       1.260  -4.031   7.600  0.00  0.00    +0.146 HD
ENDBRANCH   4  20
TORSDOF 5
