REMARK  Name = ZINC10271818
REMARK  14 active torsions:
REMARK  status: ('A' for Active; 'I' for Inactive)
REMARK    1  A    between atoms: C_1  and  C_2
REMARK    2  A    between atoms: N_9  and  O_10
REMARK    3  A    between atoms: O_10  and  C_11
REMARK    4  A    between atoms: C_13  and  N_26
REMARK    5  A    between atoms: C_15  and  O_25
REMARK    6  A    between atoms: C_17  and  O_24
REMARK    7  A    between atoms: C_19  and  C_22
REMARK    8  A    between atoms: C_22  and  O_23
REMARK    9  A    between atoms: C_27  and  C_29
REMARK   10  A    between atoms: N_32  and  C_33
REMARK   11  A    between atoms: C_33  and  C_34
REMARK   12  A    between atoms: C_34  and  O_35
REMARK   13  A    between atoms: O_35  and  C_36
REMARK   14  A    between atoms: C_41  and  C_42
REMARK                            x       y       z     vdW  Elec       q    Type
REMARK                         _______ _______ _______ _____ _____    ______ ____
ROOT
ATOM      1  C   UNL     1      -3.337   1.928  -1.315  0.00  0.00    +0.044 C 
ATOM      2  C   UNL     1      -3.584   0.729  -2.195  0.00  0.00    -0.050 A 
ATOM      3  C   UNL     1      -4.739   0.654  -2.954  0.00  0.00    +0.005 A 
ATOM      4  C   UNL     1      -4.978  -0.438  -3.764  0.00  0.00    +0.024 A 
ATOM      5  C   UNL     1      -4.056  -1.477  -3.826  0.00  0.00    +0.046 A 
ATOM      6  C   UNL     1      -2.892  -1.400  -3.051  0.00  0.00    +0.030 A 
ATOM      7  C   UNL     1      -2.657  -0.294  -2.243  0.00  0.00    +0.015 A 
ATOM      8  C   UNL     1      -2.119  -2.634  -3.331  0.00  0.00    +0.174 C 
ATOM      9  N   UNL     1      -0.968  -2.980  -2.831  0.00  0.00    -0.076 NA
ATOM     10  C   UNL     1      -2.950  -3.391  -4.303  0.00  0.00    +0.273 C 
ATOM     11  O   UNL     1      -2.678  -4.470  -4.790  0.00  0.00    -0.268 OA
ATOM     12  N   UNL     1      -4.056  -2.667  -4.547  0.00  0.00    -0.262 N 
ENDROOT
BRANCH   9  13
ATOM     13  O   UNL     1      -0.312  -2.129  -1.909  0.00  0.00    -0.359 OA
BRANCH  13  14
ATOM     14  C   UNL     1       0.941  -2.634  -1.442  0.00  0.00    +0.360 C 
ATOM     15  C   UNL     1       1.198  -2.127  -0.021  0.00  0.00    +0.175 C 
ATOM     16  C   UNL     1       2.569  -2.623   0.450  0.00  0.00    +0.172 C 
ATOM     17  C   UNL     1       3.638  -2.149  -0.539  0.00  0.00    +0.176 C 
ATOM     18  C   UNL     1       3.287  -2.655  -1.940  0.00  0.00    +0.179 C 
ATOM     19  O   UNL     1       1.988  -2.183  -2.304  0.00  0.00    -0.330 OA
BRANCH  15  20
ATOM     20  N   UNL     1       1.178  -0.662  -0.013  0.00  0.00    -0.304 N 
ATOM     21  C   UNL     1       0.808   0.001   1.101  0.00  0.00    +0.210 C 
ATOM     22  O   UNL     1       0.491  -0.615   2.096  0.00  0.00    -0.276 OA
ATOM     23  C   UNL     1       0.787   1.508   1.109  0.00  0.00    +0.109 C 
ATOM     24  H   UNL     1       1.432  -0.169  -0.809  0.00  0.00    +0.149 HD
ENDBRANCH  15  20
BRANCH  17  25
ATOM     25  O   UNL     1       3.685  -0.720  -0.545  0.00  0.00    -0.387 OA
ATOM     26  H   UNL     1       4.339  -0.351  -1.154  0.00  0.00    +0.210 HD
ENDBRANCH  17  25
BRANCH  16  27
ATOM     27  O   UNL     1       2.849  -2.093   1.747  0.00  0.00    -0.387 OA
ATOM     28  H   UNL     1       3.704  -2.367   2.108  0.00  0.00    +0.210 HD
ENDBRANCH  16  27
BRANCH  18  29
ATOM     29  C   UNL     1       4.318  -2.136  -2.944  0.00  0.00    +0.190 C 
BRANCH  29  30
ATOM     30  O   UNL     1       4.057  -2.701  -4.231  0.00  0.00    -0.392 OA
ATOM     31  H   UNL     1       4.674  -2.415  -4.918  0.00  0.00    +0.210 HD
ENDBRANCH  29  30
ENDBRANCH  18  29
ENDBRANCH  13  14
ENDBRANCH   9  13
BRANCH  12  32
ATOM     32  C   UNL     1      -5.126  -3.079  -5.458  0.00  0.00    +0.155 C 
BRANCH  32  33
ATOM     33  C   UNL     1      -6.173  -3.884  -4.685  0.00  0.00    +0.248 C 
BRANCH  33  34
ATOM     34  O   UNL     1      -6.803  -3.041  -3.718  0.00  0.00    -0.490 OA
BRANCH  34  35
ATOM     35  C   UNL     1      -7.765  -3.606  -2.941  0.00  0.00    +0.123 A 
ATOM     36  C   UNL     1      -8.095  -4.943  -3.106  0.00  0.00    +0.046 A 
ATOM     37  C   UNL     1      -9.073  -5.514  -2.315  0.00  0.00    +0.004 A 
ATOM     38  C   UNL     1      -9.722  -4.754  -1.359  0.00  0.00    +0.000 A 
ATOM     39  C   UNL     1      -9.395  -3.421  -1.194  0.00  0.00    +0.007 A 
ATOM     40  C   UNL     1      -8.414  -2.847  -1.978  0.00  0.00    -0.009 A 
ATOM     41  C   UNL     1      -8.053  -1.395  -1.792  0.00  0.00    +0.047 C 
ENDBRANCH  34  35
ENDBRANCH  33  34
ENDBRANCH  32  33
ENDBRANCH  12  32
TORSDOF 11
