REMARK  Name = ZINC08838318
REMARK  5 active torsions:
REMARK  status: ('A' for Active; 'I' for Inactive)
REMARK    1  A    between atoms: C_1  and  C_2
REMARK    2  A    between atoms: C_4  and  N_24
REMARK    3  A    between atoms: C_7  and  N_8
REMARK    4  A    between atoms: C_9  and  C_11
REMARK    5  A    between atoms: C_11  and  C_12
REMARK                            x       y       z     vdW  Elec       q    Type
REMARK                         _______ _______ _______ _____ _____    ______ ____
ROOT
ATOM      1  N   UNL     1       0.025  -0.015   2.417  0.00  0.00    -0.285 N 
ATOM      2  C   UNL     1      -0.057  -0.694   3.578  0.00  0.00    +0.219 C 
ATOM      3  O   UNL     1      -0.040  -1.907   3.573  0.00  0.00    -0.275 OA
ATOM      4  H   UNL     1       0.077   0.954   2.425  0.00  0.00    +0.155 HD
ENDROOT
BRANCH   1  11
ATOM      5  C   UNL     1      -1.265   1.183   0.181  0.00  0.00    +0.046 C 
ATOM      6  C   UNL     1      -0.584  -0.158   0.084  0.00  0.00    -0.027 A 
ATOM      7  C   UNL     1      -0.569  -0.841  -1.117  0.00  0.00    +0.038 A 
ATOM      8  C   UNL     1       0.056  -2.071  -1.206  0.00  0.00    +0.127 A 
ATOM      9  C   UNL     1       0.667  -2.622  -0.095  0.00  0.00    +0.034 A 
ATOM     10  C   UNL     1       0.656  -1.944   1.109  0.00  0.00    +0.026 A 
ATOM     11  C   UNL     1       0.034  -0.706   1.201  0.00  0.00    +0.036 A 
BRANCH   8  12
ATOM     12  N   UNL     1       0.070  -2.800  -2.494  0.00  0.00    +0.056 N 
ATOM     13  O   UNL     1      -0.465  -2.320  -3.466  0.00  0.00    -0.126 OA
ATOM     14  O   UNL     1       0.615  -3.876  -2.574  0.00  0.00    -0.126 OA
ENDBRANCH   8  12
ENDBRANCH   1  11
BRANCH   2  15
ATOM     15  C   UNL     1      -0.169   0.052   4.882  0.00  0.00    +0.120 C 
BRANCH  15  16
ATOM     16  C   UNL     1      -0.245  -0.948   6.037  0.00  0.00    +0.146 C 
ATOM     17  C   UNL     1      -0.470  -0.210   7.332  0.00  0.00    +0.231 C 
ATOM     18  O   UNL     1      -1.600  -0.141   7.768  0.00  0.00    -0.274 OA
ATOM     19  N   UNL     1       0.509   0.369   8.019  0.00  0.00    -0.284 N 
ATOM     20  C   UNL     1       1.871   0.298   7.744  0.00  0.00    +0.047 A 
ATOM     21  C   UNL     1       2.731   1.220   8.332  0.00  0.00    +0.024 A 
ATOM     22  C   UNL     1       4.086   1.177   8.066  0.00  0.00    +0.002 A 
ATOM     23  C   UNL     1       4.603   0.219   7.214  0.00  0.00    +0.001 A 
ATOM     24  C   UNL     1       3.761  -0.706   6.625  0.00  0.00    +0.016 A 
ATOM     25  C   UNL     1       2.402  -0.670   6.892  0.00  0.00    +0.030 A 
ATOM     26  S   UNL     1       1.320  -1.866   6.156  0.00  0.00    -0.110 S 
ATOM     27  H   UNL     1       0.247   0.894   8.791  0.00  0.00    +0.155 HD
ENDBRANCH  15  16
ENDBRANCH   2  15
TORSDOF 4
