REMARK  Name = ZINC66859742
REMARK  7 active torsions:
REMARK  status: ('A' for Active; 'I' for Inactive)
REMARK    1  A    between atoms: C_1  and  C_2
REMARK    2  A    between atoms: C_2  and  C_3
REMARK    3  A    between atoms: C_2  and  C_4
REMARK    4  A    between atoms: C_2  and  C_5
REMARK    5  A    between atoms: C_16  and  N_19
REMARK    6  A    between atoms: C_20  and  C_22
REMARK    7  A    between atoms: C_22  and  C_23
REMARK                            x       y       z     vdW  Elec       q    Type
REMARK                         _______ _______ _______ _____ _____    ______ ____
ROOT
ATOM      1  C   UNL     1       0.707  -0.490  -1.238  0.00  0.00    +0.068 A 
ATOM      2  C   UNL     1       2.036  -0.472  -1.446  0.00  0.00    +0.139 A 
ATOM      3  N   UNL     1       2.274  -1.006  -2.706  0.00  0.00    -0.212 N 
ATOM      4  C   UNL     1       1.036  -1.321  -3.194  0.00  0.00    +0.197 A 
ATOM      5  N   UNL     1       0.118  -1.020  -2.320  0.00  0.00    -0.224 NA
ATOM      6  S   UNL     1       1.413  -1.993  -4.795  0.00  0.00    -0.013 S 
ATOM      7  C   UNL     1       3.188  -1.812  -4.716  0.00  0.00    +0.184 A 
ATOM      8  N   UNL     1       3.357  -1.280  -3.535  0.00  0.00    -0.142 NA
ATOM      9  N   UNL     1       4.141  -2.150  -5.663  0.00  0.00    -0.308 N 
ATOM     10  C   UNL     1       5.569  -1.925  -5.402  0.00  0.00    +0.109 C 
ATOM     11  C   UNL     1       6.158  -1.104  -6.553  0.00  0.00    +0.041 C 
ATOM     12  C   UNL     1       5.866  -1.809  -7.879  0.00  0.00    +0.076 C 
ATOM     13  C   UNL     1       4.352  -1.910  -8.083  0.00  0.00    +0.041 C 
ATOM     14  C   UNL     1       3.743  -2.745  -6.946  0.00  0.00    +0.109 C 
ENDROOT
BRANCH   1  16
ATOM     15  C   UNL     1      -0.019   1.526   0.010  0.00  0.00    +0.017 C 
ATOM     16  C   UNL     1       0.002  -0.004   0.002  0.00  0.00    +0.006 C 
ATOM     17  C   UNL     1       0.742  -0.511   1.242  0.00  0.00    +0.017 C 
ATOM     18  C   UNL     1      -1.433  -0.534   0.013  0.00  0.00    +0.017 C 
ENDBRANCH   1  16
BRANCH  12  19
ATOM     19  N   UNL     1       6.456  -1.044  -8.980  0.00  0.00    -0.312 N 
ATOM     20  C   UNL     1       6.781  -1.662 -10.133  0.00  0.00    +0.214 C 
ATOM     21  O   UNL     1       6.584  -2.852 -10.259  0.00  0.00    -0.276 OA
ATOM     22  H   UNL     1       6.614  -0.092  -8.879  0.00  0.00    +0.149 HD
BRANCH  20  23
ATOM     23  C   UNL     1       7.388  -0.874 -11.265  0.00  0.00    +0.099 C 
BRANCH  23  24
ATOM     24  C   UNL     1       7.659  -1.807 -12.447  0.00  0.00    -0.002 C 
ATOM     25  C   UNL     1       6.328  -2.257 -13.099  0.00  0.00    +0.004 C 
ATOM     26  C   UNL     1       6.762  -2.635 -14.537  0.00  0.00    +0.000 C 
ATOM     27  C   UNL     1       7.825  -1.578 -14.902  0.00  0.00    +0.000 C 
ATOM     28  C   UNL     1       8.395  -1.051 -13.573  0.00  0.00    +0.004 C 
ENDBRANCH  23  24
ENDBRANCH  20  23
ENDBRANCH  12  19
TORSDOF 4
