REMARK  Name = ZINC57414206
REMARK  7 active torsions:
REMARK  status: ('A' for Active; 'I' for Inactive)
REMARK    1  A    between atoms: C_1  and  O_2
REMARK    2  A    between atoms: O_2  and  C_3
REMARK    3  A    between atoms: C_3  and  C_5
REMARK    4  A    between atoms: C_6  and  C_19
REMARK    5  A    between atoms: C_11  and  C_13
REMARK    6  A    between atoms: C_19  and  N_20
REMARK    7  A    between atoms: C_23  and  C_26
REMARK                            x       y       z     vdW  Elec       q    Type
REMARK                         _______ _______ _______ _____ _____    ______ ____
ROOT
ATOM      1  C   UNL     1       0.738  -2.016  -1.085  0.00  0.00    +0.079 C 
ATOM      2  C   UNL     1       1.167  -2.639  -2.204  0.00  0.00    +0.038 C 
ATOM      3  N   UNL     1       1.138  -4.000  -2.308  0.00  0.00    -0.271 N 
ATOM      4  C   UNL     1       0.696  -4.810  -1.338  0.00  0.00    +0.304 C 
ATOM      5  O   UNL     1       0.709  -6.011  -1.523  0.00  0.00    -0.252 OA
ATOM      6  N   UNL     1       0.236  -4.336  -0.163  0.00  0.00    -0.288 N 
ATOM      7  C   UNL     1       0.231  -2.879   0.052  0.00  0.00    +0.144 C 
ATOM      8  H   UNL     1       1.456  -4.403  -3.131  0.00  0.00    +0.156 HD
ATOM      9  H   UNL     1      -0.080  -4.941   0.526  0.00  0.00    +0.151 HD
ENDROOT
BRANCH   7  10
ATOM     10  C   UNL     1       1.066  -2.581   1.270  0.00  0.00    -0.023 A 
ATOM     11  C   UNL     1       2.317  -3.153   1.407  0.00  0.00    +0.006 A 
ATOM     12  C   UNL     1       3.083  -2.880   2.525  0.00  0.00    +0.000 A 
ATOM     13  C   UNL     1       2.599  -2.034   3.505  0.00  0.00    +0.000 A 
ATOM     14  C   UNL     1       1.349  -1.461   3.367  0.00  0.00    +0.000 A 
ATOM     15  C   UNL     1       0.584  -1.731   2.248  0.00  0.00    +0.006 A 
ENDBRANCH   7  10
BRANCH   1  16
ATOM     16  C   UNL     1       0.767  -0.606  -0.976  0.00  0.00    +0.339 C 
ATOM     17  O   UNL     1       1.669  -0.061  -0.368  0.00  0.00    -0.245 OA
BRANCH  16  19
ATOM     18  C   UNL     1      -0.113   1.553  -1.397  0.00  0.00    +0.280 C 
ATOM     19  O   UNL     1      -0.206   0.135  -1.547  0.00  0.00    -0.465 OA
ENDBRANCH  16  19
ENDBRANCH   1  16
BRANCH   2  20
ATOM     20  C   UNL     1       1.684  -1.818  -3.357  0.00  0.00    +0.135 C 
BRANCH  20  21
ATOM     21  N   UNL     1       3.107  -2.114  -3.569  0.00  0.00    -0.297 NA
ATOM     22  C   UNL     1       3.913  -1.667  -2.426  0.00  0.00    +0.085 C 
ATOM     23  C   UNL     1       5.363  -2.120  -2.615  0.00  0.00    +0.028 C 
ATOM     24  C   UNL     1       5.913  -1.526  -3.914  0.00  0.00    +0.077 C 
ATOM     25  C   UNL     1       5.027  -1.966  -5.083  0.00  0.00    +0.028 C 
ATOM     26  C   UNL     1       3.588  -1.518  -4.823  0.00  0.00    +0.085 C 
BRANCH  24  27
ATOM     27  C   UNL     1       7.321  -2.016  -4.136  0.00  0.00    +0.214 C 
ATOM     28  O   UNL     1       7.835  -2.767  -3.334  0.00  0.00    -0.276 OA
ATOM     29  N   UNL     1       8.009  -1.620  -5.226  0.00  0.00    -0.329 N 
ATOM     30  H   UNL     1       7.598  -1.020  -5.867  0.00  0.00    +0.145 HD
ATOM     31  H   UNL     1       8.915  -1.936  -5.368  0.00  0.00    +0.145 HD
ENDBRANCH  24  27
ENDBRANCH  20  21
ENDBRANCH   2  20
TORSDOF 6
