REMARK  Name = ZINC41153625
REMARK  4 active torsions:
REMARK  status: ('A' for Active; 'I' for Inactive)
REMARK    1  A    between atoms: C_1  and  N_2
REMARK    2  A    between atoms: C_4  and  C_7
REMARK    3  A    between atoms: C_9  and  C_12
REMARK    4  A    between atoms: C_12  and  N_18
REMARK                            x       y       z     vdW  Elec       q    Type
REMARK                         _______ _______ _______ _____ _____    ______ ____
ROOT
ATOM      1  C   UNL     1       0.041  -3.296  -1.524  0.00  0.00    +0.261 A 
ATOM      2  N   UNL     1       0.055  -4.544  -1.108  0.00  0.00    -0.193 NA
ATOM      3  C   UNL     1       0.062  -5.373  -2.155  0.00  0.00    +0.161 A 
ATOM      4  N   UNL     1       0.053  -4.673  -3.254  0.00  0.00    -0.062 NA
ATOM      5  O   UNL     1       0.033  -3.307  -2.869  0.00  0.00    -0.333 OA
ENDROOT
BRANCH   1   9
ATOM      6  C   UNL     1      -0.018   1.461   0.010  0.00  0.00    +0.172 C 
ATOM      7  N   UNL     1       0.002  -0.004   0.002  0.00  0.00    -0.274 N 
ATOM      8  C   UNL     1       0.008  -0.784  -1.093  0.00  0.00    +0.121 A 
ATOM      9  C   UNL     1       0.028  -2.095  -0.666  0.00  0.00    +0.077 A 
ATOM     10  C   UNL     1       0.035  -2.075   0.746  0.00  0.00    +0.147 A 
ATOM     11  N   UNL     1       0.025  -0.828   1.133  0.00  0.00    -0.179 NA
ENDBRANCH   1   9
BRANCH   3  12
ATOM     12  C   UNL     1       0.079  -6.878  -2.077  0.00  0.00    -0.006 C 
ATOM     13  C   UNL     1       1.335  -7.336  -1.333  0.00  0.00    -0.005 C 
ATOM     14  C   UNL     1       1.352  -8.864  -1.254  0.00  0.00    -0.001 C 
ATOM     15  C   UNL     1       1.356  -9.448  -2.668  0.00  0.00    -0.000 C 
ATOM     16  C   UNL     1       0.100  -8.990  -3.412  0.00  0.00    -0.001 C 
ATOM     17  C   UNL     1       0.083  -7.462  -3.491  0.00  0.00    -0.005 C 
BRANCH  12  18
ATOM     18  N   UNL     1      -1.114  -7.345  -1.357  0.00  0.00    +0.387 N 
ATOM     19  H   UNL     1      -1.942  -7.043  -1.848  0.00  0.00    -0.089 HD
ATOM     20  H   UNL     1      -1.102  -8.352  -1.305  0.00  0.00    -0.089 HD
ATOM     21  H   UNL     1      -1.116  -6.960  -0.425  0.00  0.00    -0.089 HD
ENDBRANCH  12  18
ENDBRANCH   3  12
TORSDOF 3
