REMARK  Name = ZINC17211515
REMARK  7 active torsions:
REMARK  status: ('A' for Active; 'I' for Inactive)
REMARK    1  A    between atoms: C_1  and  C_2
REMARK    2  A    between atoms: C_5  and  N_9
REMARK    3  A    between atoms: C_7  and  C_8
REMARK    4  A    between atoms: C_10  and  C_12
REMARK    5  A    between atoms: C_12  and  C_13
REMARK    6  A    between atoms: C_13  and  C_19
REMARK    7  A    between atoms: N_14  and  N_15
REMARK                            x       y       z     vdW  Elec       q    Type
REMARK                         _______ _______ _______ _____ _____    ______ ____
ROOT
ATOM      1  N   UNL     1       1.103   5.846  -1.240  0.00  0.00    -0.285 N 
ATOM      2  C   UNL     1      -0.029   5.178  -0.943  0.00  0.00    +0.223 C 
ATOM      3  O   UNL     1      -1.030   5.358  -1.603  0.00  0.00    -0.275 OA
ATOM      4  H   UNL     1       1.882   5.759  -0.668  0.00  0.00    +0.155 HD
ENDROOT
BRANCH   1   9
ATOM      5  C   UNL     1       1.313   9.167  -5.835  0.00  0.00    +0.044 C 
ATOM      6  C   UNL     1       1.257   8.285  -4.614  0.00  0.00    -0.047 A 
ATOM      7  C   UNL     1       0.497   7.130  -4.632  0.00  0.00    +0.005 A 
ATOM      8  C   UNL     1       0.449   6.316  -3.517  0.00  0.00    +0.023 A 
ATOM      9  C   UNL     1       1.155   6.665  -2.373  0.00  0.00    +0.034 A 
ATOM     10  C   UNL     1       1.917   7.826  -2.359  0.00  0.00    +0.027 A 
ATOM     11  C   UNL     1       1.966   8.632  -3.479  0.00  0.00    -0.046 A 
ATOM     12  C   UNL     1       2.793   9.892  -3.464  0.00  0.00    +0.044 C 
ENDBRANCH   1   9
BRANCH   2  13
ATOM     13  C   UNL     1      -0.051   4.209   0.211  0.00  0.00    +0.148 C 
BRANCH  13  14
ATOM     14  C   UNL     1      -1.425   3.600   0.330  0.00  0.00    +0.043 C 
ATOM     15  N   UNL     1      -1.702   2.518  -0.295  0.00  0.00    -0.188 NA
ATOM     16  C   UNL     1      -2.473   4.266   1.184  0.00  0.00    +0.063 C 
BRANCH  15  17
ATOM     17  N   UNL     1      -0.711   1.867  -1.041  0.00  0.00    -0.191 N 
ATOM     18  C   UNL     1      -0.974   0.678  -1.618  0.00  0.00    +0.317 C 
ATOM     19  O   UNL     1      -0.115   0.115  -2.270  0.00  0.00    -0.251 OA
ATOM     20  N   UNL     1      -2.189   0.112  -1.473  0.00  0.00    -0.312 N 
ATOM     21  H   UNL     1       0.164   2.274  -1.146  0.00  0.00    +0.179 HD
ATOM     22  H   UNL     1      -2.873   0.561  -0.953  0.00  0.00    +0.147 HD
ATOM     23  H   UNL     1      -2.378  -0.744  -1.888  0.00  0.00    +0.147 HD
ENDBRANCH  15  17
ENDBRANCH  13  14
ENDBRANCH   2  13
TORSDOF 4
