REMARK  Name = ZINC25160968
REMARK  13 active torsions:
REMARK  status: ('A' for Active; 'I' for Inactive)
REMARK    1  A    between atoms: C_1  and  C_2
REMARK    2  A    between atoms: C_2  and  C_3
REMARK    3  A    between atoms: C_2  and  C_4
REMARK    4  A    between atoms: C_4  and  C_6
REMARK    5  A    between atoms: C_4  and  N_27
REMARK    6  A    between atoms: N_8  and  C_9
REMARK    7  A    between atoms: C_9  and  C_10
REMARK    8  A    between atoms: C_10  and  C_11
REMARK    9  A    between atoms: C_11  and  C_12
REMARK   10  A    between atoms: C_13  and  C_25
REMARK   11  A    between atoms: C_14  and  N_24
REMARK   12  A    between atoms: N_15  and  C_17
REMARK   13  A    between atoms: C_28  and  C_30
REMARK                            x       y       z     vdW  Elec       q    Type
REMARK                         _______ _______ _______ _____ _____    ______ ____
ROOT
ATOM      1  C   UNL     1      -0.912   1.386  -1.249  0.00  0.00    +0.025 C 
ENDROOT
BRANCH   1   2
ATOM      2  C   UNL     1      -0.157   0.965  -2.512  0.00  0.00    +0.104 C 
BRANCH   2   5
ATOM      3  C   UNL     1      -0.360   1.243  -4.924  0.00  0.00    +0.234 C 
ATOM      4  O   UNL     1       0.699   0.667  -5.052  0.00  0.00    -0.274 OA
ATOM      5  N   UNL     1      -0.848   1.490  -3.692  0.00  0.00    -0.314 N 
ATOM      6  H   UNL     1      -1.765   2.085  -3.573  0.00  0.00    +0.149 HD
BRANCH   3   7
ATOM      7  C   UNL     1      -1.130   1.684  -6.142  0.00  0.00    +0.162 C 
BRANCH   7   8
ATOM      8  N   UNL     1      -0.838   0.781  -7.258  0.00  0.00    -0.297 N 
ATOM      9  C   UNL     1      -1.728   0.636  -8.259  0.00  0.00    +0.280 C 
ATOM     10  O   UNL     1      -2.776   1.255  -8.236  0.00  0.00    -0.267 OA
ATOM     11  H   UNL     1       0.109   0.221  -7.279  0.00  0.00    +0.150 HD
BRANCH   9  12
ATOM     12  C   UNL     1      -1.435  -0.268  -9.376  0.00  0.00    +0.189 A 
ATOM     13  C   UNL     1      -2.246  -0.506 -10.449  0.00  0.00    +0.054 A 
ATOM     14  C   UNL     1      -1.573  -1.430 -11.265  0.00  0.00    +0.042 A 
ATOM     15  C   UNL     1      -0.397  -1.710 -10.662  0.00  0.00    +0.196 A 
ATOM     16  O   UNL     1      -0.315  -1.005  -9.527  0.00  0.00    -0.458 OA
ENDBRANCH   9  12
ENDBRANCH   7   8
BRANCH   7  18
ATOM     17  C   UNL     1      -1.571   3.592  -7.693  0.00  0.00    +0.009 C 
ATOM     18  C   UNL     1      -0.719   3.109  -6.517  0.00  0.00    +0.012 C 
ATOM     19  C   UNL     1      -0.934   4.034  -5.318  0.00  0.00    +0.009 C 
ENDBRANCH   7  18
ENDBRANCH   3   7
ENDBRANCH   2   5
ENDBRANCH   1   2
BRANCH   1  20
ATOM     20  C   UNL     1      -0.191   0.838  -0.017  0.00  0.00    +0.060 C 
BRANCH  20  21
ATOM     21  C   UNL     1      -0.935   1.252   1.227  0.00  0.00    +0.083 A 
ATOM     22  C   UNL     1      -1.972   0.523   1.853  0.00  0.00    +0.114 A 
ATOM     23  C   UNL     1      -2.376   1.260   2.963  0.00  0.00    +0.138 A 
ATOM     24  N   UNL     1      -1.614   2.377   2.996  0.00  0.00    -0.217 N 
ATOM     25  N   UNL     1      -0.729   2.341   1.913  0.00  0.00    -0.168 NA
BRANCH  24  26
ATOM     26  C   UNL     1      -1.694   3.396   3.956  0.00  0.00    +0.068 A 
ATOM     27  C   UNL     1      -2.924   3.747   4.496  0.00  0.00    +0.030 A 
ATOM     28  C   UNL     1      -3.000   4.748   5.445  0.00  0.00    +0.040 A 
ATOM     29  C   UNL     1      -1.852   5.407   5.850  0.00  0.00    +0.124 A 
ATOM     30  C   UNL     1      -0.625   5.062   5.310  0.00  0.00    +0.040 A 
ATOM     31  C   UNL     1      -0.544   4.058   4.364  0.00  0.00    +0.030 A 
ATOM     32  F   UNL     1      -1.929   6.390   6.774  0.00  0.00    -0.205 F 
ENDBRANCH  24  26
BRANCH  23  33
ATOM     33  N   UNL     1      -3.367   0.916   3.862  0.00  0.00    -0.342 N 
ATOM     34  H   UNL     1      -3.600   1.581   4.706  0.00  0.00    +0.144 HD
ATOM     35  H   UNL     1      -3.924  -0.024   3.733  0.00  0.00    +0.144 HD
ENDBRANCH  23  33
BRANCH  22  36
ATOM     36  C   UNL     1      -2.507  -0.736   1.427  0.00  0.00    +0.104 C 
ATOM     37  N   UNL     1      -2.930  -1.734   1.089  0.00  0.00    -0.191 NA
ENDBRANCH  22  36
ENDBRANCH  20  21
ENDBRANCH   1  20
TORSDOF 11
