REMARK  Name = ZINC66396780
REMARK  9 active torsions:
REMARK  status: ('A' for Active; 'I' for Inactive)
REMARK    1  A    between atoms: C_1  and  C_2
REMARK    2  A    between atoms: C_2  and  C_3
REMARK    3  A    between atoms: C_2  and  C_4
REMARK    4  A    between atoms: C_2  and  C_5
REMARK    5  A    between atoms: C_8  and  C_11
REMARK    6  A    between atoms: C_11  and  C_13
REMARK    7  A    between atoms: C_11  and  N_15
REMARK    8  A    between atoms: C_16  and  C_18
REMARK    9  A    between atoms: C_21  and  C_24
REMARK                            x       y       z     vdW  Elec       q    Type
REMARK                         _______ _______ _______ _____ _____    ______ ____
ROOT
ATOM      1  C   UNL     1       2.707  -1.868  -4.752  0.00  0.00    +0.207 C 
ENDROOT
BRANCH   1   5
ATOM      2  C   UNL     1       0.707  -0.490  -1.238  0.00  0.00    -0.042 A 
ATOM      3  C   UNL     1       0.036  -1.284  -2.148  0.00  0.00    +0.004 A 
ATOM      4  C   UNL     1       0.683  -1.730  -3.286  0.00  0.00    +0.007 A 
ATOM      5  C   UNL     1       2.001  -1.381  -3.513  0.00  0.00    -0.013 A 
ATOM      6  C   UNL     1       2.672  -0.586  -2.603  0.00  0.00    +0.007 A 
ATOM      7  C   UNL     1       2.024  -0.137  -1.467  0.00  0.00    +0.004 A 
BRANCH   2   9
ATOM      8  C   UNL     1      -0.019   1.526   0.010  0.00  0.00    +0.015 C 
ATOM      9  C   UNL     1       0.002  -0.004   0.002  0.00  0.00    -0.013 C 
ATOM     10  C   UNL     1       0.742  -0.511   1.242  0.00  0.00    +0.015 C 
ATOM     11  C   UNL     1      -1.433  -0.534   0.013  0.00  0.00    +0.015 C 
ENDBRANCH   2   9
ENDBRANCH   1   5
BRANCH   1  12
ATOM     12  N   UNL     1       4.082  -2.245  -4.415  0.00  0.00    -0.291 N 
ATOM     13  C   UNL     1       4.739  -3.145  -5.173  0.00  0.00    +0.264 C 
ATOM     14  O   UNL     1       4.191  -3.644  -6.136  0.00  0.00    -0.268 OA
ATOM     15  H   UNL     1       4.519  -1.848  -3.646  0.00  0.00    +0.151 HD
BRANCH  13  16
ATOM     16  C   UNL     1       6.130  -3.527  -4.832  0.00  0.00    +0.125 A 
ATOM     17  C   UNL     1       6.803  -4.454  -5.626  0.00  0.00    +0.034 A 
ATOM     18  C   UNL     1       8.101  -4.805  -5.300  0.00  0.00    +0.022 A 
ATOM     19  C   UNL     1       8.689  -4.210  -4.179  0.00  0.00    +0.070 A 
ATOM     20  C   UNL     1       7.949  -3.288  -3.432  0.00  0.00    +0.130 A 
ATOM     21  N   UNL     1       6.720  -2.977  -3.778  0.00  0.00    -0.249 NA
BRANCH  19  22
ATOM     22  C   UNL     1      10.030  -4.540  -3.800  0.00  0.00    +0.101 C 
ATOM     23  N   UNL     1      11.094  -4.803  -3.501  0.00  0.00    -0.191 NA
ENDBRANCH  19  22
ENDBRANCH  13  16
ENDBRANCH   1  12
BRANCH   1  24
ATOM     24  C   UNL     1       2.726  -0.795  -5.760  0.00  0.00    +0.090 C 
ATOM     25  N   UNL     1       2.740   0.033  -6.537  0.00  0.00    -0.194 NA
ENDBRANCH   1  24
TORSDOF 6
