REMARK  Name = ZINC63074610
REMARK  7 active torsions:
REMARK  status: ('A' for Active; 'I' for Inactive)
REMARK    1  A    between atoms: C_1  and  C_2
REMARK    2  A    between atoms: C_2  and  C_16
REMARK    3  A    between atoms: C_7  and  C_9
REMARK    4  A    between atoms: C_9  and  C_10
REMARK    5  A    between atoms: C_9  and  C_11
REMARK    6  A    between atoms: C_9  and  C_12
REMARK    7  A    between atoms: N_13  and  O_14
REMARK                            x       y       z     vdW  Elec       q    Type
REMARK                         _______ _______ _______ _____ _____    ______ ____
ROOT
ATOM      1  C   UNL     1       2.574  -0.742   2.800  0.00  0.00    +0.100 C 
ATOM      2  C   UNL     1       1.772  -0.202   3.986  0.00  0.00    +0.028 C 
ATOM      3  C   UNL     1       2.563  -2.272   2.832  0.00  0.00    +0.028 C 
ENDROOT
BRANCH   1  10
ATOM      4  C   UNL     1      -0.024   1.612   0.079  0.00  0.00    +0.031 C 
ATOM      5  C   UNL     1      -0.118   0.086   0.144  0.00  0.00    +0.032 C 
ATOM      6  C   UNL     1      -1.590  -0.342   0.327  0.00  0.00    +0.027 C 
ATOM      7  C   UNL     1      -1.484  -1.543   1.303  0.00  0.00    +0.021 C 
ATOM      8  C   UNL     1      -0.309  -1.102   2.212  0.00  0.00    +0.108 C 
ATOM      9  N   UNL     1       0.629  -0.412   1.308  0.00  0.00    -0.295 N 
ATOM     10  C   UNL     1       1.953  -0.263   1.514  0.00  0.00    +0.229 C 
ATOM     11  O   UNL     1       2.644   0.258   0.664  0.00  0.00    -0.275 OA
ATOM     12  C   UNL     1       0.449  -0.525  -1.139  0.00  0.00    +0.031 C 
ENDBRANCH   1  10
BRANCH   1  13
ATOM     13  C   UNL     1       3.995  -0.248   2.887  0.00  0.00    +0.146 C 
ATOM     14  N   UNL     1       4.355   0.513   3.866  0.00  0.00    -0.076 NA
ATOM     15  N   UNL     1       4.909  -0.608   1.921  0.00  0.00    -0.343 N 
ATOM     16  H   UNL     1       4.638  -1.179   1.186  0.00  0.00    +0.144 HD
ATOM     17  H   UNL     1       5.824  -0.290   1.977  0.00  0.00    +0.144 HD
BRANCH  14  18
ATOM     18  O   UNL     1       5.691   0.977   3.948  0.00  0.00    -0.408 OA
ATOM     19  H   UNL     1       5.865   1.540   4.715  0.00  0.00    +0.328 HD
ENDBRANCH  14  18
ENDBRANCH   1  13
TORSDOF 3
