REMARK  Name = ZINC42731149
REMARK  5 active torsions:
REMARK  status: ('A' for Active; 'I' for Inactive)
REMARK    1  A    between atoms: C_1  and  C_2
REMARK    2  A    between atoms: C_6  and  C_7
REMARK    3  A    between atoms: C_7  and  C_9
REMARK    4  A    between atoms: C_7  and  O_17
REMARK    5  A    between atoms: C_12  and  N_14
REMARK                            x       y       z     vdW  Elec       q    Type
REMARK                         _______ _______ _______ _____ _____    ______ ____
ROOT
ATOM      1  C   UNL     1       0.030  -0.179   2.581  0.00  0.00    +0.217 C 
ENDROOT
BRANCH   1   7
ATOM      2  C   UNL     1      -0.018   1.503   0.010  0.00  0.00    +0.044 C 
ATOM      3  C   UNL     1       0.002  -0.004   0.002  0.00  0.00    -0.037 A 
ATOM      4  C   UNL     1       0.006  -0.699  -1.193  0.00  0.00    +0.011 A 
ATOM      5  C   UNL     1       0.024  -2.054  -1.165  0.00  0.00    +0.046 A 
ATOM      6  S   UNL     1       0.037  -2.387   0.589  0.00  0.00    -0.098 S 
ATOM      7  C   UNL     1       0.023  -0.698   1.166  0.00  0.00    +0.028 A 
ENDBRANCH   1   7
BRANCH   1   8
ATOM      8  C   UNL     1      -1.335  -0.369   3.192  0.00  0.00    +0.141 A 
ATOM      9  C   UNL     1      -2.315   0.551   3.229  0.00  0.00    +0.050 A 
ATOM     10  C   UNL     1      -3.413  -0.046   3.891  0.00  0.00    +0.076 A 
ATOM     11  C   UNL     1      -3.037  -1.295   4.219  0.00  0.00    +0.280 A 
ATOM     12  O   UNL     1      -1.779  -1.487   3.788  0.00  0.00    -0.436 OA
BRANCH  11  13
ATOM     13  N   UNL     1      -3.870  -2.292   4.929  0.00  0.00    +0.093 N 
ATOM     14  O   UNL     1      -4.996  -2.008   5.266  0.00  0.00    -0.123 OA
ATOM     15  O   UNL     1      -3.425  -3.389   5.172  0.00  0.00    -0.123 OA
ENDBRANCH  11  13
ENDBRANCH   1   8
BRANCH   1  16
ATOM     16  O   UNL     1       0.999  -0.896   3.347  0.00  0.00    -0.379 OA
ATOM     17  H   UNL     1       0.838  -1.849   3.393  0.00  0.00    +0.211 HD
ENDBRANCH   1  16
TORSDOF 4
