REMARK  Name = ZINC44254469
REMARK  6 active torsions:
REMARK  status: ('A' for Active; 'I' for Inactive)
REMARK    1  A    between atoms: C_7  and  C_23
REMARK    2  A    between atoms: C_14  and  S_15
REMARK    3  A    between atoms: S_15  and  C_16
REMARK    4  A    between atoms: C_23  and  C_25
REMARK    5  A    between atoms: C_23  and  N_29
REMARK    6  A    between atoms: C_25  and  C_26
REMARK                            x       y       z     vdW  Elec       q    Type
REMARK                         _______ _______ _______ _____ _____    ______ ____
ROOT
ATOM      1  C   UNL     1       0.696   1.284  -0.384  0.00  0.00    +0.001 A 
ATOM      2  C   UNL     1       1.961   1.845  -0.210  0.00  0.00    +0.001 A 
ATOM      3  C   UNL     1       3.045   1.082   0.088  0.00  0.00    +0.009 A 
ATOM      4  C   UNL     1       2.898  -0.312   0.227  0.00  0.00    -0.003 A 
ATOM      5  C   UNL     1       1.570  -0.903   0.044  0.00  0.00    -0.015 A 
ATOM      6  C   UNL     1       0.486  -0.053  -0.264  0.00  0.00    +0.009 A 
ATOM      7  C   UNL     1       1.389  -2.280   0.174  0.00  0.00    -0.046 A 
ATOM      8  C   UNL     1       2.478  -3.096   0.479  0.00  0.00    -0.015 A 
ATOM      9  C   UNL     1       2.325  -4.493   0.616  0.00  0.00    +0.009 A 
ATOM     10  C   UNL     1       3.406  -5.259   0.912  0.00  0.00    +0.001 A 
ATOM     11  C   UNL     1       4.673  -4.702   1.088  0.00  0.00    +0.001 A 
ATOM     12  C   UNL     1       4.888  -3.366   0.970  0.00  0.00    +0.009 A 
ATOM     13  C   UNL     1       3.810  -2.513   0.663  0.00  0.00    -0.003 A 
ATOM     14  C   UNL     1       3.997  -1.129   0.533  0.00  0.00    +0.028 A 
ENDROOT
BRANCH  14  15
ATOM     15  S   UNL     1       5.596  -0.422   0.754  0.00  0.00    -0.088 S 
BRANCH  15  16
ATOM     16  C   UNL     1       5.665  -0.053   2.475  0.00  0.00    +0.013 A 
ATOM     17  C   UNL     1       4.581  -0.346   3.294  0.00  0.00    +0.016 A 
ATOM     18  C   UNL     1       4.638  -0.055   4.643  0.00  0.00    +0.021 A 
ATOM     19  C   UNL     1       5.773   0.528   5.179  0.00  0.00    +0.041 A 
ATOM     20  C   UNL     1       6.854   0.822   4.365  0.00  0.00    +0.021 A 
ATOM     21  C   UNL     1       6.805   0.527   3.017  0.00  0.00    +0.016 A 
ATOM     22 CL   UNL     1       5.841   0.893   6.875  0.00  0.00    -0.084 Cl
ENDBRANCH  15  16
ENDBRANCH  14  15
BRANCH   7  23
ATOM     23  C   UNL     1       0.021  -2.884  -0.013  0.00  0.00    -0.034 C 
BRANCH  23  24
ATOM     24  N   UNL     1       0.073  -3.892  -1.081  0.00  0.00    +0.383 N 
ATOM     25  H   UNL     1       0.809  -4.553  -0.883  0.00  0.00    -0.089 HD
ATOM     26  H   UNL     1      -0.810  -4.377  -1.129  0.00  0.00    -0.089 HD
ATOM     27  H   UNL     1       0.256  -3.438  -1.963  0.00  0.00    -0.089 HD
ENDBRANCH  23  24
BRANCH  23  28
ATOM     28  C   UNL     1      -0.428  -3.545   1.291  0.00  0.00    +0.084 C 
BRANCH  28  29
ATOM     29  C   UNL     1      -1.843  -4.041   1.142  0.00  0.00    +0.209 C 
ATOM     30  O   UNL     1      -2.434  -3.881   0.095  0.00  0.00    -0.276 OA
ATOM     31  N   UNL     1      -2.452  -4.662   2.171  0.00  0.00    -0.329 N 
ATOM     32  H   UNL     1      -1.979  -4.790   3.009  0.00  0.00    +0.145 HD
ATOM     33  H   UNL     1      -3.363  -4.981   2.075  0.00  0.00    +0.145 HD
ENDBRANCH  28  29
ENDBRANCH  23  28
ENDBRANCH   7  23
TORSDOF 6
