REMARK  Name = ZINC67000352
REMARK  6 active torsions:
REMARK  status: ('A' for Active; 'I' for Inactive)
REMARK    1  A    between atoms: C_1  and  N_2
REMARK    2  A    between atoms: C_6  and  N_12
REMARK    3  A    between atoms: C_13  and  C_15
REMARK    4  A    between atoms: N_17  and  C_18
REMARK    5  A    between atoms: C_18  and  C_19
REMARK    6  A    between atoms: C_19  and  O_29
REMARK                            x       y       z     vdW  Elec       q    Type
REMARK                         _______ _______ _______ _____ _____    ______ ____
ROOT
ATOM      1  C   UNL     1      -6.043  -4.977   0.222  0.00  0.00    +0.299 C 
ATOM      2  O   UNL     1      -5.620  -6.114   0.213  0.00  0.00    -0.265 OA
ATOM      3  N   UNL     1      -7.367  -4.751   0.330  0.00  0.00    -0.305 N 
ATOM      4  H   UNL     1      -7.705  -3.842   0.337  0.00  0.00    +0.149 HD
ENDROOT
BRANCH   1   6
ATOM      5  N   UNL     1      -3.772  -4.053   0.006  0.00  0.00    -0.278 N 
ATOM      6  C   UNL     1      -5.096  -3.827   0.114  0.00  0.00    +0.303 C 
ATOM      7  O   UNL     1      -5.519  -2.689   0.123  0.00  0.00    -0.265 OA
ATOM      8  H   UNL     1      -3.439  -4.961  -0.068  0.00  0.00    +0.155 HD
BRANCH   5  14
ATOM      9  C   UNL     1       0.906   0.694   0.303  0.00  0.00    +0.156 C 
ATOM     10  N   UNL     1      -0.442   0.366  -0.169  0.00  0.00    -0.277 N 
ATOM     11  C   UNL     1      -1.099  -0.855  -0.005  0.00  0.00    +0.090 A 
ATOM     12  C   UNL     1      -0.744  -2.053   0.597  0.00  0.00    +0.031 A 
ATOM     13  C   UNL     1      -1.629  -3.111   0.600  0.00  0.00    +0.025 A 
ATOM     14  C   UNL     1      -2.877  -2.978   0.001  0.00  0.00    +0.037 A 
ATOM     15  C   UNL     1      -3.237  -1.781  -0.603  0.00  0.00    +0.071 A 
ATOM     16  C   UNL     1      -2.350  -0.717  -0.606  0.00  0.00    +0.159 A 
ATOM     17  O   UNL     1      -2.421   0.542  -1.105  0.00  0.00    -0.407 OA
ATOM     18  C   UNL     1      -1.276   1.189  -0.835  0.00  0.00    +0.421 A 
ATOM     19  O   UNL     1      -1.029   2.338  -1.145  0.00  0.00    -0.223 OA
ENDBRANCH   5  14
ENDBRANCH   1   6
BRANCH   3  20
ATOM     20  C   UNL     1      -8.296  -5.878   0.436  0.00  0.00    +0.144 C 
BRANCH  20  21
ATOM     21  C   UNL     1      -9.735  -5.357   0.421  0.00  0.00    +0.107 C 
ATOM     22  C   UNL     1      -9.932  -4.389   1.586  0.00  0.00    +0.041 C 
ATOM     23  C   UNL     1     -11.423  -4.048   1.685  0.00  0.00    +0.008 C 
ATOM     24  C   UNL     1     -12.169  -5.290   2.172  0.00  0.00    +0.035 C 
ATOM     25  C   UNL     1     -11.805  -6.488   1.335  0.00  0.00    -0.041 A 
ATOM     26  C   UNL     1     -10.686  -6.520   0.534  0.00  0.00    -0.011 A 
ATOM     27  C   UNL     1     -10.404  -7.660  -0.209  0.00  0.00    +0.007 A 
ATOM     28  C   UNL     1     -11.239  -8.757  -0.153  0.00  0.00    +0.000 A 
ATOM     29  C   UNL     1     -12.365  -8.723   0.648  0.00  0.00    +0.000 A 
ATOM     30  C   UNL     1     -12.645  -7.593   1.388  0.00  0.00    +0.004 A 
BRANCH  21  31
ATOM     31  O   UNL     1      -9.974  -4.670  -0.808  0.00  0.00    -0.382 OA
ATOM     32  H   UNL     1      -9.860  -5.220  -1.595  0.00  0.00    +0.211 HD
ENDBRANCH  21  31
ENDBRANCH  20  21
ENDBRANCH   3  20
TORSDOF 5
