REMARK  Name = ZINC55023643
REMARK  9 active torsions:
REMARK  status: ('A' for Active; 'I' for Inactive)
REMARK    1  A    between atoms: C_1  and  C_2
REMARK    2  A    between atoms: C_2  and  C_4
REMARK    3  A    between atoms: C_2  and  N_18
REMARK    4  A    between atoms: N_6  and  C_7
REMARK    5  A    between atoms: C_8  and  C_15
REMARK    6  A    between atoms: N_18  and  C_19
REMARK    7  A    between atoms: N_18  and  C_20
REMARK    8  A    between atoms: C_20  and  C_21
REMARK    9  A    between atoms: C_21  and  C_22
REMARK                            x       y       z     vdW  Elec       q    Type
REMARK                         _______ _______ _______ _____ _____    ______ ____
ROOT
ATOM      1  C   UNL     1      -1.383  -0.329  -0.229  0.00  0.00    +0.204 C 
ATOM      2  O   UNL     1      -1.877  -1.099   0.567  0.00  0.00    -0.277 OA
ATOM      3  N   UNL     1      -2.128   0.170  -1.236  0.00  0.00    -0.281 N 
ATOM      4  H   UNL     1      -1.732   0.786  -1.872  0.00  0.00    +0.155 HD
ENDROOT
BRANCH   3   5
ATOM      5  C   UNL     1      -3.459  -0.197  -1.361  0.00  0.00    +0.084 A 
ATOM      6  C   UNL     1      -4.365   0.206  -2.324  0.00  0.00    +0.068 A 
ATOM      7  C   UNL     1      -5.722  -0.331  -2.234  0.00  0.00    -0.023 A 
ATOM      8  C   UNL     1      -5.913  -1.167  -1.198  0.00  0.00    -0.004 A 
ATOM      9  S   UNL     1      -4.338  -1.238  -0.383  0.00  0.00    -0.077 S 
ATOM     10  C   UNL     1      -7.325  -1.686  -1.150  0.00  0.00    +0.043 C 
ATOM     11  C   UNL     1      -8.125  -0.726  -2.058  0.00  0.00    +0.010 C 
ATOM     12  C   UNL     1      -7.030  -0.209  -3.013  0.00  0.00    +0.037 C 
BRANCH   6  13
ATOM     13  C   UNL     1      -3.981   1.135  -3.392  0.00  0.00    +0.244 C 
ATOM     14  O   UNL     1      -3.539   0.706  -4.442  0.00  0.00    -0.270 OA
ATOM     15  N   UNL     1      -4.117   2.463  -3.211  0.00  0.00    -0.325 N 
ATOM     16  H   UNL     1      -4.469   2.805  -2.374  0.00  0.00    +0.145 HD
ATOM     17  H   UNL     1      -3.863   3.078  -3.917  0.00  0.00    +0.145 HD
ENDBRANCH   6  13
ENDBRANCH   3   5
BRANCH   1  19
ATOM     18  C   UNL     1       0.163   1.359   0.725  0.00  0.00    -0.004 C 
ATOM     19  C   UNL     1       0.064   0.070  -0.093  0.00  0.00    +0.016 C 
BRANCH  19  20
ATOM     20  N   UNL     1       0.805  -1.000   0.588  0.00  0.00    +0.385 N 
ATOM     21  C   UNL     1       2.204  -0.590   0.766  0.00  0.00    -0.095 C 
ATOM     22  H   UNL     1       0.388  -1.176   1.490  0.00  0.00    -0.081 HD
BRANCH  20  23
ATOM     23  C   UNL     1       0.753  -2.224  -0.222  0.00  0.00    -0.073 C 
BRANCH  23  24
ATOM     24  C   UNL     1       1.400  -3.375   0.550  0.00  0.00    +0.016 C 
BRANCH  24  25
ATOM     25  C   UNL     1       1.347  -4.631  -0.281  0.00  0.00    -0.049 A 
ATOM     26  C   UNL     1       0.258  -5.478  -0.184  0.00  0.00    +0.006 A 
ATOM     27  C   UNL     1       0.208  -6.629  -0.946  0.00  0.00    +0.038 A 
ATOM     28  C   UNL     1       1.248  -6.935  -1.807  0.00  0.00    +0.123 A 
ATOM     29  C   UNL     1       2.338  -6.087  -1.903  0.00  0.00    +0.038 A 
ATOM     30  C   UNL     1       2.384  -4.933  -1.144  0.00  0.00    +0.006 A 
ATOM     31  F   UNL     1       1.200  -8.061  -2.552  0.00  0.00    -0.205 F 
ENDBRANCH  24  25
ENDBRANCH  23  24
ENDBRANCH  20  23
ENDBRANCH  19  20
ENDBRANCH   1  19
TORSDOF 7
