REMARK  Name = ZINC50368289
REMARK  6 active torsions:
REMARK  status: ('A' for Active; 'I' for Inactive)
REMARK    1  A    between atoms: C_1  and  O_2
REMARK    2  A    between atoms: O_2  and  C_3
REMARK    3  A    between atoms: C_8  and  N_10
REMARK    4  A    between atoms: N_10  and  S_11
REMARK    5  A    between atoms: S_11  and  C_14
REMARK    6  A    between atoms: C_17  and  N_21
REMARK                            x       y       z     vdW  Elec       q    Type
REMARK                         _______ _______ _______ _____ _____    ______ ____
ROOT
ATOM      1  S   UNL     1       0.701  -3.441   1.878  0.00  0.00    +0.061 S 
ATOM      2  O   UNL     1       2.018  -3.831   1.515  0.00  0.00    -0.153 OA
ATOM      3  O   UNL     1       0.420  -2.723   3.071  0.00  0.00    -0.153 OA
ENDROOT
BRANCH   1   4
ATOM      4  C   UNL     1      -0.262  -4.916   1.939  0.00  0.00    +0.133 A 
ATOM      5  C   UNL     1      -1.411  -4.959   2.708  0.00  0.00    +0.047 A 
ATOM      6  C   UNL     1      -2.168  -6.114   2.758  0.00  0.00    +0.040 A 
ATOM      7  C   UNL     1      -1.773  -7.233   2.036  0.00  0.00    +0.027 A 
ATOM      8  C   UNL     1      -0.619  -7.187   1.265  0.00  0.00    +0.040 A 
ATOM      9  C   UNL     1       0.131  -6.027   1.214  0.00  0.00    +0.047 A 
ATOM     10 BR   UNL     1       1.699  -5.962   0.159  0.00  0.00    -0.048 Br
ATOM     11 BR   UNL     1      -1.948  -3.435   3.691  0.00  0.00    -0.048 Br
BRANCH   7  12
ATOM     12  N   UNL     1      -2.535  -8.402   2.086  0.00  0.00    -0.358 N 
ATOM     13  H   UNL     1      -3.341  -8.434   2.625  0.00  0.00    +0.142 HD
ATOM     14  H   UNL     1      -2.259  -9.183   1.581  0.00  0.00    +0.142 HD
ENDBRANCH   7  12
ENDBRANCH   1   4
BRANCH   1  15
ATOM     15  N   UNL     1       0.116  -2.527   0.626  0.00  0.00    -0.184 NA
ATOM     16  H   UNL     1       0.676  -2.348  -0.146  0.00  0.00    +0.148 HD
BRANCH  15  21
ATOM     17  C   UNL     1      -1.295  -0.603   0.011  0.00  0.00    +0.136 C 
ATOM     18  C   UNL     1      -1.767  -0.897  -1.435  0.00  0.00    +0.033 C 
ATOM     19  C   UNL     1      -2.806  -2.027  -1.232  0.00  0.00    +0.004 C 
ATOM     20  C   UNL     1      -2.205  -2.897  -0.108  0.00  0.00    +0.023 C 
ATOM     21  C   UNL     1      -1.245  -1.990   0.685  0.00  0.00    +0.105 C 
BRANCH  17  23
ATOM     22  C   UNL     1      -0.017   1.425   0.010  0.00  0.00    +0.194 C 
ATOM     23  O   UNL     1       0.002  -0.004   0.002  0.00  0.00    -0.378 OA
ENDBRANCH  17  23
ENDBRANCH  15  21
ENDBRANCH   1  15
TORSDOF 5
