REMARK  Name = ZINC31845634
REMARK  5 active torsions:
REMARK  status: ('A' for Active; 'I' for Inactive)
REMARK    1  A    between atoms: C_1  and  C_2
REMARK    2  A    between atoms: C_8  and  N_10
REMARK    3  A    between atoms: C_11  and  C_13
REMARK    4  A    between atoms: C_13  and  N_14
REMARK    5  A    between atoms: C_23  and  N_25
REMARK                            x       y       z     vdW  Elec       q    Type
REMARK                         _______ _______ _______ _____ _____    ______ ____
ROOT
ATOM      1  N   UNL     1       0.852  -4.617  -3.828  0.00  0.00    -0.308 N 
ATOM      2  C   UNL     1      -0.224  -3.983  -4.601  0.00  0.00    +0.226 C 
ATOM      3  C   UNL     1      -0.018  -4.337  -6.060  0.00  0.00    +0.330 C 
ATOM      4  O   UNL     1      -0.874  -4.890  -6.709  0.00  0.00    -0.249 OA
ATOM      5  O   UNL     1       1.176  -4.001  -6.595  0.00  0.00    -0.423 OA
ATOM      6  C   UNL     1       2.253  -4.159  -5.776  0.00  0.00    +0.155 A 
ATOM      7  C   UNL     1       2.104  -4.446  -4.424  0.00  0.00    +0.074 A 
ATOM      8  C   UNL     1       3.237  -4.572  -3.623  0.00  0.00    +0.029 A 
ATOM      9  C   UNL     1       4.496  -4.420  -4.168  0.00  0.00    +0.035 A 
ATOM     10  C   UNL     1       4.641  -4.143  -5.515  0.00  0.00    +0.130 A 
ATOM     11  C   UNL     1       3.523  -4.012  -6.317  0.00  0.00    +0.081 A 
ENDROOT
BRANCH  10  12
ATOM     12  N   UNL     1       5.992  -3.986  -6.097  0.00  0.00    +0.057 N 
ATOM     13  O   UNL     1       6.120  -3.741  -7.284  0.00  0.00    -0.126 OA
ATOM     14  O   UNL     1       6.977  -4.101  -5.390  0.00  0.00    -0.126 OA
ENDBRANCH  10  12
BRANCH   1  15
ATOM     15  C   UNL     1       0.858  -4.135  -2.441  0.00  0.00    +0.201 C 
BRANCH  15  17
ATOM     16  N   UNL     1       1.052  -1.966  -1.267  0.00  0.00    -0.311 N 
ATOM     17  C   UNL     1       1.123  -2.652  -2.425  0.00  0.00    +0.231 C 
ATOM     18  O   UNL     1       1.401  -2.075  -3.455  0.00  0.00    -0.274 OA
ATOM     19  H   UNL     1       0.800  -2.490  -0.333  0.00  0.00    +0.149 HD
BRANCH  16  26
ATOM     20  C   UNL     1      -0.911  -0.138  -0.174  0.00  0.00    +0.009 C 
ATOM     21  C   UNL     1       0.595   0.110  -0.058  0.00  0.00    +0.006 C 
ATOM     22  C   UNL     1       0.864   1.616  -0.043  0.00  0.00    +0.005 C 
ATOM     23  C   UNL     1       2.369   1.863   0.074  0.00  0.00    +0.000 C 
ATOM     24  C   UNL     1       3.084   1.230  -1.121  0.00  0.00    +0.002 C 
ATOM     25  C   UNL     1       2.815  -0.277  -1.136  0.00  0.00    +0.022 C 
ATOM     26  C   UNL     1       1.310  -0.524  -1.253  0.00  0.00    +0.076 C 
ENDBRANCH  16  26
ENDBRANCH  15  17
ENDBRANCH   1  15
TORSDOF 4
