REMARK  Name = ZINC04086243
REMARK  12 active torsions:
REMARK  status: ('A' for Active; 'I' for Inactive)
REMARK    1  A    between atoms: CB_1  and  CA_2
REMARK    2  A    between atoms: CA_2  and  C_4
REMARK    3  A    between atoms: CA_2  and  N_6
REMARK    4  A    between atoms: C_4  and  O_5
REMARK    5  A    between atoms: C_7  and  CA_9
REMARK    6  A    between atoms: CA_9  and  CB_11
REMARK    7  A    between atoms: CA_9  and  N_14
REMARK    8  A    between atoms: CB_11  and  CG1_12
REMARK    9  A    between atoms: CB_11  and  CG2_13
REMARK   10  A    between atoms: C_15  and  C_17
REMARK   11  A    between atoms: C_19  and  C_32
REMARK   12  A    between atoms: C_19  and  C_33
REMARK                            x       y       z     vdW  Elec       q    Type
REMARK                         _______ _______ _______ _____ _____    ______ ____
ROOT
ATOM      1  N   VAL A   1      -3.886  -1.422  -2.490  0.00  0.00    -0.302 N 
ATOM      2  C   UNK A   0      -5.200  -1.518  -2.774  0.00  0.00    +0.236 C 
ATOM      3  O   UNK A   0      -6.019  -1.475  -1.880  0.00  0.00    -0.274 OA
ATOM      4  H   VAL A   1      -3.232  -1.457  -3.205  0.00  0.00    +0.150 HD
ENDROOT
BRANCH   2   5
ATOM      5  C   UNK A   0      -5.653  -1.679  -4.202  0.00  0.00    +0.179 C 
ATOM      6  C   UNK A   0      -5.570  -0.304  -4.906  0.00  0.00    +0.040 C 
ATOM      7  S   UNK A   0      -7.352   0.054  -5.228  0.00  0.00    -0.125 S 
ATOM      8  C   UNK A   0      -8.043  -1.203  -4.070  0.00  0.00    +0.167 C 
ATOM      9  N   UNK A   0      -6.998  -2.255  -4.206  0.00  0.00    -0.269 N 
ATOM     10  C   UNK A   0      -7.669  -3.423  -4.309  0.00  0.00    +0.249 C 
ATOM     11  O   UNK A   0      -7.208  -4.519  -4.059  0.00  0.00    -0.270 OA
ATOM     12  C   UNK A   0      -9.046  -3.165  -4.772  0.00  0.00    +0.043 A 
ATOM     13  C   UNK A   0      -9.306  -1.789  -4.632  0.00  0.00    -0.005 A 
ATOM     14  C   UNK A   0     -10.523  -1.258  -4.992  0.00  0.00    +0.007 A 
ATOM     15  C   UNK A   0     -11.523  -2.083  -5.479  0.00  0.00    +0.000 A 
ATOM     16  C   UNK A   0     -11.304  -3.444  -5.602  0.00  0.00    +0.001 A 
ATOM     17  C   UNK A   0     -10.054  -4.001  -5.252  0.00  0.00    +0.013 A 
ATOM     18  C   UNK A   0      -4.957   0.749  -3.982  0.00  0.00    +0.025 C 
ATOM     19  C   UNK A   0      -4.786  -0.405  -6.216  0.00  0.00    +0.025 C 
ENDBRANCH   2   5
BRANCH   1  20
ATOM     20  CA  VAL A   1      -3.447  -1.265  -1.101  0.00  0.00    +0.161 C 
BRANCH  20  22
ATOM     21  N   VAL A   1      -1.742   0.154  -0.008  0.00  0.00    -0.309 N 
ATOM     22  C   VAL A   1      -2.101  -0.588  -1.074  0.00  0.00    +0.234 C 
ATOM     23  O   VAL A   1      -1.341  -0.711  -2.011  0.00  0.00    -0.274 OA
ATOM     24  H   VAL A   1      -2.375   0.309   0.711  0.00  0.00    +0.149 HD
BRANCH  21  26
ATOM     25  CB  VAL A   1      -0.366   2.059  -0.687  0.00  0.00    +0.030 C 
ATOM     26  CA  VAL A   1      -0.396   0.728   0.066  0.00  0.00    +0.095 C 
BRANCH  26  27
ATOM     27  C   VAL A   1      -0.020   0.961   1.530  0.00  0.00    +0.177 C 
BRANCH  27  28
ATOM     28  O   VAL A   1      -0.883   1.952   2.091  0.00  0.00    -0.393 OA
ATOM     29  H   VAL A   1      -0.702   2.151   3.020  0.00  0.00    +0.209 HD
ENDBRANCH  27  28
ENDBRANCH  26  27
ENDBRANCH  21  26
ENDBRANCH  20  22
BRANCH  20  30
ATOM     30  CB  VAL A   1      -3.339  -2.642  -0.442  0.00  0.00    +0.012 C 
ATOM     31  CG1 VAL A   1      -2.931  -2.475   1.023  0.00  0.00    +0.009 C 
ATOM     32  CG2 VAL A   1      -4.693  -3.350  -0.516  0.00  0.00    +0.009 C 
ENDBRANCH  20  30
ENDBRANCH   1  20
TORSDOF 7
