REMARK  Name = ZINC40778223
REMARK  5 active torsions:
REMARK  status: ('A' for Active; 'I' for Inactive)
REMARK    1  A    between atoms: C_1  and  O_2
REMARK    2  A    between atoms: O_2  and  C_3
REMARK    3  A    between atoms: C_14  and  N_28
REMARK    4  A    between atoms: C_15  and  N_19
REMARK    5  A    between atoms: N_19  and  C_20
REMARK                            x       y       z     vdW  Elec       q    Type
REMARK                         _______ _______ _______ _____ _____    ______ ____
ROOT
ATOM      1  C   UNL     1      -1.394  -0.680  -1.925  0.00  0.00    +0.121 A 
ATOM      2  C   UNL     1      -2.551   0.059  -1.698  0.00  0.00    +0.048 A 
ATOM      3  C   UNL     1      -3.750  -0.552  -1.439  0.00  0.00    +0.032 A 
ATOM      4  C   UNL     1      -3.849  -1.962  -1.395  0.00  0.00    +0.081 A 
ATOM      5  C   UNL     1      -2.656  -2.681  -1.630  0.00  0.00    +0.044 A 
ATOM      6  C   UNL     1      -1.458  -2.065  -1.894  0.00  0.00    +0.063 A 
ATOM      7  S   UNL     1      -3.197  -4.368  -1.491  0.00  0.00    -0.052 S 
ATOM      8  C   UNL     1      -4.915  -4.025  -1.140  0.00  0.00    +0.165 A 
ATOM      9  N   UNL     1      -4.948  -2.713  -1.155  0.00  0.00    -0.225 NA
ATOM     10  N   UNL     1      -5.948  -4.916  -0.912  0.00  0.00    -0.277 N 
ATOM     11  C   UNL     1      -7.231  -4.442  -0.654  0.00  0.00    +0.150 A 
ATOM     12  C   UNL     1      -8.280  -5.332  -0.417  0.00  0.00    +0.106 A 
ATOM     13  C   UNL     1      -9.548  -4.803  -0.163  0.00  0.00    +0.149 A 
ATOM     14  N   UNL     1      -9.705  -3.481  -0.156  0.00  0.00    -0.219 NA
ATOM     15  C   UNL     1      -8.687  -2.677  -0.385  0.00  0.00    +0.225 A 
ATOM     16  N   UNL     1      -7.475  -3.134  -0.624  0.00  0.00    -0.219 NA
ATOM     17  H   UNL     1      -5.779  -5.870  -0.932  0.00  0.00    +0.156 HD
ENDROOT
BRANCH  12  18
ATOM     18  N   UNL     1      -8.068  -6.719  -0.434  0.00  0.00    -0.353 N 
ATOM     19  H   UNL     1      -7.182  -7.071  -0.613  0.00  0.00    +0.143 HD
ATOM     20  H   UNL     1      -8.807  -7.325  -0.268  0.00  0.00    +0.143 HD
ENDBRANCH  12  18
BRANCH   1  22
ATOM     21  C   UNL     1      -0.232   1.377  -2.195  0.00  0.00    +0.277 C 
ATOM     22  O   UNL     1      -0.215  -0.051  -2.180  0.00  0.00    -0.495 OA
ENDBRANCH   1  22
BRANCH  13  23
ATOM     23  N   UNL     1     -10.628  -5.644   0.080  0.00  0.00    -0.297 N 
ATOM     24  H   UNL     1     -10.488  -6.600   0.168  0.00  0.00    +0.154 HD
BRANCH  23  25
ATOM     25  C   UNL     1     -11.916  -5.112   0.196  0.00  0.00    +0.052 A 
ATOM     26  C   UNL     1     -12.221  -3.893  -0.395  0.00  0.00    +0.044 A 
ATOM     27  C   UNL     1     -13.495  -3.370  -0.278  0.00  0.00    +0.043 A 
ATOM     28  C   UNL     1     -14.466  -4.061   0.426  0.00  0.00    +0.021 A 
ATOM     29  C   UNL     1     -14.165  -5.275   1.015  0.00  0.00    +0.023 A 
ATOM     30  C   UNL     1     -12.895  -5.806   0.898  0.00  0.00    +0.062 A 
ATOM     31 CL   UNL     1     -12.520  -7.334   1.631  0.00  0.00    -0.082 Cl
ATOM     32 CL   UNL     1     -13.878  -1.846  -1.016  0.00  0.00    -0.083 Cl
ENDBRANCH  23  25
ENDBRANCH  13  23
TORSDOF 4
