REMARK  Name = ZINC66402656
REMARK  7 active torsions:
REMARK  status: ('A' for Active; 'I' for Inactive)
REMARK    1  A    between atoms: C_1  and  C_2
REMARK    2  A    between atoms: C_5  and  C_27
REMARK    3  A    between atoms: C_6  and  C_8
REMARK    4  A    between atoms: C_8  and  C_10
REMARK    5  A    between atoms: C_8  and  N_11
REMARK    6  A    between atoms: N_14  and  C_15
REMARK    7  A    between atoms: C_17  and  C_23
REMARK                            x       y       z     vdW  Elec       q    Type
REMARK                         _______ _______ _______ _____ _____    ______ ____
ROOT
ATOM      1  N   UNL     1      -0.389  -2.027   3.631  0.00  0.00    -0.293 N 
ATOM      2  C   UNL     1      -0.945  -2.596   4.719  0.00  0.00    +0.304 C 
ATOM      3  O   UNL     1      -0.828  -3.792   4.906  0.00  0.00    -0.252 OA
ATOM      4  N   UNL     1      -1.631  -1.840   5.599  0.00  0.00    -0.265 N 
ATOM      5  H   UNL     1      -0.482  -1.074   3.481  0.00  0.00    +0.151 HD
ATOM      6  H   UNL     1      -1.662  -0.877   5.489  0.00  0.00    +0.157 HD
ENDROOT
BRANCH   4   7
ATOM      7  C   UNL     1      -2.299  -2.446   6.672  0.00  0.00    +0.100 A 
ATOM      8  C   UNL     1      -1.996  -2.099   7.960  0.00  0.00    +0.042 A 
ATOM      9  C   UNL     1      -2.680  -2.720   9.015  0.00  0.00    +0.073 A 
ATOM     10  C   UNL     1      -3.627  -3.650   8.754  0.00  0.00    +0.098 A 
ATOM     11  N   UNL     1      -3.929  -3.997   7.475  0.00  0.00    -0.327 N 
ATOM     12  H   UNL     1      -4.610  -4.666   7.308  0.00  0.00    +0.168 HD
ATOM     13  C   UNL     1      -3.296  -3.417   6.437  0.00  0.00    +0.270 A 
ATOM     14  O   UNL     1      -3.582  -3.734   5.293  0.00  0.00    -0.266 OA
BRANCH   9  15
ATOM     15  C   UNL     1      -2.360  -2.351  10.441  0.00  0.00    +0.419 C 
ATOM     16  F   UNL     1      -3.165  -3.097  11.308  0.00  0.00    -0.166 F 
ATOM     17  F   UNL     1      -1.013  -2.626  10.702  0.00  0.00    -0.166 F 
ATOM     18  F   UNL     1      -2.604  -0.987  10.636  0.00  0.00    -0.166 F 
ENDBRANCH   9  15
ENDBRANCH   4   7
BRANCH   1  19
ATOM     19  C   UNL     1       0.357  -2.849   2.674  0.00  0.00    +0.102 C 
ATOM     20  C   UNL     1       1.802  -3.003   3.152  0.00  0.00    +0.033 C 
BRANCH  19  26
ATOM     21  C   UNL     1      -0.032   1.286  -0.118  0.00  0.00    +0.044 C 
ATOM     22  C   UNL     1       0.155  -0.206  -0.014  0.00  0.00    -0.050 A 
ATOM     23  C   UNL     1       0.314  -0.965  -1.159  0.00  0.00    +0.003 A 
ATOM     24  C   UNL     1       0.486  -2.333  -1.063  0.00  0.00    +0.004 A 
ATOM     25  C   UNL     1       0.500  -2.943   0.177  0.00  0.00    -0.046 A 
ATOM     26  C   UNL     1       0.342  -2.184   1.322  0.00  0.00    -0.024 A 
ATOM     27  C   UNL     1       0.174  -0.815   1.227  0.00  0.00    +0.009 A 
ATOM     28  C   UNL     1       0.687  -4.434   0.281  0.00  0.00    +0.044 C 
ENDBRANCH  19  26
ENDBRANCH   1  19
TORSDOF 4
