REMARK  Name = ZINC40303553
REMARK  5 active torsions:
REMARK  status: ('A' for Active; 'I' for Inactive)
REMARK    1  A    between atoms: C_1  and  C_2
REMARK    2  A    between atoms: C_2  and  C_4
REMARK    3  A    between atoms: C_2  and  N_10
REMARK    4  A    between atoms: C_11  and  C_13
REMARK    5  A    between atoms: C_21  and  N_23
REMARK                            x       y       z     vdW  Elec       q    Type
REMARK                         _______ _______ _______ _____ _____    ______ ____
ROOT
ATOM      1  C   UNL     1       0.694  -1.082  -3.567  0.00  0.00    +0.062 A 
ATOM      2  C   UNL     1       2.007  -1.431  -3.675  0.00  0.00    +0.096 A 
ATOM      3  N   UNL     1       2.276  -1.819  -4.946  0.00  0.00    -0.360 N 
ATOM      4  H   UNL     1       3.145  -2.112  -5.263  0.00  0.00    +0.165 HD
ATOM      5  C   UNL     1       1.140  -1.738  -5.724  0.00  0.00    +0.049 A 
ATOM      6  C   UNL     1       0.098  -1.280  -4.902  0.00  0.00    +0.012 A 
ATOM      7  C   UNL     1      -1.182  -1.105  -5.424  0.00  0.00    +0.012 A 
ATOM      8  C   UNL     1      -1.424  -1.383  -6.740  0.00  0.00    +0.023 A 
ATOM      9  C   UNL     1      -0.398  -1.841  -7.564  0.00  0.00    +0.027 A 
ATOM     10  C   UNL     1       0.881  -2.013  -7.062  0.00  0.00    +0.049 A 
ENDROOT
BRANCH   1  12
ATOM     11  N   UNL     1       0.688  -0.476  -1.203  0.00  0.00    -0.305 N 
ATOM     12  C   UNL     1       0.006  -0.608  -2.358  0.00  0.00    +0.247 C 
ATOM     13  O   UNL     1      -1.179  -0.335  -2.400  0.00  0.00    -0.270 OA
ATOM     14  H   UNL     1       1.632  -0.695  -1.170  0.00  0.00    +0.150 HD
BRANCH  11  16
ATOM     15  C   UNL     1      -0.019   1.526   0.010  0.00  0.00    +0.033 C 
ATOM     16  C   UNL     1       0.002  -0.004   0.002  0.00  0.00    +0.100 C 
BRANCH  16  17
ATOM     17  C   UNL     1       0.731  -0.503   1.223  0.00  0.00    -0.025 A 
ATOM     18  C   UNL     1       2.117  -0.521   1.264  0.00  0.00    +0.025 A 
ATOM     19  C   UNL     1       2.751  -0.986   2.401  0.00  0.00    +0.111 A 
ATOM     20  N   UNL     1       2.053  -1.409   3.437  0.00  0.00    -0.263 NA
ATOM     21  C   UNL     1       0.734  -1.407   3.433  0.00  0.00    +0.111 A 
ATOM     22  C   UNL     1       0.032  -0.951   2.333  0.00  0.00    +0.025 A 
ENDBRANCH  16  17
ENDBRANCH  11  16
ENDBRANCH   1  12
BRANCH   9  23
ATOM     23  N   UNL     1      -0.659  -2.122  -8.908  0.00  0.00    -0.358 N 
ATOM     24  H   UNL     1      -1.553  -1.998  -9.264  0.00  0.00    +0.142 HD
ATOM     25  H   UNL     1       0.052  -2.441  -9.485  0.00  0.00    +0.142 HD
ENDBRANCH   9  23
TORSDOF 4
