REMARK  Name = ZINC63772489
REMARK  7 active torsions:
REMARK  status: ('A' for Active; 'I' for Inactive)
REMARK    1  A    between atoms: C_7  and  C_26
REMARK    2  A    between atoms: N_9  and  C_10
REMARK    3  A    between atoms: C_12  and  O_25
REMARK    4  A    between atoms: C_14  and  O_24
REMARK    5  A    between atoms: C_16  and  O_23
REMARK    6  A    between atoms: C_18  and  C_21
REMARK    7  A    between atoms: C_21  and  O_22
REMARK                            x       y       z     vdW  Elec       q    Type
REMARK                         _______ _______ _______ _____ _____    ______ ____
ROOT
ATOM      1  C   UNL     1       4.881  -0.515  -0.050  0.00  0.00    +0.251 C 
ATOM      2  C   UNL     1       5.331  -0.156   1.369  0.00  0.00    +0.195 C 
ATOM      3  C   UNL     1       5.165  -1.381   2.274  0.00  0.00    +0.178 C 
ATOM      4  C   UNL     1       5.965  -2.548   1.688  0.00  0.00    +0.177 C 
ATOM      5  C   UNL     1       5.491  -2.814   0.257  0.00  0.00    +0.177 C 
ATOM      6  O   UNL     1       5.644  -1.626  -0.523  0.00  0.00    -0.346 OA
ENDROOT
BRANCH   1  15
ATOM      7  C   UNL     1       1.131  -3.335  -2.403  0.00  0.00    +0.001 A 
ATOM      8  C   UNL     1       2.474  -3.256  -2.739  0.00  0.00    +0.002 A 
ATOM      9  C   UNL     1       3.334  -2.462  -2.013  0.00  0.00    +0.026 A 
ATOM     10  C   UNL     1       2.857  -1.729  -0.931  0.00  0.00    +0.052 A 
ATOM     11  C   UNL     1       1.497  -1.810  -0.593  0.00  0.00    +0.010 A 
ATOM     12  C   UNL     1       0.639  -2.617  -1.335  0.00  0.00    +0.011 A 
ATOM     13  C   UNL     1       1.320  -0.930   0.579  0.00  0.00    +0.039 A 
ATOM     14  C   UNL     1       2.562  -0.397   0.850  0.00  0.00    +0.100 A 
ATOM     15  N   UNL     1       3.459  -0.868  -0.036  0.00  0.00    -0.318 N 
BRANCH  13  16
ATOM     16  C   UNL     1       0.115  -0.682   1.282  0.00  0.00    +0.260 C 
ATOM     17  O   UNL     1       0.112   0.070   2.235  0.00  0.00    -0.296 OA
ENDBRANCH  13  16
ENDBRANCH   1  15
BRANCH   4  18
ATOM     18  O   UNL     1       7.355  -2.216   1.678  0.00  0.00    -0.386 OA
ATOM     19  H   UNL     1       7.721  -2.030   2.553  0.00  0.00    +0.210 HD
ENDBRANCH   4  18
BRANCH   3  20
ATOM     20  O   UNL     1       3.782  -1.736   2.348  0.00  0.00    -0.386 OA
ATOM     21  H   UNL     1       3.603  -2.505   2.906  0.00  0.00    +0.210 HD
ENDBRANCH   3  20
BRANCH   2  22
ATOM     22  O   UNL     1       4.532   0.919   1.866  0.00  0.00    -0.385 OA
ATOM     23  H   UNL     1       4.762   1.199   2.763  0.00  0.00    +0.210 HD
ENDBRANCH   2  22
BRANCH   5  24
ATOM     24  C   UNL     1       6.326  -3.939  -0.356  0.00  0.00    +0.190 C 
BRANCH  24  25
ATOM     25  O   UNL     1       5.809  -4.267  -1.647  0.00  0.00    -0.392 OA
ATOM     26  H   UNL     1       6.291  -4.975  -2.096  0.00  0.00    +0.210 HD
ENDBRANCH  24  25
ENDBRANCH   5  24
TORSDOF 7
