REMARK  Name = ZINC12570126
REMARK  13 active torsions:
REMARK  status: ('A' for Active; 'I' for Inactive)
REMARK    1  A    between atoms: C_1  and  C_2
REMARK    2  A    between atoms: C_5  and  N_9
REMARK    3  A    between atoms: C_7  and  C_8
REMARK    4  A    between atoms: C_10  and  C_12
REMARK    5  A    between atoms: C_12  and  C_13
REMARK    6  A    between atoms: C_13  and  C_14
REMARK    7  A    between atoms: N_16  and  N_17
REMARK    8  A    between atoms: N_17  and  C_18
REMARK    9  A    between atoms: C_18  and  N_20
REMARK   10  A    between atoms: C_21  and  C_23
REMARK   11  A    between atoms: C_23  and  C_25
REMARK   12  A    between atoms: C_23  and  O_26
REMARK   13  A    between atoms: O_26  and  C_27
REMARK                            x       y       z     vdW  Elec       q    Type
REMARK                         _______ _______ _______ _____ _____    ______ ____
ROOT
ATOM      1  N   UNL     1       6.905   1.976  -0.059  0.00  0.00    -0.246 N 
ATOM      2  H   UNL     1       6.866   2.926   0.138  0.00  0.00    +0.172 HD
ENDROOT
BRANCH   1   5
ATOM      3  C   UNL     1       4.597   1.976  -0.644  0.00  0.00    +0.230 C 
ATOM      4  O   UNL     1       4.549   3.163  -0.398  0.00  0.00    -0.274 OA
ATOM      5  N   UNL     1       5.756   1.304  -0.496  0.00  0.00    -0.235 N 
ATOM      6  H   UNL     1       5.795   0.355  -0.693  0.00  0.00    +0.173 HD
BRANCH   3   7
ATOM      7  C   UNL     1       3.362   1.253  -1.114  0.00  0.00    +0.106 C 
BRANCH   7   8
ATOM      8  C   UNL     1       2.194   2.239  -1.196  0.00  0.00    +0.105 C 
BRANCH   8  10
ATOM      9  N   UNL     1      -0.199   2.189  -1.820  0.00  0.00    -0.285 N 
ATOM     10  C   UNL     1       0.958   1.516  -1.667  0.00  0.00    +0.218 C 
ATOM     11  O   UNL     1       1.007   0.329  -1.913  0.00  0.00    -0.275 OA
ATOM     12  H   UNL     1      -0.260   3.117  -1.545  0.00  0.00    +0.155 HD
BRANCH   9  17
ATOM     13  C   UNL     1      -4.715  -0.407  -4.068  0.00  0.00    +0.044 C 
ATOM     14  C   UNL     1      -3.515   0.283  -3.471  0.00  0.00    -0.047 A 
ATOM     15  C   UNL     1      -2.244  -0.046  -3.904  0.00  0.00    +0.005 A 
ATOM     16  C   UNL     1      -1.143   0.588  -3.363  0.00  0.00    +0.023 A 
ATOM     17  C   UNL     1      -1.313   1.549  -2.374  0.00  0.00    +0.034 A 
ATOM     18  C   UNL     1      -2.591   1.876  -1.941  0.00  0.00    +0.027 A 
ATOM     19  C   UNL     1      -3.688   1.243  -2.491  0.00  0.00    -0.046 A 
ATOM     20  C   UNL     1      -5.076   1.598  -2.022  0.00  0.00    +0.044 C 
ENDBRANCH   9  17
ENDBRANCH   8  10
ENDBRANCH   7   8
ENDBRANCH   3   7
ENDBRANCH   1   5
BRANCH   1  21
ATOM     21  C   UNL     1       8.064   1.304   0.089  0.00  0.00    +0.153 C 
ATOM     22  S   UNL     1       9.468   2.126   0.623  0.00  0.00    -0.017 S 
BRANCH  21  23
ATOM     23  N   UNL     1       8.118  -0.014  -0.184  0.00  0.00    -0.264 N 
ATOM     24  C   UNL     1       9.277  -0.686  -0.037  0.00  0.00    +0.259 C 
ATOM     25  O   UNL     1      10.271  -0.104   0.342  0.00  0.00    -0.271 OA
ATOM     26  H   UNL     1       7.322  -0.480  -0.487  0.00  0.00    +0.157 HD
BRANCH  24  27
ATOM     27  C   UNL     1       9.337  -2.161  -0.342  0.00  0.00    +0.256 C 
ATOM     28  C   UNL     1       8.451  -2.923   0.646  0.00  0.00    +0.062 C 
BRANCH  27  29
ATOM     29  O   UNL     1      10.685  -2.617  -0.223  0.00  0.00    -0.478 OA
BRANCH  29  30
ATOM     30  C   UNL     1      11.025  -3.729  -0.928  0.00  0.00    +0.140 A 
ATOM     31  C   UNL     1      10.055  -4.433  -1.625  0.00  0.00    +0.048 A 
ATOM     32  C   UNL     1      10.403  -5.559  -2.345  0.00  0.00    +0.023 A 
ATOM     33  C   UNL     1      11.717  -5.992  -2.363  0.00  0.00    +0.043 A 
ATOM     34  C   UNL     1      12.686  -5.295  -1.664  0.00  0.00    +0.043 A 
ATOM     35  C   UNL     1      12.343  -4.164  -0.947  0.00  0.00    +0.084 A 
ATOM     36 CL   UNL     1      13.560  -3.289  -0.070  0.00  0.00    -0.080 Cl
ATOM     37 CL   UNL     1      12.150  -7.412  -3.263  0.00  0.00    -0.083 Cl
ENDBRANCH  29  30
ENDBRANCH  27  29
ENDBRANCH  24  27
ENDBRANCH  21  23
ENDBRANCH   1  21
TORSDOF 10
