REMARK  Name = ZINC57526128
REMARK  11 active torsions:
REMARK  status: ('A' for Active; 'I' for Inactive)
REMARK    1  A    between atoms: C_1  and  C_2
REMARK    2  A    between atoms: C_2  and  C_3
REMARK    3  A    between atoms: C_2  and  C_4
REMARK    4  A    between atoms: C_4  and  C_5
REMARK    5  A    between atoms: C_5  and  N_6
REMARK    6  A    between atoms: N_15  and  C_18
REMARK    7  A    between atoms: C_18  and  C_19
REMARK    8  A    between atoms: N_21  and  C_22
REMARK    9  A    between atoms: C_22  and  C_23
REMARK   10  A    between atoms: C_22  and  C_24
REMARK   11  A    between atoms: C_22  and  C_25
REMARK                            x       y       z     vdW  Elec       q    Type
REMARK                         _______ _______ _______ _____ _____    ______ ____
ROOT
ATOM      1  N   UNL     1      -2.790  -2.565  -0.111  0.00  0.00    -0.260 N 
ATOM      2  C   UNL     1      -3.367  -2.891   1.066  0.00  0.00    +0.264 A 
ATOM      3  O   UNL     1      -2.760  -2.770   2.113  0.00  0.00    -0.267 OA
ATOM      4  C   UNL     1      -4.750  -3.399   1.049  0.00  0.00    +0.063 A 
ATOM      5  C   UNL     1      -5.414  -3.756   2.220  0.00  0.00    +0.015 A 
ATOM      6  C   UNL     1      -6.709  -4.225   2.150  0.00  0.00    +0.001 A 
ATOM      7  C   UNL     1      -7.349  -4.342   0.926  0.00  0.00    +0.002 A 
ATOM      8  C   UNL     1      -6.702  -3.991  -0.242  0.00  0.00    +0.027 A 
ATOM      9  C   UNL     1      -5.400  -3.517  -0.192  0.00  0.00    +0.059 A 
ATOM     10  N   UNL     1      -4.714  -3.153  -1.342  0.00  0.00    -0.284 N 
ATOM     11  C   UNL     1      -3.454  -2.691  -1.270  0.00  0.00    +0.333 A 
ATOM     12  O   UNL     1      -2.890  -2.378  -2.301  0.00  0.00    -0.246 OA
ENDROOT
BRANCH   1  13
ATOM     13  C   UNL     1      -1.416  -2.058  -0.121  0.00  0.00    +0.130 C 
BRANCH  13  14
ATOM     14  C   UNL     1      -1.433  -0.534   0.013  0.00  0.00    +0.025 C 
BRANCH  14  16
ATOM     15  C   UNL     1      -0.019   1.526   0.010  0.00  0.00    +0.007 C 
ATOM     16  C   UNL     1       0.002  -0.004   0.002  0.00  0.00    -0.016 C 
ATOM     17  C   UNL     1       0.742  -0.511   1.242  0.00  0.00    +0.007 C 
ENDBRANCH  14  16
ENDBRANCH  13  14
ENDBRANCH   1  13
BRANCH  10  18
ATOM     18  C   UNL     1      -5.372  -3.268  -2.646  0.00  0.00    +0.222 C 
BRANCH  18  19
ATOM     19  C   UNL     1      -6.086  -1.980  -2.964  0.00  0.00    +0.233 C 
ATOM     20  O   UNL     1      -6.050  -1.056  -2.179  0.00  0.00    -0.274 OA
ATOM     21  N   UNL     1      -6.765  -1.854  -4.121  0.00  0.00    -0.309 N 
ATOM     22  H   UNL     1      -6.795  -2.593  -4.749  0.00  0.00    +0.149 HD
BRANCH  21  23
ATOM     23  C   UNL     1      -7.460  -0.602  -4.431  0.00  0.00    +0.026 C 
ATOM     24  C   UNL     1      -6.449   0.546  -4.469  0.00  0.00    +0.031 C 
ATOM     25  C   UNL     1      -8.146  -0.723  -5.793  0.00  0.00    +0.031 C 
ATOM     26  C   UNL     1      -8.509  -0.321  -3.354  0.00  0.00    +0.031 C 
ENDBRANCH  21  23
ENDBRANCH  18  19
ENDBRANCH  10  18
TORSDOF 6
