REMARK  Name = ZINC66402321
REMARK  6 active torsions:
REMARK  status: ('A' for Active; 'I' for Inactive)
REMARK    1  A    between atoms: C_1  and  C_2
REMARK    2  A    between atoms: C_2  and  C_4
REMARK    3  A    between atoms: C_2  and  N_13
REMARK    4  A    between atoms: C_8  and  N_10
REMARK    5  A    between atoms: N_16  and  C_17
REMARK    6  A    between atoms: C_19  and  C_25
REMARK                            x       y       z     vdW  Elec       q    Type
REMARK                         _______ _______ _______ _____ _____    ______ ____
ROOT
ATOM      1  N   UNL     1       0.737  -0.328   1.236  0.00  0.00    -0.293 N 
ATOM      2  C   UNL     1       2.080  -0.443   1.235  0.00  0.00    +0.304 C 
ATOM      3  O   UNL     1       2.728  -0.002   0.305  0.00  0.00    -0.252 OA
ATOM      4  N   UNL     1       2.706  -1.046   2.266  0.00  0.00    -0.265 N 
ATOM      5  H   UNL     1       0.221  -0.680   1.978  0.00  0.00    +0.151 HD
ATOM      6  H   UNL     1       2.198  -1.332   3.041  0.00  0.00    +0.157 HD
ENDROOT
BRANCH   4   7
ATOM      7  C   UNL     1       4.090  -1.261   2.216  0.00  0.00    +0.100 A 
ATOM      8  C   UNL     1       4.907  -0.737   3.181  0.00  0.00    +0.042 A 
ATOM      9  C   UNL     1       6.288  -0.968   3.108  0.00  0.00    +0.073 A 
ATOM     10  C   UNL     1       6.800  -1.700   2.093  0.00  0.00    +0.098 A 
ATOM     11  N   UNL     1       5.990  -2.221   1.133  0.00  0.00    -0.327 N 
ATOM     12  H   UNL     1       6.376  -2.744   0.413  0.00  0.00    +0.168 HD
ATOM     13  C   UNL     1       4.658  -2.025   1.174  0.00  0.00    +0.270 A 
ATOM     14  O   UNL     1       3.943  -2.504   0.308  0.00  0.00    -0.266 OA
BRANCH   9  15
ATOM     15  C   UNL     1       7.203  -0.398   4.162  0.00  0.00    +0.419 C 
ATOM     16  F   UNL     1       8.524  -0.759   3.877  0.00  0.00    -0.166 F 
ATOM     17  F   UNL     1       7.092   0.997   4.171  0.00  0.00    -0.166 F 
ATOM     18  F   UNL     1       6.841  -0.903   5.416  0.00  0.00    -0.166 F 
ENDBRANCH   9  15
ENDBRANCH   4   7
BRANCH   1  20
ATOM     19  C   UNL     1       0.040   1.840   0.346  0.00  0.00    +0.033 C 
ATOM     20  C   UNL     1       0.058   0.328   0.116  0.00  0.00    +0.102 C 
BRANCH  20  21
ATOM     21  C   UNL     1      -1.357  -0.182   0.019  0.00  0.00    -0.025 A 
ATOM     22  C   UNL     1      -2.096  -0.395   1.168  0.00  0.00    +0.005 A 
ATOM     23  C   UNL     1      -3.393  -0.862   1.079  0.00  0.00    +0.003 A 
ATOM     24  C   UNL     1      -3.953  -1.117  -0.159  0.00  0.00    +0.033 A 
ATOM     25  C   UNL     1      -3.215  -0.904  -1.308  0.00  0.00    +0.127 A 
ATOM     26  C   UNL     1      -1.918  -0.432  -1.219  0.00  0.00    +0.038 A 
BRANCH  25  27
ATOM     27  N   UNL     1      -3.814  -1.177  -2.634  0.00  0.00    +0.056 N 
ATOM     28  O   UNL     1      -4.948  -1.587  -2.712  0.00  0.00    -0.126 OA
ATOM     29  O   UNL     1      -3.168  -0.990  -3.639  0.00  0.00    -0.126 OA
ENDBRANCH  25  27
ENDBRANCH  20  21
ENDBRANCH   1  20
TORSDOF 5
