REMARK  Name = ZINC40024005
REMARK  7 active torsions:
REMARK  status: ('A' for Active; 'I' for Inactive)
REMARK    1  A    between atoms: C_1  and  C_2
REMARK    2  A    between atoms: C_9  and  N_14
REMARK    3  A    between atoms: N_17  and  C_18
REMARK    4  A    between atoms: C_18  and  C_20
REMARK    5  A    between atoms: C_18  and  C_25
REMARK    6  A    between atoms: C_25  and  C_26
REMARK    7  A    between atoms: C_25  and  C_27
REMARK                            x       y       z     vdW  Elec       q    Type
REMARK                         _______ _______ _______ _____ _____    ______ ____
ROOT
ATOM      1  N   UNL     1       6.197   0.088   1.141  0.00  0.00    -0.269 N 
ATOM      2  C   UNL     1       6.845   0.414   2.277  0.00  0.00    +0.304 C 
ATOM      3  O   UNL     1       6.233   0.494   3.324  0.00  0.00    -0.252 OA
ATOM      4  N   UNL     1       8.171   0.651   2.251  0.00  0.00    -0.292 N 
ATOM      5  H   UNL     1       6.695  -0.042   0.319  0.00  0.00    +0.156 HD
ATOM      6  H   UNL     1       8.660   0.587   1.416  0.00  0.00    +0.151 HD
ENDROOT
BRANCH   1  14
ATOM      7  C   UNL     1       0.458  -2.920   1.122  0.00  0.00    +0.062 C 
ATOM      8  C   UNL     1       0.184  -1.630   1.899  0.00  0.00    +0.256 C 
ATOM      9  C   UNL     1       0.858  -1.703   3.245  0.00  0.00    +0.258 C 
ATOM     10  O   UNL     1       0.257  -2.140   4.204  0.00  0.00    -0.271 OA
ATOM     11  N   UNL     1       2.133  -1.279   3.380  0.00  0.00    -0.279 N 
ATOM     12  C   UNL     1       2.793  -0.744   2.264  0.00  0.00    +0.077 A 
ATOM     13  C   UNL     1       4.170  -0.597   2.262  0.00  0.00    +0.050 A 
ATOM     14  C   UNL     1       4.804  -0.064   1.148  0.00  0.00    +0.037 A 
ATOM     15  C   UNL     1       4.059   0.318   0.040  0.00  0.00    +0.027 A 
ATOM     16  C   UNL     1       2.684   0.170   0.042  0.00  0.00    +0.049 A 
ATOM     17  C   UNL     1       2.048  -0.360   1.150  0.00  0.00    +0.143 A 
ATOM     18  O   UNL     1       0.697  -0.515   1.165  0.00  0.00    -0.478 OA
ATOM     19  H   UNL     1       2.585  -1.342   4.236  0.00  0.00    +0.155 HD
ENDBRANCH   1  14
BRANCH   4  20
ATOM     20  C   UNL     1       8.876   1.006   3.486  0.00  0.00    +0.114 C 
BRANCH  20  21
ATOM     21  C   UNL     1      10.329   0.628   3.362  0.00  0.00    +0.010 A 
ATOM     22  C   UNL     1      11.150   0.075   4.288  0.00  0.00    +0.013 A 
ATOM     23  C   UNL     1      12.463  -0.189   3.948  0.00  0.00    +0.008 A 
ATOM     24  C   UNL     1      12.892   0.112   2.697  0.00  0.00    +0.045 A 
ATOM     25  S   UNL     1      11.415   0.785   1.953  0.00  0.00    -0.100 S 
ENDBRANCH  20  21
BRANCH  20  26
ATOM     26  C   UNL     1       8.759   2.513   3.725  0.00  0.00    +0.008 C 
ATOM     27  C   UNL     1       7.284   2.897   3.851  0.00  0.00    +0.009 C 
ATOM     28  C   UNL     1       9.495   2.883   5.014  0.00  0.00    +0.009 C 
ENDBRANCH  20  26
ENDBRANCH   4  20
TORSDOF 4
