REMARK  Name = ZINC32741542
REMARK  4 active torsions:
REMARK  status: ('A' for Active; 'I' for Inactive)
REMARK    1  A    between atoms: N_11  and  C_15
REMARK    2  A    between atoms: C_15  and  C_16
REMARK    3  A    between atoms: C_16  and  S_17
REMARK    4  A    between atoms: S_17  and  C_18
REMARK                            x       y       z     vdW  Elec       q    Type
REMARK                         _______ _______ _______ _____ _____    ______ ____
ROOT
ATOM      1  C   UNL     1      -1.182  -0.651   0.004  0.00  0.00    +0.002 A 
ATOM      2  C   UNL     1       0.002   0.027  -0.003  0.00  0.00    +0.009 A 
ATOM      3  C   UNL     1      -0.021   1.431   0.008  0.00  0.00    -0.014 A 
ATOM      4  C   UNL     1       1.141   2.220   0.003  0.00  0.00    +0.009 A 
ATOM      5  C   UNL     1       1.037   3.580   0.015  0.00  0.00    +0.003 A 
ATOM      6  C   UNL     1      -0.212   4.214   0.034  0.00  0.00    +0.029 A 
ATOM      7  C   UNL     1      -1.338   3.477   0.039  0.00  0.00    +0.118 A 
ATOM      8  C   UNL     1      -1.274   2.079   0.032  0.00  0.00    +0.031 A 
ATOM      9  C   UNL     1      -2.484   1.389   0.033  0.00  0.00    +0.061 A 
ATOM     10  C   UNL     1      -2.410  -0.003   0.021  0.00  0.00    +0.025 A 
ATOM     11  N   UNL     1      -3.637   2.190   0.052  0.00  0.00    -0.202 N 
ATOM     12  S   UNL     1      -3.083   3.773   0.059  0.00  0.00    +0.075 S 
ATOM     13  O   UNL     1      -3.438   4.363  -1.184  0.00  0.00    -0.150 OA
ATOM     14  O   UNL     1      -3.412   4.341   1.320  0.00  0.00    -0.150 OA
ENDROOT
BRANCH  11  15
ATOM     15  C   UNL     1      -5.031   1.739   0.061  0.00  0.00    +0.142 C 
BRANCH  15  16
ATOM     16  C   UNL     1      -5.463   1.449   1.500  0.00  0.00    +0.098 C 
BRANCH  16  17
ATOM     17  S   UNL     1      -7.189   0.890   1.512  0.00  0.00    -0.083 S 
BRANCH  17  18
ATOM     18  C   UNL     1      -7.531   0.602   3.216  0.00  0.00    +0.210 A 
ATOM     19  N   UNL     1      -8.720   0.169   3.735  0.00  0.00    -0.188 NA
ATOM     20  H   UNL     1      -6.832   0.509   6.361  0.00  0.00    +0.192 HD
ATOM     21  C   UNL     1      -8.579   0.076   5.091  0.00  0.00    +0.209 A 
ATOM     22  N   UNL     1      -7.358   0.436   5.398  0.00  0.00    -0.246 N 
ATOM     23  N   UNL     1      -6.692   0.765   4.210  0.00  0.00    -0.144 NA
ATOM     24  N   UNL     1      -9.560  -0.329   5.987  0.00  0.00    -0.328 N 
ATOM     25  H   UNL     1      -9.339  -0.368   7.064  0.00  0.00    +0.145 HD
ATOM     26  H   UNL     1     -10.558  -0.611   5.620  0.00  0.00    +0.145 HD
ENDBRANCH  17  18
ENDBRANCH  16  17
ENDBRANCH  15  16
ENDBRANCH  11  15
TORSDOF 4
