REMARK  Name = ZINC05022350
REMARK  5 active torsions:
REMARK  status: ('A' for Active; 'I' for Inactive)
REMARK    1  A    between atoms: C_3  and  C_6
REMARK    2  A    between atoms: C_6  and  N_7
REMARK    3  A    between atoms: C_11  and  N_12
REMARK    4  A    between atoms: N_12  and  C_13
REMARK    5  A    between atoms: C_14  and  C_22
REMARK                            x       y       z     vdW  Elec       q    Type
REMARK                         _______ _______ _______ _____ _____    ______ ____
ROOT
ATOM      1  N   UNL     1       4.072   0.607   1.357  0.00  0.00    -0.214 N 
ATOM      2  C   UNL     1       4.320   1.776   1.984  0.00  0.00    +0.261 C 
ATOM      3  O   UNL     1       4.113   2.839   1.429  0.00  0.00    -0.269 OA
ATOM      4  C   UNL     1       4.850   1.730   3.359  0.00  0.00    +0.113 C 
ATOM      5  C   UNL     1       5.128   2.886   4.064  0.00  0.00    +0.090 C 
ATOM      6  C   UNL     1       5.069   0.398   3.949  0.00  0.00    +0.258 C 
ATOM      7  O   UNL     1       5.504   0.279   5.080  0.00  0.00    -0.270 OA
ATOM      8  N   UNL     1       4.775  -0.687   3.203  0.00  0.00    -0.235 N 
ATOM      9  C   UNL     1       4.291  -0.571   1.958  0.00  0.00    +0.316 C 
ATOM     10  O   UNL     1       4.042  -1.587   1.340  0.00  0.00    -0.252 OA
ATOM     11  H   UNL     1       4.914  -1.571   3.576  0.00  0.00    +0.159 HD
ENDROOT
BRANCH   5  12
ATOM     12  N   UNL     1       5.492   2.815   5.362  0.00  0.00    -0.313 N 
ATOM     13  H   UNL     1       5.630   1.950   5.780  0.00  0.00    +0.152 HD
BRANCH  12  14
ATOM     14  C   UNL     1       5.667   3.976   6.098  0.00  0.00    +0.087 A 
ATOM     15  C   UNL     1       6.040   4.094   7.427  0.00  0.00    +0.084 A 
ATOM     16  C   UNL     1       6.156   5.436   7.968  0.00  0.00    -0.018 A 
ATOM     17  C   UNL     1       5.876   6.416   7.080  0.00  0.00    -0.004 A 
ATOM     18  S   UNL     1       5.484   5.563   5.580  0.00  0.00    -0.077 S 
ATOM     19  C   UNL     1       5.904   7.892   7.331  0.00  0.00    +0.043 C 
ATOM     20  C   UNL     1       5.930   8.122   8.849  0.00  0.00    +0.005 C 
ATOM     21  C   UNL     1       7.001   7.220   9.469  0.00  0.00    +0.005 C 
ATOM     22  C   UNL     1       6.554   5.758   9.401  0.00  0.00    +0.037 C 
BRANCH  15  23
ATOM     23  C   UNL     1       6.301   2.940   8.233  0.00  0.00    +0.102 C 
ATOM     24  N   UNL     1       6.508   2.024   8.873  0.00  0.00    -0.191 NA
ENDBRANCH  15  23
ENDBRANCH  12  14
ENDBRANCH   5  12
BRANCH   1  25
ATOM     25  C   UNL     1       3.545   0.626  -0.009  0.00  0.00    +0.192 C 
BRANCH  25  28
ATOM     26  C   UNL     1      -0.075   1.309   0.098  0.00  0.00    +0.041 A 
ATOM     27  C   UNL     1       1.268   1.749   0.065  0.00  0.00    +0.046 A 
ATOM     28  C   UNL     1       2.038   0.647   0.033  0.00  0.00    +0.123 A 
ATOM     29  O   UNL     1       1.238  -0.431   0.046  0.00  0.00    -0.466 OA
ATOM     30  C   UNL     1      -0.045  -0.036   0.085  0.00  0.00    +0.195 A 
ENDBRANCH  25  28
ENDBRANCH   1  25
TORSDOF 5
