REMARK  Name = ZINC00938454
REMARK  7 active torsions:
REMARK  status: ('A' for Active; 'I' for Inactive)
REMARK    1  A    between atoms: C_1  and  C_2
REMARK    2  A    between atoms: C_9  and  N_15
REMARK    3  A    between atoms: C_10  and  C_11
REMARK    4  A    between atoms: C_11  and  O_13
REMARK    5  A    between atoms: O_13  and  C_14
REMARK    6  A    between atoms: C_16  and  C_18
REMARK    7  A    between atoms: C_18  and  C_19
REMARK                            x       y       z     vdW  Elec       q    Type
REMARK                         _______ _______ _______ _____ _____    ______ ____
ROOT
ATOM      1  N   UNL     1       1.466   2.081   2.486  0.00  0.00    -0.279 N 
ATOM      2  C   UNL     1       2.213   2.520   3.519  0.00  0.00    +0.219 C 
ATOM      3  O   UNL     1       3.239   3.132   3.309  0.00  0.00    -0.275 OA
ATOM      4  H   UNL     1       0.646   1.592   2.655  0.00  0.00    +0.155 HD
ENDROOT
BRANCH   1  12
ATOM      5  C   UNL     1       4.132   3.623  -4.705  0.00  0.00    +0.008 C 
ATOM      6  C   UNL     1       3.487   2.895  -3.525  0.00  0.00    -0.009 C 
ATOM      7  C   UNL     1       1.962   2.962  -3.651  0.00  0.00    +0.008 C 
ATOM      8  C   UNL     1       1.314   2.033  -2.624  0.00  0.00    +0.037 C 
ATOM      9  C   UNL     1       1.880   2.354  -1.246  0.00  0.00    -0.021 A 
ATOM     10  C   UNL     1       3.035   3.040  -1.111  0.00  0.00    -0.004 A 
ATOM     11  S   UNL     1       3.284   3.169   0.637  0.00  0.00    -0.077 S 
ATOM     12  C   UNL     1       1.871   2.329   1.184  0.00  0.00    +0.086 A 
ATOM     13  C   UNL     1       1.244   1.962   0.001  0.00  0.00    +0.091 A 
ATOM     14  C   UNL     1       3.905   3.569  -2.210  0.00  0.00    +0.046 C 
BRANCH  13  15
ATOM     15  C   UNL     1      -0.014   1.212   0.009  0.00  0.00    +0.342 C 
ATOM     16  O   UNL     1       0.002  -0.004   0.002  0.00  0.00    -0.245 OA
BRANCH  15  17
ATOM     17  O   UNL     1      -1.192   1.871   0.018  0.00  0.00    -0.464 OA
ATOM     18  C   UNL     1      -2.398   1.063   0.019  0.00  0.00    +0.280 C 
ENDBRANCH  15  17
ENDBRANCH  13  15
ENDBRANCH   1  12
BRANCH   2  19
ATOM     19  C   UNL     1       1.773   2.251   4.935  0.00  0.00    +0.120 C 
BRANCH  19  20
ATOM     20  C   UNL     1       2.789   2.851   5.908  0.00  0.00    +0.146 C 
ATOM     21  C   UNL     1       2.293   2.693   7.322  0.00  0.00    +0.231 C 
ATOM     22  O   UNL     1       1.743   3.636   7.849  0.00  0.00    -0.274 OA
ATOM     23  N   UNL     1       2.431   1.570   8.019  0.00  0.00    -0.284 N 
ATOM     24  C   UNL     1       3.125   0.429   7.630  0.00  0.00    +0.047 A 
ATOM     25  C   UNL     1       2.911  -0.765   8.311  0.00  0.00    +0.024 A 
ATOM     26  C   UNL     1       3.584  -1.911   7.938  0.00  0.00    +0.002 A 
ATOM     27  C   UNL     1       4.487  -1.884   6.891  0.00  0.00    +0.001 A 
ATOM     28  C   UNL     1       4.724  -0.701   6.216  0.00  0.00    +0.016 A 
ATOM     29  C   UNL     1       4.054   0.453   6.589  0.00  0.00    +0.030 A 
ATOM     30  S   UNL     1       4.376   1.975   5.754  0.00  0.00    -0.110 S 
ATOM     31  H   UNL     1       2.003   1.544   8.889  0.00  0.00    +0.155 HD
ENDBRANCH  19  20
ENDBRANCH   2  19
TORSDOF 5
