REMARK  Name = ZINC39464331
REMARK  4 active torsions:
REMARK  status: ('A' for Active; 'I' for Inactive)
REMARK    1  A    between atoms: C_1  and  O_2
REMARK    2  A    between atoms: O_2  and  C_3
REMARK    3  A    between atoms: P_14  and  C_20
REMARK    4  A    between atoms: C_25  and  O_26
REMARK                            x       y       z     vdW  Elec       q    Type
REMARK                         _______ _______ _______ _____ _____    ______ ____
ROOT
ATOM      1  C   UNL     1      -1.200  -0.637   0.010  0.00  0.00    +0.133 A 
ATOM      2  C   UNL     1      -2.375   0.098   0.019  0.00  0.00    +0.050 A 
ATOM      3  C   UNL     1      -3.602  -0.545   0.028  0.00  0.00    -0.038 A 
ATOM      4  C   UNL     1      -3.659  -1.923   0.028  0.00  0.00    -0.022 A 
ATOM      5  C   UNL     1      -2.483  -2.660   0.018  0.00  0.00    +0.023 A 
ATOM      6  C   UNL     1      -1.258  -2.024   0.003  0.00  0.00    +0.055 A 
ATOM      7  I   UNL     1       0.509  -3.149  -0.020  0.00  0.00    -0.040 I 
ATOM      8  C   UNL     1      -4.967  -2.670   0.039  0.00  0.00    +0.129 C 
ATOM      9  C   UNL     1      -4.880  -3.845  -0.939  0.00  0.00    +0.194 C 
ATOM     10  O   UNL     1      -6.089  -4.622  -0.836  0.00  0.00    -0.311 OA
ATOM     11  P   UNL     1      -7.515  -3.844  -0.921  0.00  0.00    +0.318 P 
ATOM     12  O   UNL     1      -8.574  -4.643  -0.265  0.00  0.00    -0.266 OA
ATOM     13  N   UNL     1      -7.292  -2.419  -0.113  0.00  0.00    -0.175 NA
ATOM     14  N   UNL     1      -6.080  -1.791  -0.319  0.00  0.00    -0.225 NA
ATOM     15  C   UNL     1      -6.042  -0.547   0.465  0.00  0.00    +0.108 C 
ATOM     16  C   UNL     1      -4.854   0.294   0.035  0.00  0.00    +0.052 C 
ATOM     17  H   UNL     1      -7.978  -2.047   0.464  0.00  0.00    +0.151 HD
ENDROOT
BRANCH  11  18
ATOM     18  C   UNL     1      -7.952  -3.525  -2.652  0.00  0.00    +0.094 A 
ATOM     19  C   UNL     1      -7.544  -2.356  -3.264  0.00  0.00    +0.018 A 
ATOM     20  C   UNL     1      -7.878  -2.112  -4.583  0.00  0.00    +0.001 A 
ATOM     21  C   UNL     1      -8.621  -3.037  -5.294  0.00  0.00    +0.004 A 
ATOM     22  C   UNL     1      -9.031  -4.208  -4.686  0.00  0.00    +0.046 A 
ATOM     23  C   UNL     1      -8.693  -4.457  -3.364  0.00  0.00    +0.131 A 
BRANCH  23  24
ATOM     24  O   UNL     1      -9.091  -5.611  -2.765  0.00  0.00    -0.506 OA
ATOM     25  H   UNL     1      -9.952  -5.552  -2.331  0.00  0.00    +0.292 HD
ENDBRANCH  23  24
ENDBRANCH  11  18
BRANCH   1  27
ATOM     26  C   UNL     1      -0.017   1.425   0.010  0.00  0.00    +0.277 C 
ATOM     27  O   UNL     1       0.002  -0.004   0.002  0.00  0.00    -0.494 OA
ENDBRANCH   1  27
TORSDOF 3
