REMARK  Name = ZINC58512671
REMARK  8 active torsions:
REMARK  status: ('A' for Active; 'I' for Inactive)
REMARK    1  A    between atoms: C_1  and  C_2
REMARK    2  A    between atoms: C_4  and  C_7
REMARK    3  A    between atoms: C_7  and  O_8
REMARK    4  A    between atoms: O_8  and  C_9
REMARK    5  A    between atoms: C_12  and  C_15
REMARK    6  A    between atoms: C_16  and  C_17
REMARK    7  A    between atoms: N_19  and  C_20
REMARK    8  A    between atoms: N_28  and  C_31
REMARK                            x       y       z     vdW  Elec       q    Type
REMARK                         _______ _______ _______ _____ _____    ______ ____
ROOT
ATOM      1  C   UNL     1      -5.339  -8.524  -0.022  0.00  0.00    +0.013 C 
ATOM      2  C   UNL     1      -4.947  -9.816  -0.028  0.00  0.00    +0.068 C 
ENDROOT
BRANCH   1   6
ATOM      3  C   UNL     1      -2.439  -5.428  -0.046  0.00  0.00    +0.121 A 
ATOM      4  C   UNL     1      -3.793  -5.110  -0.031  0.00  0.00    +0.046 A 
ATOM      5  C   UNL     1      -4.738  -6.111  -0.024  0.00  0.00    +0.011 A 
ATOM      6  C   UNL     1      -4.334  -7.451  -0.030  0.00  0.00    -0.025 A 
ATOM      7  C   UNL     1      -2.970  -7.766  -0.045  0.00  0.00    +0.011 A 
ATOM      8  C   UNL     1      -2.033  -6.758  -0.058  0.00  0.00    +0.046 A 
BRANCH   3   9
ATOM      9  O   UNL     1      -1.512  -4.438  -0.053  0.00  0.00    -0.486 OA
BRANCH   9  10
ATOM     10  C   UNL     1      -1.997  -3.094  -0.040  0.00  0.00    +0.285 C 
BRANCH  10  14
ATOM     11  C   UNL     1      -0.016   1.502  -0.044  0.00  0.00    +0.073 C 
ATOM     12  C   UNL     1       0.004  -0.005  -0.052  0.00  0.00    +0.076 A 
ATOM     13  N   UNL     1      -1.011  -0.832  -0.042  0.00  0.00    -0.246 NA
ATOM     14  C   UNL     1      -0.832  -2.138  -0.052  0.00  0.00    +0.086 A 
ATOM     15  C   UNL     1       0.451  -2.583  -0.071  0.00  0.00    +0.073 A 
ATOM     16  S   UNL     1       1.337  -1.033  -0.083  0.00  0.00    -0.080 S 
ENDBRANCH  10  14
ENDBRANCH   9  10
ENDBRANCH   3   9
ENDBRANCH   1   6
BRANCH   2  17
ATOM     17  C   UNL     1      -5.947 -10.883  -0.020  0.00  0.00    +0.241 C 
ATOM     18  O   UNL     1      -7.132 -10.606  -0.007  0.00  0.00    -0.270 OA
ATOM     19  N   UNL     1      -5.556 -12.172  -0.026  0.00  0.00    -0.282 N 
ATOM     20  H   UNL     1      -4.614 -12.393  -0.103  0.00  0.00    +0.155 HD
BRANCH  19  21
ATOM     21  C   UNL     1      -6.503 -13.188   0.078  0.00  0.00    +0.034 A 
ATOM     22  C   UNL     1      -7.750 -13.036  -0.518  0.00  0.00    +0.024 A 
ATOM     23  C   UNL     1      -8.699 -14.036  -0.422  0.00  0.00    +0.015 A 
ATOM     24  C   UNL     1      -8.406 -15.201   0.275  0.00  0.00    +0.050 A 
ATOM     25  C   UNL     1      -7.141 -15.359   0.881  0.00  0.00    +0.051 A 
ATOM     26  C   UNL     1      -6.196 -14.356   0.776  0.00  0.00    +0.037 A 
ATOM     27  C   UNL     1      -7.167 -16.689   1.527  0.00  0.00    +0.254 C 
ATOM     28  O   UNL     1      -6.257 -17.191   2.155  0.00  0.00    -0.270 OA
ATOM     29  N   UNL     1      -8.369 -17.250   1.301  0.00  0.00    -0.237 N 
ATOM     30  C   UNL     1      -9.154 -16.437   0.572  0.00  0.00    +0.254 C 
ATOM     31  O   UNL     1     -10.290 -16.680   0.217  0.00  0.00    -0.270 OA
ATOM     32  C   UNL     1      -8.770 -18.574   1.785  0.00  0.00    +0.142 C 
ENDBRANCH  19  21
ENDBRANCH   2  17
TORSDOF 6
