REMARK  Name = ZINC41724867
REMARK  10 active torsions:
REMARK  status: ('A' for Active; 'I' for Inactive)
REMARK    1  A    between atoms: C_1  and  C_2
REMARK    2  A    between atoms: C_5  and  C_29
REMARK    3  A    between atoms: N_8  and  C_10
REMARK    4  A    between atoms: C_10  and  C_11
REMARK    5  A    between atoms: C_11  and  N_12
REMARK    6  A    between atoms: C_13  and  C_15
REMARK    7  A    between atoms: N_17  and  C_18
REMARK    8  A    between atoms: C_22  and  C_24
REMARK    9  A    between atoms: C_24  and  O_26
REMARK   10  A    between atoms: O_26  and  C_27
REMARK                            x       y       z     vdW  Elec       q    Type
REMARK                         _______ _______ _______ _____ _____    ______ ____
ROOT
ATOM      1  N   UNL     1       2.822  -0.200   4.893  0.00  0.00    -0.309 N 
ATOM      2  C   UNL     1       2.402   0.253   6.090  0.00  0.00    +0.299 C 
ATOM      3  O   UNL     1       1.462   1.018   6.154  0.00  0.00    -0.265 OA
ATOM      4  H   UNL     1       3.574  -0.811   4.842  0.00  0.00    +0.149 HD
ENDROOT
BRANCH   2   5
ATOM      5  C   UNL     1       3.093  -0.186   7.339  0.00  0.00    +0.303 C 
ATOM      6  O   UNL     1       4.034  -0.951   7.276  0.00  0.00    -0.265 OA
ATOM      7  N   UNL     1       2.673   0.267   8.537  0.00  0.00    -0.278 N 
ATOM      8  H   UNL     1       1.966   0.929   8.584  0.00  0.00    +0.155 HD
BRANCH   7   9
ATOM      9  C   UNL     1       3.256  -0.218   9.711  0.00  0.00    +0.035 A 
ATOM     10  C   UNL     1       4.612  -0.527   9.738  0.00  0.00    +0.025 A 
ATOM     11  C   UNL     1       5.194  -1.006  10.896  0.00  0.00    +0.022 A 
ATOM     12  C   UNL     1       4.433  -1.181  12.036  0.00  0.00    +0.055 A 
ATOM     13  C   UNL     1       3.070  -0.873  12.019  0.00  0.00    +0.079 A 
ATOM     14  C   UNL     1       2.484  -0.384  10.850  0.00  0.00    +0.039 A 
ATOM     15 CL   UNL     1       5.170  -1.784  13.487  0.00  0.00    -0.083 Cl
BRANCH  13  16
ATOM     16  C   UNL     1       2.253  -1.059  13.236  0.00  0.00    +0.340 C 
ATOM     17  O   UNL     1       2.767  -1.480  14.253  0.00  0.00    -0.245 OA
BRANCH  16  18
ATOM     18  O   UNL     1       0.940  -0.761  13.217  0.00  0.00    -0.464 OA
ATOM     19  C   UNL     1       0.211  -0.965  14.429  0.00  0.00    +0.280 C 
ENDBRANCH  16  18
ENDBRANCH  13  16
ENDBRANCH   7   9
ENDBRANCH   2   5
BRANCH   1  20
ATOM     20  C   UNL     1       2.144   0.231   3.667  0.00  0.00    +0.086 C 
BRANCH  20  21
ATOM     21  C   UNL     1       2.813  -0.423   2.457  0.00  0.00    -0.060 C 
BRANCH  21  27
ATOM     22  C   UNL     1       0.005   1.557   0.008  0.00  0.00    +0.005 C 
ATOM     23  C   UNL     1       0.014   0.027  -0.003  0.00  0.00    -0.031 C 
ATOM     24  C   UNL     1       0.731  -0.471  -1.261  0.00  0.00    +0.003 C 
ATOM     25  C   UNL     1       2.191  -0.010  -1.221  0.00  0.00    -0.031 C 
ATOM     26  C   UNL     1       2.848  -0.523   0.062  0.00  0.00    -0.076 C 
ATOM     27  N   UNL     1       2.133   0.009   1.229  0.00  0.00    +0.381 N 
ATOM     28  C   UNL     1       0.750  -0.488   1.236  0.00  0.00    -0.076 C 
ATOM     29  C   UNL     1       2.937  -0.567  -2.435  0.00  0.00    +0.005 C 
ATOM     30  H   UNL     1       2.127   1.017   1.187  0.00  0.00    -0.082 HD
ENDBRANCH  21  27
ENDBRANCH  20  21
ENDBRANCH   1  20
TORSDOF 7
