REMARK  Name = ZINC40386872
REMARK  7 active torsions:
REMARK  status: ('A' for Active; 'I' for Inactive)
REMARK    1  A    between atoms: C_1  and  C_2
REMARK    2  A    between atoms: C_2  and  C_3
REMARK    3  A    between atoms: C_2  and  N_4
REMARK    4  A    between atoms: C_12  and  C_27
REMARK    5  A    between atoms: C_14  and  N_26
REMARK    6  A    between atoms: N_15  and  C_19
REMARK    7  A    between atoms: C_19  and  C_20
REMARK                            x       y       z     vdW  Elec       q    Type
REMARK                         _______ _______ _______ _____ _____    ______ ____
ROOT
ATOM      1  N   UNL     1      -0.544  -0.679  -1.434  0.00  0.00    +0.383 N 
ATOM      2  C   UNL     1      -1.588  -0.145  -2.318  0.00  0.00    -0.059 C 
ATOM      3  C   UNL     1      -2.966  -0.531  -1.771  0.00  0.00    +0.089 C 
ATOM      4  N   UNL     1      -3.006  -1.991  -1.597  0.00  0.00    -0.303 N 
ATOM      5  C   UNL     1      -1.906  -2.632  -0.859  0.00  0.00    +0.089 C 
ATOM      6  C   UNL     1      -0.578  -2.147  -1.449  0.00  0.00    -0.059 C 
ATOM      7  C   UNL     1      -4.048  -2.741  -2.111  0.00  0.00    +0.220 A 
ATOM      8  N   UNL     1      -4.032  -4.056  -1.917  0.00  0.00    -0.213 NA
ATOM      9  C   UNL     1      -4.993  -4.849  -2.376  0.00  0.00    +0.091 A 
ATOM     10  C   UNL     1      -6.061  -4.262  -3.092  0.00  0.00    +0.086 A 
ATOM     11  C   UNL     1      -7.215  -4.723  -3.714  0.00  0.00    +0.126 A 
ATOM     12  N   UNL     1      -7.845  -3.658  -4.238  0.00  0.00    -0.244 N 
ATOM     13  N   UNL     1      -7.117  -2.493  -3.970  0.00  0.00    -0.149 NA
ATOM     14  C   UNL     1      -6.039  -2.801  -3.285  0.00  0.00    +0.188 A 
ATOM     15  N   UNL     1      -5.005  -2.112  -2.762  0.00  0.00    -0.193 NA
ATOM     16  H   UNL     1      -0.703  -0.349  -0.494  0.00  0.00    -0.081 HD
ENDROOT
BRANCH   9  17
ATOM     17  C   UNL     1      -4.947  -6.309  -2.144  0.00  0.00    +0.037 A 
ATOM     18  C   UNL     1      -4.988  -7.192  -3.224  0.00  0.00    +0.016 A 
ATOM     19  C   UNL     1      -4.945  -8.552  -3.003  0.00  0.00    +0.039 A 
ATOM     20  C   UNL     1      -4.861  -9.045  -1.709  0.00  0.00    +0.126 A 
ATOM     21  C   UNL     1      -4.819  -8.176  -0.632  0.00  0.00    +0.077 A 
ATOM     22  C   UNL     1      -4.856  -6.810  -0.842  0.00  0.00    +0.135 A 
ATOM     23  F   UNL     1      -4.809  -5.962   0.208  0.00  0.00    -0.205 F 
ATOM     24  F   UNL     1      -4.819 -10.379  -1.500  0.00  0.00    -0.205 F 
ENDBRANCH   9  17
BRANCH   1  26
ATOM     25  C   UNL     1       0.808   1.313  -1.883  0.00  0.00    -0.014 C 
ATOM     26  C   UNL     1       0.771  -0.216  -1.897  0.00  0.00    -0.075 C 
ATOM     27  C   UNL     1       1.859  -0.762  -0.971  0.00  0.00    -0.014 C 
ENDBRANCH   1  26
BRANCH  11  28
ATOM     28  N   UNL     1      -7.638  -6.037  -3.781  0.00  0.00    -0.343 N 
ATOM     29  H   UNL     1      -7.178  -6.721  -3.269  0.00  0.00    +0.144 HD
ATOM     30  H   UNL     1      -8.394  -6.276  -4.339  0.00  0.00    +0.144 HD
ENDBRANCH  11  28
BRANCH  12  31
ATOM     31  C   UNL     1      -9.107  -3.708  -4.982  0.00  0.00    +0.180 C 
BRANCH  31  32
ATOM     32  C   UNL     1     -10.260  -3.556  -4.024  0.00  0.00    -0.026 A 
ATOM     33  C   UNL     1     -10.823  -4.673  -3.436  0.00  0.00    +0.005 A 
ATOM     34  C   UNL     1     -11.881  -4.533  -2.558  0.00  0.00    +0.000 A 
ATOM     35  C   UNL     1     -12.376  -3.276  -2.267  0.00  0.00    +0.000 A 
ATOM     36  C   UNL     1     -11.813  -2.158  -2.855  0.00  0.00    +0.000 A 
ATOM     37  C   UNL     1     -10.752  -2.298  -3.730  0.00  0.00    +0.005 A 
ENDBRANCH  31  32
ENDBRANCH  12  31
TORSDOF 5
