REMARK  Name = ZINC09861534
REMARK  9 active torsions:
REMARK  status: ('A' for Active; 'I' for Inactive)
REMARK    1  A    between atoms: C_1  and  C_2
REMARK    2  A    between atoms: C_5  and  N_9
REMARK    3  A    between atoms: C_6  and  O_8
REMARK    4  A    between atoms: C_10  and  C_12
REMARK    5  A    between atoms: C_12  and  N_13
REMARK    6  A    between atoms: N_13  and  S_14
REMARK    7  A    between atoms: S_14  and  C_17
REMARK    8  A    between atoms: C_19  and  C_24
REMARK    9  A    between atoms: C_22  and  C_23
REMARK                            x       y       z     vdW  Elec       q    Type
REMARK                         _______ _______ _______ _____ _____    ______ ____
ROOT
ATOM      1  C   UNL     1       3.992   2.353   1.678  0.00  0.00    +0.201 C 
ENDROOT
BRANCH   1   3
ATOM      2  N   UNL     1       5.746   1.307   3.073  0.00  0.00    -0.281 N 
ATOM      3  C   UNL     1       5.038   2.410   2.762  0.00  0.00    +0.233 C 
ATOM      4  O   UNL     1       5.242   3.449   3.353  0.00  0.00    -0.274 OA
ATOM      5  H   UNL     1       5.633   0.495   2.555  0.00  0.00    +0.155 HD
BRANCH   2  10
ATOM      6  C   UNL     1       9.392   1.412   7.425  0.00  0.00    +0.044 C 
ATOM      7  C   UNL     1       8.426   1.383   6.269  0.00  0.00    -0.047 A 
ATOM      8  C   UNL     1       7.266   2.133   6.321  0.00  0.00    +0.005 A 
ATOM      9  C   UNL     1       6.376   2.110   5.263  0.00  0.00    +0.027 A 
ATOM     10  C   UNL     1       6.647   1.333   4.146  0.00  0.00    +0.075 A 
ATOM     11  C   UNL     1       7.814   0.573   4.097  0.00  0.00    +0.138 A 
ATOM     12  C   UNL     1       8.702   0.605   5.160  0.00  0.00    +0.050 A 
BRANCH  11  13
ATOM     13  O   UNL     1       8.081  -0.195   3.008  0.00  0.00    -0.505 OA
ATOM     14  H   UNL     1       8.584   0.260   2.319  0.00  0.00    +0.292 HD
ENDBRANCH  11  13
ENDBRANCH   2  10
ENDBRANCH   1   3
BRANCH   1  15
ATOM     15  N   UNL     1       3.368   3.671   1.532  0.00  0.00    -0.181 NA
ATOM     16  H   UNL     1       3.445   4.325   2.243  0.00  0.00    +0.149 HD
BRANCH  15  17
ATOM     17  S   UNL     1       2.532   4.042   0.151  0.00  0.00    +0.059 S 
ATOM     18  O   UNL     1       3.361   3.665  -0.939  0.00  0.00    -0.153 OA
ATOM     19  O   UNL     1       2.045   5.367   0.316  0.00  0.00    -0.153 OA
BRANCH  17  20
ATOM     20  C   UNL     1       1.120   2.989   0.099  0.00  0.00    +0.108 A 
ATOM     21  C   UNL     1       0.972   2.083  -0.935  0.00  0.00    +0.032 A 
ATOM     22  C   UNL     1      -0.135   1.256  -0.976  0.00  0.00    -0.049 A 
ATOM     23  C   UNL     1      -1.092   1.333   0.019  0.00  0.00    +0.004 A 
ATOM     24  C   UNL     1      -0.947   2.243   1.049  0.00  0.00    +0.005 A 
ATOM     25  C   UNL     1       0.161   3.069   1.090  0.00  0.00    -0.024 A 
ATOM     26  C   UNL     1       0.322   4.057   2.217  0.00  0.00    +0.046 C 
ATOM     27  C   UNL     1      -0.296   0.268  -2.102  0.00  0.00    +0.044 C 
ENDBRANCH  17  20
ENDBRANCH  15  17
ENDBRANCH   1  15
TORSDOF 6
