REMARK  Name = ZINC61044037
REMARK  7 active torsions:
REMARK  status: ('A' for Active; 'I' for Inactive)
REMARK    1  A    between atoms: C_1  and  C_2
REMARK    2  A    between atoms: C_4  and  C_27
REMARK    3  A    between atoms: C_9  and  C_10
REMARK    4  A    between atoms: C_10  and  N_11
REMARK    5  A    between atoms: N_14  and  C_15
REMARK    6  A    between atoms: C_15  and  C_16
REMARK    7  A    between atoms: N_18  and  C_19
REMARK                            x       y       z     vdW  Elec       q    Type
REMARK                         _______ _______ _______ _____ _____    ______ ____
ROOT
ATOM      1  N   UNL     1      -1.347   0.137   2.995  0.00  0.00    -0.295 N 
ATOM      2  C   UNL     1      -1.590   0.754   4.168  0.00  0.00    +0.300 C 
ATOM      3  O   UNL     1      -0.669   1.212   4.816  0.00  0.00    -0.253 OA
ATOM      4  N   UNL     1      -2.854   0.863   4.623  0.00  0.00    -0.291 N 
ATOM      5  H   UNL     1      -2.082  -0.228   2.478  0.00  0.00    +0.151 HD
ATOM      6  H   UNL     1      -3.589   0.497   4.106  0.00  0.00    +0.151 HD
ENDROOT
BRANCH   1   7
ATOM      7  C   UNL     1       0.026   0.019   2.500  0.00  0.00    +0.146 C 
BRANCH   7  16
ATOM      8  C   UNL     1      -0.001   1.502   0.022  0.00  0.00    +0.044 C 
ATOM      9  C   UNL     1       0.011  -0.005   0.008  0.00  0.00    -0.039 A 
ATOM     10  C   UNL     1       0.014  -0.702  -1.208  0.00  0.00    +0.024 A 
ATOM     11  C   UNL     1       0.025  -2.056  -1.210  0.00  0.00    +0.016 A 
ATOM     12  N   UNL     1       0.033  -2.751  -0.045  0.00  0.00    -0.326 N 
ATOM     13  H   UNL     1       0.041  -3.721  -0.065  0.00  0.00    +0.169 HD
ATOM     14  C   UNL     1       0.031  -2.110   1.140  0.00  0.00    +0.254 A 
ATOM     15  O   UNL     1       0.038  -2.749   2.179  0.00  0.00    -0.268 OA
ATOM     16  C   UNL     1       0.024  -0.706   1.179  0.00  0.00    +0.037 A 
ATOM     17  C   UNL     1       0.028  -2.799  -2.522  0.00  0.00    +0.063 C 
ENDBRANCH   7  16
ENDBRANCH   1   7
BRANCH   4  18
ATOM     18  C   UNL     1      -3.118   1.533   5.899  0.00  0.00    +0.202 C 
BRANCH  18  19
ATOM     19  C   UNL     1      -4.599   1.519   6.176  0.00  0.00    +0.234 C 
ATOM     20  O   UNL     1      -5.360   1.001   5.386  0.00  0.00    -0.274 OA
ATOM     21  N   UNL     1      -5.080   2.083   7.303  0.00  0.00    -0.284 N 
ATOM     22  H   UNL     1      -4.467   2.438   7.966  0.00  0.00    +0.155 HD
BRANCH  21  23
ATOM     23  C   UNL     1      -6.462   2.157   7.514  0.00  0.00    +0.036 A 
ATOM     24  C   UNL     1      -7.008   3.257   8.163  0.00  0.00    +0.026 A 
ATOM     25  C   UNL     1      -8.371   3.329   8.372  0.00  0.00    +0.043 A 
ATOM     26  C   UNL     1      -9.195   2.306   7.935  0.00  0.00    +0.159 A 
ATOM     27  C   UNL     1      -8.653   1.206   7.287  0.00  0.00    +0.160 A 
ATOM     28  C   UNL     1      -7.288   1.134   7.071  0.00  0.00    +0.064 A 
ATOM     29  F   UNL     1      -9.458   0.208   6.861  0.00  0.00    -0.202 F 
ATOM     30  F   UNL     1     -10.528   2.378   8.140  0.00  0.00    -0.202 F 
ENDBRANCH  21  23
ENDBRANCH  18  19
ENDBRANCH   4  18
TORSDOF 5
