REMARK  Name = ZINC35642029
REMARK  12 active torsions:
REMARK  status: ('A' for Active; 'I' for Inactive)
REMARK    1  A    between atoms: C_1  and  C_2
REMARK    2  A    between atoms: C_2  and  N_3
REMARK    3  A    between atoms: C_4  and  C_24
REMARK    4  A    between atoms: C_5  and  C_19
REMARK    5  A    between atoms: C_6  and  C_11
REMARK    6  A    between atoms: C_19  and  O_21
REMARK    7  A    between atoms: O_21  and  C_22
REMARK    8  A    between atoms: C_22  and  C_23
REMARK    9  A    between atoms: C_24  and  N_25
REMARK   10  A    between atoms: C_32  and  C_34
REMARK   11  A    between atoms: C_34  and  C_35
REMARK   12  A    between atoms: C_34  and  C_36
REMARK                            x       y       z     vdW  Elec       q    Type
REMARK                         _______ _______ _______ _____ _____    ______ ____
ROOT
ATOM      1  N   UNL     1       2.578  -3.056   1.295  0.00  0.00    -0.261 N 
ATOM      2  C   UNL     1       3.562  -3.673   0.577  0.00  0.00    +0.010 C 
ATOM      3  C   UNL     1       4.044  -4.879   0.948  0.00  0.00    +0.076 C 
ATOM      4  C   UNL     1       3.455  -5.523   2.187  0.00  0.00    +0.143 C 
ATOM      5  N   UNL     1       2.399  -4.775   2.890  0.00  0.00    -0.288 N 
ATOM      6  C   UNL     1       2.026  -3.577   2.399  0.00  0.00    +0.307 C 
ATOM      7  O   UNL     1       1.158  -2.950   2.974  0.00  0.00    -0.252 OA
ATOM      8  H   UNL     1       1.983  -5.135   3.689  0.00  0.00    +0.151 HD
ENDROOT
BRANCH   4   9
ATOM      9  C   UNL     1       2.889  -6.862   1.791  0.00  0.00    -0.021 A 
ATOM     10  C   UNL     1       1.653  -6.936   1.177  0.00  0.00    +0.007 A 
ATOM     11  C   UNL     1       1.133  -8.164   0.813  0.00  0.00    +0.022 A 
ATOM     12  C   UNL     1       1.850  -9.320   1.063  0.00  0.00    +0.059 A 
ATOM     13  C   UNL     1       3.089  -9.246   1.677  0.00  0.00    +0.060 A 
ATOM     14  C   UNL     1       3.610  -8.016   2.036  0.00  0.00    +0.027 A 
ATOM     15 CL   UNL     1       3.990 -10.697   1.991  0.00  0.00    -0.082 Cl
ATOM     16 CL   UNL     1       1.197 -10.863   0.607  0.00  0.00    -0.082 Cl
ENDBRANCH   4   9
BRANCH   1  18
ATOM     17  C   UNL     1       2.911  -0.644   1.519  0.00  0.00    +0.025 C 
ATOM     18  C   UNL     1       2.103  -1.749   0.836  0.00  0.00    +0.111 C 
ENDBRANCH   1  18
BRANCH   3  19
ATOM     19  C   UNL     1       5.062  -5.520   0.205  0.00  0.00    +0.339 C 
ATOM     20  O   UNL     1       5.478  -5.013  -0.820  0.00  0.00    -0.245 OA
BRANCH  19  21
ATOM     21  O   UNL     1       5.573  -6.693   0.633  0.00  0.00    -0.462 OA
BRANCH  21  22
ATOM     22  C   UNL     1       6.600  -7.284  -0.167  0.00  0.00    +0.229 C 
ATOM     23  C   UNL     1       7.051  -8.599   0.472  0.00  0.00    +0.048 C 
ENDBRANCH  21  22
ENDBRANCH  19  21
ENDBRANCH   3  19
BRANCH   2  24
ATOM     24  C   UNL     1       4.120  -2.998  -0.649  0.00  0.00    -0.026 C 
BRANCH  24  25
ATOM     25  N   UNL     1       3.510  -3.583  -1.850  0.00  0.00    +0.384 N 
ATOM     26  C   UNL     1       4.278  -3.148  -3.015  0.00  0.00    -0.077 C 
ATOM     27  C   UNL     1       4.192  -4.205  -4.093  0.00  0.00    +0.000 C 
ATOM     28  C   UNL     1       3.031  -3.870  -5.048  0.00  0.00    +0.106 C 
ATOM     29  N   UNL     1       1.863  -3.358  -4.305  0.00  0.00    -0.303 N 
ATOM     30  C   UNL     1       1.429  -3.936  -3.050  0.00  0.00    +0.089 C 
ATOM     31  C   UNL     1       2.143  -3.231  -1.873  0.00  0.00    -0.059 C 
ATOM     32  C   UNL     1       1.175  -2.316  -4.812  0.00  0.00    +0.218 C 
ATOM     33  O   UNL     1       0.262  -1.827  -4.182  0.00  0.00    -0.275 OA
ATOM     34  H   UNL     1       3.580  -4.588  -1.784  0.00  0.00    -0.081 HD
BRANCH  32  35
ATOM     35  C   UNL     1       1.542  -1.758  -6.163  0.00  0.00    +0.069 C 
ATOM     36  C   UNL     1       0.389  -0.900  -6.690  0.00  0.00    +0.017 C 
ATOM     37  C   UNL     1       2.800  -0.898  -6.036  0.00  0.00    +0.017 C 
ENDBRANCH  32  35
ENDBRANCH  24  25
ENDBRANCH   2  24
TORSDOF 8
