REMARK  Name = ZINC39490024
REMARK  4 active torsions:
REMARK  status: ('A' for Active; 'I' for Inactive)
REMARK    1  A    between atoms: C_6  and  C_10
REMARK    2  A    between atoms: C_10  and  C_11
REMARK    3  A    between atoms: C_11  and  N_12
REMARK    4  A    between atoms: C_19  and  C_22
REMARK                            x       y       z     vdW  Elec       q    Type
REMARK                         _______ _______ _______ _____ _____    ______ ____
ROOT
ATOM      1  N   UNL     1       0.034  -4.784  -0.265  0.00  0.00    -0.299 N 
ATOM      2  C   UNL     1       0.410  -5.569  -1.294  0.00  0.00    +0.305 C 
ATOM      3  O   UNL     1       1.414  -5.305  -1.926  0.00  0.00    -0.252 OA
ATOM      4  N   UNL     1      -0.328  -6.648  -1.622  0.00  0.00    -0.248 N 
ATOM      5  C   UNL     1       0.059  -7.460  -2.685  0.00  0.00    +0.180 C 
ATOM      6  N   UNL     1       1.095  -7.328  -3.454  0.00  0.00    -0.163 NA
ATOM      7  N   UNL     1       1.387  -8.195  -4.483  0.00  0.00    -0.253 N 
ATOM      8  C   UNL     1       0.428  -9.308  -4.662  0.00  0.00    +0.157 C 
ATOM      9  S   UNL     1      -0.749  -8.928  -3.300  0.00  0.00    -0.065 S 
ATOM     10  H   UNL     1      -0.767  -4.995   0.239  0.00  0.00    +0.150 HD
ATOM     11  H   UNL     1      -1.130  -6.859  -1.118  0.00  0.00    +0.158 HD
ATOM     12  H   UNL     1       2.166  -8.083  -5.051  0.00  0.00    +0.169 HD
ENDROOT
BRANCH   8  13
ATOM     13  C   UNL     1      -0.253  -9.241  -6.030  0.00  0.00    +0.021 C 
ATOM     14  C   UNL     1      -1.370  -8.187  -6.112  0.00  0.00    +0.006 C 
ATOM     15  C   UNL     1      -2.170  -9.212  -6.933  0.00  0.00    +0.001 C 
ATOM     16  C   UNL     1      -1.349 -10.303  -6.225  0.00  0.00    +0.006 C 
ENDBRANCH   8  13
BRANCH   1  17
ATOM     17  C   UNL     1       0.836  -3.611   0.091  0.00  0.00    +0.112 C 
BRANCH  17  18
ATOM     18  C   UNL     1       0.196  -2.898   1.284  0.00  0.00    +0.074 C 
BRANCH  18  24
ATOM     19  C   UNL     1      -0.019   1.530   0.011  0.00  0.00    +0.005 C 
ATOM     20  C   UNL     1       1.415   2.066  -0.000  0.00  0.00    +0.007 C 
ATOM     21  C   UNL     1       2.071   1.816   1.363  0.00  0.00    +0.057 C 
ATOM     22  C   UNL     1       1.874   0.363   1.722  0.00  0.00    +0.066 A 
ATOM     23  C   UNL     1       0.930  -0.469   1.097  0.00  0.00    -0.004 A 
ATOM     24  C   UNL     1       1.021  -1.692   1.651  0.00  0.00    +0.041 A 
ATOM     25  N   UNL     1       1.986  -1.642   2.597  0.00  0.00    -0.281 N 
ATOM     26  H   UNL     1       2.270  -2.378   3.161  0.00  0.00    +0.189 HD
ATOM     27  N   UNL     1       2.504  -0.338   2.619  0.00  0.00    -0.178 NA
ATOM     28  C   UNL     1       0.002  -0.004   0.002  0.00  0.00    +0.039 C 
ENDBRANCH  18  24
ENDBRANCH  17  18
ENDBRANCH   1  17
TORSDOF 4
