REMARK  Name = ZINC39688553
REMARK  9 active torsions:
REMARK  status: ('A' for Active; 'I' for Inactive)
REMARK    1  A    between atoms: C_1  and  C_2
REMARK    2  A    between atoms: C_2  and  C_4
REMARK    3  A    between atoms: C_2  and  N_12
REMARK    4  A    between atoms: C_4  and  C_5
REMARK    5  A    between atoms: C_13  and  C_15
REMARK    6  A    between atoms: C_26  and  C_28
REMARK    7  A    between atoms: C_28  and  C_30
REMARK    8  A    between atoms: C_28  and  O_31
REMARK    9  A    between atoms: O_31  and  C_32
REMARK                            x       y       z     vdW  Elec       q    Type
REMARK                         _______ _______ _______ _____ _____    ______ ____
ROOT
ATOM      1  C   UNL     1      -3.398  -1.311   1.079  0.00  0.00    +0.100 C 
ATOM      2  C   UNL     1      -3.357  -2.820   0.751  0.00  0.00    +0.121 C 
ATOM      3  N   UNL     1      -3.364  -3.491   2.072  0.00  0.00    -0.297 N 
ATOM      4  C   UNL     1      -4.306  -2.689   2.888  0.00  0.00    +0.115 C 
ATOM      5  C   UNL     1      -4.026  -1.229   2.481  0.00  0.00    -0.004 C 
ATOM      6  C   UNL     1      -5.327  -0.434   2.432  0.00  0.00    -0.010 C 
ATOM      7  C   UNL     1      -5.902  -0.316   3.846  0.00  0.00    -0.082 C 
ATOM      8  N   UNL     1      -4.928   0.354   4.718  0.00  0.00    +0.379 N 
ATOM      9  C   UNL     1      -3.715  -0.463   4.833  0.00  0.00    -0.082 C 
ATOM     10  C   UNL     1      -3.047  -0.587   3.461  0.00  0.00    -0.010 C 
ATOM     11  C   UNL     1      -2.670  -4.584   2.448  0.00  0.00    +0.256 C 
ATOM     12  O   UNL     1      -1.865  -5.081   1.689  0.00  0.00    -0.272 OA
ATOM     13  H   UNL     1      -4.691   1.253   4.325  0.00  0.00    -0.086 HD
ATOM     14  H   UNL     1      -5.333   0.485   5.633  0.00  0.00    -0.086 HD
ENDROOT
BRANCH   1  16
ATOM     15  N   UNL     1      -1.817   0.585   0.919  0.00  0.00    -0.312 N 
ATOM     16  C   UNL     1      -2.004  -0.739   1.094  0.00  0.00    +0.218 C 
ATOM     17  O   UNL     1      -1.051  -1.469   1.262  0.00  0.00    -0.275 OA
ATOM     18  H   UNL     1      -2.572   1.158   0.713  0.00  0.00    +0.149 HD
BRANCH  15  20
ATOM     19  C   UNL     1      -0.146   1.375   2.520  0.00  0.00    +0.028 C 
ATOM     20  C   UNL     1      -0.474   1.157   1.042  0.00  0.00    +0.074 C 
BRANCH  20  21
ATOM     21  C   UNL     1      -0.422   2.497   0.305  0.00  0.00    +0.057 C 
BRANCH  21  22
ATOM     22  C   UNL     1      -0.616   2.265  -1.172  0.00  0.00    -0.045 A 
ATOM     23  C   UNL     1       0.464   1.925  -1.965  0.00  0.00    +0.006 A 
ATOM     24  C   UNL     1       0.287   1.713  -3.319  0.00  0.00    +0.038 A 
ATOM     25  C   UNL     1      -0.972   1.840  -3.881  0.00  0.00    +0.123 A 
ATOM     26  C   UNL     1      -2.053   2.180  -3.085  0.00  0.00    +0.038 A 
ATOM     27  C   UNL     1      -1.875   2.388  -1.730  0.00  0.00    +0.006 A 
ATOM     28  F   UNL     1      -1.146   1.633  -5.205  0.00  0.00    -0.205 F 
ENDBRANCH  21  22
ENDBRANCH  20  21
ENDBRANCH  15  20
ENDBRANCH   1  16
BRANCH  11  29
ATOM     29  C   UNL     1      -2.894  -5.188   3.810  0.00  0.00    +0.256 C 
ATOM     30  C   UNL     1      -4.299  -5.792   3.875  0.00  0.00    +0.062 C 
BRANCH  29  31
ATOM     31  O   UNL     1      -1.925  -6.212   4.043  0.00  0.00    -0.480 OA
BRANCH  31  32
ATOM     32  C   UNL     1      -1.628  -6.497   5.338  0.00  0.00    +0.122 A 
ATOM     33  C   UNL     1      -0.606  -7.386   5.636  0.00  0.00    +0.045 A 
ATOM     34  C   UNL     1      -0.305  -7.674   6.954  0.00  0.00    +0.004 A 
ATOM     35  C   UNL     1      -1.022  -7.078   7.974  0.00  0.00    +0.000 A 
ATOM     36  C   UNL     1      -2.042  -6.191   7.679  0.00  0.00    +0.004 A 
ATOM     37  C   UNL     1      -2.342  -5.896   6.363  0.00  0.00    +0.045 A 
ENDBRANCH  31  32
ENDBRANCH  29  31
ENDBRANCH  11  29
TORSDOF 7
