REMARK  Name = ZINC39594792
REMARK  8 active torsions:
REMARK  status: ('A' for Active; 'I' for Inactive)
REMARK    1  A    between atoms: C_3  and  O_8
REMARK    2  A    between atoms: O_8  and  C_9
REMARK    3  A    between atoms: C_9  and  C_10
REMARK    4  A    between atoms: C_14  and  C_23
REMARK    5  A    between atoms: N_25  and  C_26
REMARK    6  A    between atoms: C_26  and  C_27
REMARK    7  A    between atoms: C_27  and  C_29
REMARK    8  A    between atoms: C_27  and  N_35
REMARK                            x       y       z     vdW  Elec       q    Type
REMARK                         _______ _______ _______ _____ _____    ______ ____
ROOT
ATOM      1  C   UNL     1       5.684   1.652   0.204  0.00  0.00    +0.253 C 
ATOM      2  O   UNL     1       5.446   2.834   0.329  0.00  0.00    -0.272 OA
ATOM      3  N   UNL     1       6.961   1.222   0.168  0.00  0.00    -0.297 N 
ATOM      4  C   UNL     1       7.447  -0.170   0.015  0.00  0.00    +0.121 C 
ATOM      5  C   UNL     1       8.677  -0.055  -0.912  0.00  0.00    +0.100 C 
ATOM      6  C   UNL     1       9.165   1.393  -0.738  0.00  0.00    -0.004 C 
ATOM      7  C   UNL     1       8.197   2.035   0.266  0.00  0.00    +0.115 C 
ATOM      8  C   UNL     1       9.104   2.136  -2.069  0.00  0.00    -0.010 C 
ATOM      9  C   UNL     1       9.648   3.555  -1.882  0.00  0.00    -0.082 C 
ATOM     10  N   UNL     1      11.033   3.490  -1.398  0.00  0.00    +0.379 N 
ATOM     11  C   UNL     1      11.072   2.857  -0.074  0.00  0.00    -0.082 C 
ATOM     12  C   UNL     1      10.587   1.408  -0.185  0.00  0.00    -0.010 C 
ATOM     13  H   UNL     1      11.589   2.950  -2.044  0.00  0.00    -0.086 HD
ATOM     14  H   UNL     1      11.409   4.424  -1.334  0.00  0.00    -0.086 HD
ENDROOT
BRANCH   5  15
ATOM     15  C   UNL     1       8.280  -0.308  -2.344  0.00  0.00    +0.218 C 
ATOM     16  O   UNL     1       7.158  -0.041  -2.719  0.00  0.00    -0.275 OA
ATOM     17  N   UNL     1       9.172  -0.832  -3.208  0.00  0.00    -0.316 N 
ATOM     18  H   UNL     1      10.070  -1.045  -2.908  0.00  0.00    +0.149 HD
BRANCH  17  19
ATOM     19  C   UNL     1       8.787  -1.078  -4.599  0.00  0.00    +0.093 C 
BRANCH  19  20
ATOM     20  C   UNL     1       9.943  -1.758  -5.336  0.00  0.00    -0.019 C 
BRANCH  20  21
ATOM     21  C   UNL     1      11.111  -0.810  -5.420  0.00  0.00    -0.041 A 
ATOM     22  C   UNL     1      12.177  -0.930  -4.541  0.00  0.00    +0.005 A 
ATOM     23  C   UNL     1      13.231  -0.036  -4.656  0.00  0.00    +0.020 A 
ATOM     24  C   UNL     1      13.184   0.938  -5.635  0.00  0.00    +0.111 A 
ATOM     25  N   UNL     1      12.154   1.022  -6.454  0.00  0.00    -0.263 NA
ATOM     26  C   UNL     1      11.137   0.186  -6.378  0.00  0.00    +0.112 A 
ENDBRANCH  20  21
BRANCH  20  27
ATOM     27  N   UNL     1       9.511  -2.125  -6.692  0.00  0.00    +0.385 N 
ATOM     28  C   UNL     1      10.610  -2.822  -7.408  0.00  0.00    -0.078 C 
ATOM     29  C   UNL     1       9.867  -3.610  -8.516  0.00  0.00    -0.020 C 
ATOM     30  C   UNL     1       8.571  -4.066  -7.806  0.00  0.00    -0.020 C 
ATOM     31  C   UNL     1       8.394  -3.092  -6.627  0.00  0.00    -0.078 C 
ATOM     32  H   UNL     1       9.229  -1.301  -7.202  0.00  0.00    -0.081 HD
ENDBRANCH  20  27
ENDBRANCH  19  20
ENDBRANCH  17  19
ENDBRANCH   5  15
BRANCH   1  33
ATOM     33  C   UNL     1       4.552   0.663   0.087  0.00  0.00    +0.324 C 
BRANCH  33  34
ATOM     34  O   UNL     1       3.305   1.358   0.152  0.00  0.00    -0.483 OA
BRANCH  34  37
ATOM     35  C   UNL     1      -0.216   0.451   0.024  0.00  0.00    +0.005 A 
ATOM     36  C   UNL     1       0.931   1.216   0.117  0.00  0.00    +0.046 A 
ATOM     37  C   UNL     1       2.176   0.607   0.061  0.00  0.00    +0.123 A 
ATOM     38  C   UNL     1       2.267  -0.769  -0.087  0.00  0.00    +0.065 A 
ATOM     39  C   UNL     1       1.116  -1.531  -0.179  0.00  0.00    +0.044 A 
ATOM     40  C   UNL     1      -0.125  -0.920  -0.123  0.00  0.00    +0.020 A 
ATOM     41 CL   UNL     1       1.228  -3.253  -0.365  0.00  0.00    -0.083 Cl
ENDBRANCH  34  37
ENDBRANCH  33  34
ENDBRANCH   1  33
TORSDOF 8
