REMARK  Name = ZINC11422588
REMARK  11 active torsions:
REMARK  status: ('A' for Active; 'I' for Inactive)
REMARK    1  A    between atoms: C_1  and  C_2
REMARK    2  A    between atoms: C_2  and  O_3
REMARK    3  A    between atoms: O_3  and  C_4
REMARK    4  A    between atoms: C_7  and  C_10
REMARK    5  A    between atoms: N_12  and  C_13
REMARK    6  A    between atoms: C_13  and  C_14
REMARK    7  A    between atoms: N_16  and  C_17
REMARK    8  A    between atoms: C_19  and  C_24
REMARK    9  A    between atoms: C_19  and  C_25
REMARK   10  A    between atoms: C_20  and  C_22
REMARK   11  A    between atoms: C_20  and  C_23
REMARK                            x       y       z     vdW  Elec       q    Type
REMARK                         _______ _______ _______ _____ _____    ______ ____
ROOT
ATOM      1  C   UNL     1       0.113   5.703  -2.353  0.00  0.00    +0.230 C 
ATOM      2  O   UNL     1      -0.129   5.078  -3.364  0.00  0.00    -0.274 OA
ATOM      3  N   UNL     1       0.389   5.051  -1.207  0.00  0.00    -0.311 N 
ATOM      4  H   UNL     1       0.582   5.550  -0.398  0.00  0.00    +0.149 HD
ENDROOT
BRANCH   3   5
ATOM      5  C   UNL     1       0.396   3.583  -1.181  0.00  0.00    +0.070 C 
ATOM      6  C   UNL     1       1.298   3.104  -0.042  0.00  0.00    +0.009 C 
ATOM      7  C   UNL     1       1.320   1.577  -0.002  0.00  0.00    -0.072 C 
ATOM      8  C   UNL     1      -1.042   1.551  -0.852  0.00  0.00    -0.072 C 
ATOM      9  C   UNL     1      -1.022   3.076  -0.918  0.00  0.00    +0.009 C 
ATOM     10  C   UNL     1      -0.944   0.975  -2.269  0.00  0.00    -0.010 C 
ATOM     11  C   UNL     1      -2.415   1.129  -0.282  0.00  0.00    -0.010 C 
ATOM     12  C   UNL     1       2.035   1.156   1.301  0.00  0.00    -0.010 C 
ATOM     13  C   UNL     1       2.151   1.041  -1.172  0.00  0.00    -0.010 C 
ATOM     14  N   UNL     1      -0.027   0.947   0.053  0.00  0.00    +0.386 N 
ATOM     15  H   UNL     1      -0.375   1.022   1.016  0.00  0.00    -0.084 HD
ATOM     16  H   UNL     1       0.074  -0.044  -0.199  0.00  0.00    -0.084 HD
ENDBRANCH   3   5
BRANCH   1  17
ATOM     17  C   UNL     1       0.105   7.210  -2.379  0.00  0.00    +0.200 C 
BRANCH  17  20
ATOM     18  C   UNL     1      -0.284   8.994  -3.993  0.00  0.00    +0.244 C 
ATOM     19  O   UNL     1      -0.072   9.800  -3.108  0.00  0.00    -0.270 OA
ATOM     20  N   UNL     1      -0.220   7.674  -3.730  0.00  0.00    -0.303 N 
ATOM     21  H   UNL     1      -0.388   7.030  -4.436  0.00  0.00    +0.150 HD
BRANCH  18  25
ATOM     22  C   UNL     1      -1.225  10.338  -7.910  0.00  0.00    +0.121 A 
ATOM     23  C   UNL     1      -0.984  11.261  -6.899  0.00  0.00    +0.046 A 
ATOM     24  C   UNL     1      -0.678  10.830  -5.628  0.00  0.00    +0.016 A 
ATOM     25  C   UNL     1      -0.611   9.461  -5.354  0.00  0.00    +0.037 A 
ATOM     26  C   UNL     1      -0.849   8.536  -6.374  0.00  0.00    +0.016 A 
ATOM     27  C   UNL     1      -1.160   8.975  -7.641  0.00  0.00    +0.046 A 
BRANCH  22  28
ATOM     28  O   UNL     1      -1.525  10.767  -9.161  0.00  0.00    -0.492 OA
BRANCH  28  30
ATOM     29  C   UNL     1      -2.083  10.434 -11.489  0.00  0.00    +0.048 C 
ATOM     30  C   UNL     1      -1.762   9.764 -10.152  0.00  0.00    +0.225 C 
ENDBRANCH  28  30
ENDBRANCH  22  28
ENDBRANCH  18  25
ENDBRANCH  17  20
ENDBRANCH   1  17
TORSDOF 6
