REMARK  Name = ZINC09273510
REMARK  9 active torsions:
REMARK  status: ('A' for Active; 'I' for Inactive)
REMARK    1  A    between atoms: C_1  and  C_2
REMARK    2  A    between atoms: C_2  and  O_3
REMARK    3  A    between atoms: O_3  and  C_4
REMARK    4  A    between atoms: C_6  and  C_11
REMARK    5  A    between atoms: C_9  and  O_10
REMARK    6  A    between atoms: C_13  and  C_26
REMARK    7  A    between atoms: C_20  and  C_24
REMARK    8  A    between atoms: C_21  and  C_23
REMARK    9  A    between atoms: C_26  and  C_28
REMARK                            x       y       z     vdW  Elec       q    Type
REMARK                         _______ _______ _______ _____ _____    ______ ____
ROOT
ATOM      1  C   UNL     1       2.005   1.388   0.161  0.00  0.00    +0.152 C 
ATOM      2  C   UNL     1       2.723   0.868   1.385  0.00  0.00    +0.077 C 
ATOM      3  C   UNL     1       2.950  -0.450   1.172  0.00  0.00    +0.250 C 
ATOM      4  C   UNL     1       2.410  -0.829  -0.149  0.00  0.00    +0.293 C 
ATOM      5  O   UNL     1       2.459  -1.945  -0.629  0.00  0.00    -0.266 OA
ATOM      6  N   UNL     1       1.856   0.244  -0.745  0.00  0.00    -0.232 N 
ATOM      7  C   UNL     1       1.252   0.265  -1.994  0.00  0.00    +0.169 A 
ATOM      8  N   UNL     1       0.689   1.277  -2.626  0.00  0.00    -0.229 NA
ATOM      9  C   UNL     1       0.160   1.125  -3.824  0.00  0.00    +0.050 A 
ATOM     10  C   UNL     1       0.194  -0.104  -4.394  0.00  0.00    +0.011 A 
ATOM     11  S   UNL     1       1.036  -1.036  -3.124  0.00  0.00    -0.057 S 
ATOM     12  C   UNL     1      -0.334  -0.559  -5.731  0.00  0.00    +0.053 C 
ATOM     13  C   UNL     1      -0.475   2.290  -4.539  0.00  0.00    +0.066 C 
ATOM     14  O   UNL     1       3.574  -1.287   2.033  0.00  0.00    -0.282 OA
ENDROOT
BRANCH   1  17
ATOM     15  C   UNL     1      -0.799   3.784   0.982  0.00  0.00    +0.162 A 
ATOM     16  C   UNL     1       0.447   3.289   0.629  0.00  0.00    +0.055 A 
ATOM     17  C   UNL     1       0.650   1.925   0.545  0.00  0.00    -0.018 A 
ATOM     18  C   UNL     1      -0.388   1.050   0.812  0.00  0.00    +0.009 A 
ATOM     19  C   UNL     1      -1.634   1.538   1.159  0.00  0.00    +0.049 A 
ATOM     20  C   UNL     1      -1.843   2.904   1.251  0.00  0.00    +0.158 A 
BRANCH  20  21
ATOM     21  O   UNL     1      -3.067   3.385   1.598  0.00  0.00    -0.503 OA
ATOM     22  H   UNL     1      -3.891   2.688   1.810  0.00  0.00    +0.292 HD
ENDBRANCH  20  21
BRANCH  15  23
ATOM     23  O   UNL     1      -1.000   5.127   1.065  0.00  0.00    -0.489 OA
BRANCH  23  25
ATOM     24  C   UNL     1      -0.258   7.426   1.092  0.00  0.00    +0.048 C 
ATOM     25  C   UNL     1       0.135   5.967   0.849  0.00  0.00    +0.226 C 
ENDBRANCH  23  25
ENDBRANCH  15  23
ENDBRANCH   1  17
BRANCH   2  26
ATOM     26  C   UNL     1       3.100   1.640   2.571  0.00  0.00    +0.195 C 
ATOM     27  O   UNL     1       2.605   1.376   3.651  0.00  0.00    -0.287 OA
BRANCH  26  28
ATOM     28  C   UNL     1       4.082   2.739   2.457  0.00  0.00    +0.022 A 
ATOM     29  C   UNL     1       4.743   2.965   1.248  0.00  0.00    +0.013 A 
ATOM     30  C   UNL     1       5.653   3.996   1.146  0.00  0.00    +0.021 A 
ATOM     31  C   UNL     1       5.921   4.799   2.242  0.00  0.00    +0.041 A 
ATOM     32  C   UNL     1       5.272   4.576   3.446  0.00  0.00    +0.021 A 
ATOM     33  C   UNL     1       4.356   3.552   3.559  0.00  0.00    +0.013 A 
ATOM     34 CL   UNL     1       7.073   6.090   2.108  0.00  0.00    -0.084 Cl
ENDBRANCH  26  28
ENDBRANCH   2  26
TORSDOF 6
