REMARK  Name = ZINC09437358
REMARK  12 active torsions:
REMARK  status: ('A' for Active; 'I' for Inactive)
REMARK    1  A    between atoms: C_1  and  C_2
REMARK    2  A    between atoms: N_5  and  S_11
REMARK    3  A    between atoms: C_7  and  C_10
REMARK    4  A    between atoms: S_11  and  C_14
REMARK    5  A    between atoms: C_16  and  C_21
REMARK    6  A    between atoms: C_21  and  O_23
REMARK    7  A    between atoms: O_23  and  C_24
REMARK    8  A    between atoms: C_24  and  C_25
REMARK    9  A    between atoms: N_30  and  C_31
REMARK   10  A    between atoms: C_31  and  C_32
REMARK   11  A    between atoms: C_32  and  C_33
REMARK   12  A    between atoms: C_32  and  C_34
REMARK                            x       y       z     vdW  Elec       q    Type
REMARK                         _______ _______ _______ _____ _____    ______ ____
ROOT
ATOM      1  C   UNL     1       3.625   1.940  -0.044  0.00  0.00    +0.124 A 
ATOM      2  C   UNL     1       2.472   1.187   0.029  0.00  0.00    +0.045 A 
ATOM      3  C   UNL     1       1.227   1.819   0.020  0.00  0.00    +0.061 A 
ATOM      4  C   UNL     1       1.158   3.212  -0.053  0.00  0.00    +0.016 A 
ATOM      5  C   UNL     1       2.317   3.954  -0.121  0.00  0.00    +0.023 A 
ATOM      6  C   UNL     1       3.550   3.321  -0.116  0.00  0.00    +0.067 A 
ATOM      7 CL   UNL     1       5.006   4.263  -0.201  0.00  0.00    -0.082 Cl
ENDROOT
BRANCH   1   8
ATOM      8  S   UNL     1       5.197   1.144  -0.038  0.00  0.00    +0.062 S 
ATOM      9  O   UNL     1       6.007   1.852   0.890  0.00  0.00    -0.153 OA
ATOM     10  O   UNL     1       4.946  -0.250   0.077  0.00  0.00    -0.153 OA
BRANCH   8  14
ATOM     11  C   UNL     1       7.487   4.268  -3.367  0.00  0.00    +0.039 C 
ATOM     12  C   UNL     1       6.398   3.261  -2.990  0.00  0.00    +0.131 C 
ATOM     13  C   UNL     1       6.844   2.462  -1.761  0.00  0.00    +0.140 C 
ATOM     14  N   UNL     1       5.871   1.381  -1.532  0.00  0.00    -0.172 NA
ATOM     15  C   UNL     1       5.520   0.515  -2.668  0.00  0.00    +0.140 C 
ATOM     16  C   UNL     1       5.135   1.413  -3.855  0.00  0.00    +0.131 C 
ATOM     17  O   UNL     1       6.178   2.364  -4.081  0.00  0.00    -0.371 OA
ATOM     18  C   UNL     1       3.831   2.149  -3.542  0.00  0.00    +0.039 C 
ENDBRANCH   8  14
ENDBRANCH   1   8
BRANCH   3  19
ATOM     19  C   UNL     1      -0.012   1.018   0.093  0.00  0.00    +0.340 C 
ATOM     20  O   UNL     1       0.051  -0.193   0.157  0.00  0.00    -0.245 OA
BRANCH  19  21
ATOM     21  O   UNL     1      -1.212   1.631   0.084  0.00  0.00    -0.452 OA
BRANCH  21  22
ATOM     22  C   UNL     1      -2.387   0.781   0.153  0.00  0.00    +0.328 C 
BRANCH  22  23
ATOM     23  C   UNL     1      -3.627   1.636   0.132  0.00  0.00    +0.258 C 
ATOM     24  O   UNL     1      -3.531   2.842   0.065  0.00  0.00    -0.272 OA
ATOM     25  N   UNL     1      -4.844   1.059   0.186  0.00  0.00    -0.237 N 
ATOM     26  C   UNL     1      -5.954   1.823   0.168  0.00  0.00    +0.306 C 
ATOM     27  O   UNL     1      -5.857   3.033   0.101  0.00  0.00    -0.252 OA
ATOM     28  N   UNL     1      -7.171   1.246   0.222  0.00  0.00    -0.299 N 
ATOM     29  H   UNL     1      -4.921   0.093   0.239  0.00  0.00    +0.159 HD
ATOM     30  H   UNL     1      -7.248   0.281   0.275  0.00  0.00    +0.150 HD
BRANCH  28  31
ATOM     31  C   UNL     1      -8.377   2.078   0.202  0.00  0.00    +0.108 C 
BRANCH  31  32
ATOM     32  C   UNL     1      -9.615   1.181   0.274  0.00  0.00    -0.000 C 
ATOM     33  C   UNL     1      -9.644   0.459   1.623  0.00  0.00    +0.009 C 
ATOM     34  C   UNL     1     -10.874   2.038   0.127  0.00  0.00    +0.009 C 
ENDBRANCH  31  32
ENDBRANCH  28  31
ENDBRANCH  22  23
ENDBRANCH  21  22
ENDBRANCH  19  21
ENDBRANCH   3  19
TORSDOF 8
