REMARK  Name = ZINC06468849
REMARK  10 active torsions:
REMARK  status: ('A' for Active; 'I' for Inactive)
REMARK    1  A    between atoms: C_1  and  C_2
REMARK    2  A    between atoms: C_2  and  C_4
REMARK    3  A    between atoms: C_2  and  N_19
REMARK    4  A    between atoms: C_4  and  N_5
REMARK    5  A    between atoms: C_6  and  C_8
REMARK    6  A    between atoms: C_14  and  C_17
REMARK    7  A    between atoms: C_14  and  C_18
REMARK    8  A    between atoms: C_20  and  C_22
REMARK    9  A    between atoms: C_28  and  C_31
REMARK   10  A    between atoms: C_28  and  C_32
REMARK                            x       y       z     vdW  Elec       q    Type
REMARK                         _______ _______ _______ _____ _____    ______ ____
ROOT
ATOM      1  C   UNL     1       4.582   1.588  -1.443  0.00  0.00    +0.029 C 
ATOM      2  C   UNL     1       3.311   2.376  -1.123  0.00  0.00    +0.087 C 
ENDROOT
BRANCH   2   3
ATOM      3  N   UNL     1       2.892   3.130  -2.307  0.00  0.00    -0.311 N 
ATOM      4  C   UNL     1       3.425   4.342  -2.557  0.00  0.00    +0.223 C 
ATOM      5  O   UNL     1       4.251   4.809  -1.802  0.00  0.00    -0.275 OA
ATOM      6  H   UNL     1       2.231   2.757  -2.911  0.00  0.00    +0.149 HD
BRANCH   4   7
ATOM      7  C   UNL     1       2.994   5.118  -3.775  0.00  0.00    +0.068 C 
ATOM      8  C   UNL     1       1.487   5.516  -3.830  0.00  0.00    +0.021 C 
ATOM      9  C   UNL     1       1.430   6.684  -4.841  0.00  0.00    +0.006 C 
ATOM     10  C   UNL     1       2.907   6.873  -5.303  0.00  0.00    +0.000 C 
ATOM     11  C   UNL     1       3.672   6.519  -3.979  0.00  0.00    +0.025 C 
ATOM     12  C   UNL     1       3.212   5.598  -6.148  0.00  0.00    -0.010 C 
ATOM     13  C   UNL     1       3.288   4.456  -5.129  0.00  0.00    -0.056 C 
ATOM     14  C   UNL     1       3.528   3.189  -5.357  0.00  0.00    +0.009 C 
ATOM     15  C   UNL     1       2.092   5.350  -7.161  0.00  0.00    +0.016 C 
ATOM     16  C   UNL     1       4.557   5.742  -6.864  0.00  0.00    +0.016 C 
ENDBRANCH   4   7
ENDBRANCH   2   3
BRANCH   2  17
ATOM     17  C   UNL     1       2.199   1.407  -0.716  0.00  0.00    +0.126 C 
BRANCH  17  18
ATOM     18  N   UNL     1       0.950   2.148  -0.525  0.00  0.00    -0.313 N 
ATOM     19  C   UNL     1      -0.172   1.496  -0.162  0.00  0.00    +0.223 C 
ATOM     20  O   UNL     1      -0.148   0.295   0.007  0.00  0.00    -0.275 OA
ATOM     21  H   UNL     1       0.931   3.108  -0.660  0.00  0.00    +0.149 HD
BRANCH  19  22
ATOM     22  C   UNL     1      -1.458   2.258   0.029  0.00  0.00    +0.068 C 
ATOM     23  C   UNL     1      -1.996   3.009  -1.227  0.00  0.00    +0.021 C 
ATOM     24  C   UNL     1      -3.495   3.241  -0.929  0.00  0.00    +0.006 C 
ATOM     25  C   UNL     1      -3.714   2.615   0.482  0.00  0.00    +0.000 C 
ATOM     26  C   UNL     1      -2.716   1.404   0.419  0.00  0.00    +0.025 C 
ATOM     27  C   UNL     1      -2.939   3.562   1.448  0.00  0.00    -0.010 C 
ATOM     28  C   UNL     1      -1.449   3.318   1.138  0.00  0.00    -0.056 C 
ATOM     29  C   UNL     1      -0.404   3.886   1.687  0.00  0.00    +0.009 C 
ATOM     30  C   UNL     1      -3.301   5.022   1.167  0.00  0.00    +0.016 C 
ATOM     31  C   UNL     1      -3.248   3.207   2.904  0.00  0.00    +0.016 C 
ENDBRANCH  19  22
ENDBRANCH  17  18
ENDBRANCH   2  17
TORSDOF 5
