REMARK  Name = ZINC09244465
REMARK  7 active torsions:
REMARK  status: ('A' for Active; 'I' for Inactive)
REMARK    1  A    between atoms: C_2  and  S_26
REMARK    2  A    between atoms: C_5  and  N_8
REMARK    3  A    between atoms: C_9  and  C_11
REMARK    4  A    between atoms: C_11  and  O_12
REMARK    5  A    between atoms: O_12  and  C_13
REMARK    6  A    between atoms: C_13  and  C_15
REMARK    7  A    between atoms: S_26  and  N_29
REMARK                            x       y       z     vdW  Elec       q    Type
REMARK                         _______ _______ _______ _____ _____    ______ ____
ROOT
ATOM      1  N   UNL     1       2.357   3.891   0.001  0.00  0.00    -0.280 N 
ATOM      2  C   UNL     1       2.369   5.180  -0.392  0.00  0.00    +0.255 C 
ATOM      3  O   UNL     1       1.327   5.744  -0.651  0.00  0.00    -0.272 OA
ATOM      4  H   UNL     1       3.181   3.461   0.278  0.00  0.00    +0.155 HD
ENDROOT
BRANCH   1   9
ATOM      5  C   UNL     1      -0.439   1.776  -1.118  0.00  0.00    +0.050 A 
ATOM      6  C   UNL     1      -1.222   1.754   0.021  0.00  0.00    +0.108 A 
ATOM      7  C   UNL     1      -0.817   2.432   1.157  0.00  0.00    +0.050 A 
ATOM      8  C   UNL     1       0.369   3.143   1.153  0.00  0.00    +0.065 A 
ATOM      9  C   UNL     1       1.156   3.172   0.008  0.00  0.00    +0.071 A 
ATOM     10  C   UNL     1       0.748   2.485  -1.129  0.00  0.00    +0.065 A 
ATOM     11 CL   UNL     1       1.728   2.517  -2.561  0.00  0.00    -0.082 Cl
ATOM     12 CL   UNL     1       0.873   3.998   2.577  0.00  0.00    -0.082 Cl
BRANCH   6  13
ATOM     13  S   UNL     1      -2.738   0.855   0.029  0.00  0.00    +0.056 S 
ATOM     14  O   UNL     1      -3.552   1.440   1.036  0.00  0.00    -0.153 OA
ATOM     15  O   UNL     1      -3.156   0.754  -1.326  0.00  0.00    -0.153 OA
BRANCH  13  16
ATOM     16  N   UNL     1      -2.392  -0.683   0.533  0.00  0.00    -0.204 NA
ATOM     17  H   UNL     1      -1.480  -0.927   0.757  0.00  0.00    +0.144 HD
ATOM     18  H   UNL     1      -3.102  -1.341   0.605  0.00  0.00    +0.144 HD
ENDBRANCH  13  16
ENDBRANCH   6  13
ENDBRANCH   1   9
BRANCH   2  19
ATOM     19  C   UNL     1       3.676   5.921  -0.507  0.00  0.00    +0.328 C 
BRANCH  19  20
ATOM     20  O   UNL     1       3.424   7.282  -0.944  0.00  0.00    -0.451 OA
BRANCH  20  21
ATOM     21  C   UNL     1       4.497   8.085  -1.098  0.00  0.00    +0.346 C 
ATOM     22  O   UNL     1       5.613   7.657  -0.874  0.00  0.00    -0.244 OA
BRANCH  21  23
ATOM     23  C   UNL     1       4.318   9.470  -1.536  0.00  0.00    +0.097 A 
ATOM     24  C   UNL     1       5.274  10.448  -1.754  0.00  0.00    +0.026 A 
ATOM     25  C   UNL     1       4.844  11.699  -2.179  0.00  0.00    -0.036 A 
ATOM     26  C   UNL     1       3.509  11.865  -2.319  0.00  0.00    -0.006 A 
ATOM     27  S   UNL     1       2.810  10.340  -1.937  0.00  0.00    -0.086 S 
ATOM     28  C   UNL     1       2.793  13.137  -2.715  0.00  0.00    +0.043 C 
ATOM     29  C   UNL     1       3.144  13.417  -4.186  0.00  0.00    +0.005 C 
ATOM     30  C   UNL     1       4.520  14.034  -4.288  0.00  0.00    +0.001 C 
ATOM     31  C   UNL     1       5.687  13.121  -4.012  0.00  0.00    +0.005 C 
ATOM     32  C   UNL     1       5.837  12.816  -2.521  0.00  0.00    +0.036 C 
ENDBRANCH  21  23
ENDBRANCH  20  21
ENDBRANCH  19  20
ENDBRANCH   2  19
TORSDOF 7
