REMARK  Name = ZINC66680227
REMARK  5 active torsions:
REMARK  status: ('A' for Active; 'I' for Inactive)
REMARK    1  A    between atoms: C_1  and  C_2
REMARK    2  A    between atoms: C_3  and  C_7
REMARK    3  A    between atoms: C_7  and  N_8
REMARK    4  A    between atoms: N_8  and  C_9
REMARK    5  A    between atoms: N_12  and  C_13
REMARK                            x       y       z     vdW  Elec       q    Type
REMARK                         _______ _______ _______ _____ _____    ______ ____
ROOT
ATOM      1  N   UNL     1       1.363  -0.031  -3.067  0.00  0.00    -0.284 N 
ATOM      2  C   UNL     1       2.063  -1.137  -3.725  0.00  0.00    +0.134 C 
ATOM      3  C   UNL     1       1.986   1.151  -2.889  0.00  0.00    +0.307 C 
ATOM      4  O   UNL     1       1.405   2.069  -2.344  0.00  0.00    -0.252 OA
ATOM      5  N   UNL     1       3.254   1.314  -3.316  0.00  0.00    -0.267 N 
ATOM      6  H   UNL     1       3.746   0.560  -3.677  0.00  0.00    +0.156 HD
ENDROOT
BRANCH   5   7
ATOM      7  C   UNL     1       3.863   2.575  -3.239  0.00  0.00    +0.073 A 
ATOM      8  C   UNL     1       3.083   3.723  -3.228  0.00  0.00    +0.067 A 
ATOM      9  C   UNL     1       3.686   4.966  -3.151  0.00  0.00    +0.160 A 
ATOM     10  C   UNL     1       5.067   5.065  -3.085  0.00  0.00    +0.161 A 
ATOM     11  C   UNL     1       5.846   3.921  -3.096  0.00  0.00    +0.081 A 
ATOM     12  C   UNL     1       5.247   2.676  -3.167  0.00  0.00    +0.147 A 
ATOM     13  F   UNL     1       6.008   1.559  -3.173  0.00  0.00    -0.203 F 
ATOM     14  F   UNL     1       5.654   6.280  -3.010  0.00  0.00    -0.202 F 
ATOM     15  F   UNL     1       2.927   6.084  -3.140  0.00  0.00    -0.202 F 
ENDBRANCH   5   7
BRANCH   1  16
ATOM     16  C   UNL     1      -0.015  -0.209  -2.604  0.00  0.00    +0.153 C 
BRANCH  16  19
ATOM     17  C   UNL     1      -0.025   1.486   0.004  0.00  0.00    +0.066 C 
ATOM     18  C   UNL     1      -0.010  -0.020  -0.017  0.00  0.00    +0.050 A 
ATOM     19  C   UNL     1      -0.006  -0.714  -1.184  0.00  0.00    +0.029 A 
ATOM     20  S   UNL     1       0.013  -2.391  -0.570  0.00  0.00    -0.079 S 
ATOM     21  C   UNL     1       0.013  -2.034   1.075  0.00  0.00    +0.156 A 
ATOM     22  N   UNL     1       0.005  -0.725   1.097  0.00  0.00    -0.252 NA
ENDBRANCH  16  19
ENDBRANCH   1  16
TORSDOF 3
