REMARK  Name = ZINC12608366
REMARK  6 active torsions:
REMARK  status: ('A' for Active; 'I' for Inactive)
REMARK    1  A    between atoms: C_4  and  N_7
REMARK    2  A    between atoms: C_8  and  C_10
REMARK    3  A    between atoms: C_15  and  N_16
REMARK    4  A    between atoms: C_17  and  C_19
REMARK    5  A    between atoms: C_19  and  N_20
REMARK    6  A    between atoms: C_22  and  C_31
REMARK                            x       y       z     vdW  Elec       q    Type
REMARK                         _______ _______ _______ _____ _____    ______ ____
ROOT
ATOM      1  N   UNL     1      -3.904   2.703  -0.054  0.00  0.00    -0.284 N 
ATOM      2  C   UNL     1      -5.159   3.175  -0.193  0.00  0.00    +0.235 C 
ATOM      3  O   UNL     1      -6.104   2.420  -0.105  0.00  0.00    -0.274 OA
ATOM      4  H   UNL     1      -3.152   3.316  -0.059  0.00  0.00    +0.155 HD
ENDROOT
BRANCH   1  10
ATOM      5  C   UNL     1      -2.554   0.735  -0.469  0.00  0.00    +0.058 A 
ATOM      6  C   UNL     1      -2.345  -0.637  -0.304  0.00  0.00    +0.015 A 
ATOM      7  C   UNL     1      -3.253  -1.390   0.408  0.00  0.00    +0.001 A 
ATOM      8  C   UNL     1      -4.374  -0.794   0.962  0.00  0.00    +0.002 A 
ATOM      9  C   UNL     1      -4.594   0.560   0.808  0.00  0.00    +0.024 A 
ATOM     10  C   UNL     1      -3.687   1.336   0.098  0.00  0.00    +0.046 A 
BRANCH   5  12
ATOM     11  N   UNL     1      -0.548   0.952  -1.852  0.00  0.00    -0.281 N 
ATOM     12  C   UNL     1      -1.585   1.547  -1.229  0.00  0.00    +0.250 C 
ATOM     13  O   UNL     1      -1.722   2.753  -1.294  0.00  0.00    -0.270 OA
ATOM     14  H   UNL     1      -0.476  -0.016  -1.856  0.00  0.00    +0.155 HD
BRANCH  11  18
ATOM     15  C   UNL     1       2.333   3.265  -3.774  0.00  0.00    +0.000 A 
ATOM     16  C   UNL     1       2.701   2.095  -3.135  0.00  0.00    +0.002 A 
ATOM     17  C   UNL     1       1.748   1.326  -2.497  0.00  0.00    +0.023 A 
ATOM     18  C   UNL     1       0.419   1.728  -2.497  0.00  0.00    +0.034 A 
ATOM     19  C   UNL     1       0.052   2.901  -3.145  0.00  0.00    +0.023 A 
ATOM     20  C   UNL     1       1.010   3.668  -3.777  0.00  0.00    +0.002 A 
ENDBRANCH  11  18
ENDBRANCH   5  12
ENDBRANCH   1  10
BRANCH   2  21
ATOM     21  C   UNL     1      -5.388   4.641  -0.459  0.00  0.00    +0.201 C 
BRANCH  21  22
ATOM     22  N   UNL     1      -6.829   4.921  -0.448  0.00  0.00    -0.314 N 
ATOM     23  C   UNL     1      -7.355   4.919   0.922  0.00  0.00    +0.160 C 
ATOM     24  C   UNL     1      -8.830   5.340   0.882  0.00  0.00    +0.275 C 
ATOM     25  O   UNL     1      -8.890   6.683   0.390  0.00  0.00    -0.476 OA
ATOM     26  C   UNL     1      -8.128   6.969  -0.701  0.00  0.00    +0.143 A 
ATOM     27  C   UNL     1      -7.113   6.115  -1.119  0.00  0.00    +0.073 A 
ATOM     28  C   UNL     1      -6.353   6.448  -2.235  0.00  0.00    +0.027 A 
ATOM     29  C   UNL     1      -6.607   7.617  -2.926  0.00  0.00    +0.002 A 
ATOM     30  C   UNL     1      -7.619   8.462  -2.511  0.00  0.00    +0.004 A 
ATOM     31  C   UNL     1      -8.378   8.140  -1.402  0.00  0.00    +0.047 A 
BRANCH  24  32
ATOM     32  C   UNL     1      -9.416   5.278   2.269  0.00  0.00    +0.253 C 
ATOM     33  O   UNL     1      -9.789   6.294   2.815  0.00  0.00    -0.272 OA
ATOM     34  N   UNL     1      -9.526   4.093   2.902  0.00  0.00    -0.326 N 
ATOM     35  H   UNL     1      -9.228   3.280   2.464  0.00  0.00    +0.145 HD
ATOM     36  H   UNL     1      -9.903   4.053   3.794  0.00  0.00    +0.145 HD
ENDBRANCH  24  32
ENDBRANCH  21  22
ENDBRANCH   2  21
TORSDOF 6
