REMARK  Name = ZINC37393973
REMARK  6 active torsions:
REMARK  status: ('A' for Active; 'I' for Inactive)
REMARK    1  A    between atoms: C_1  and  C_2
REMARK    2  A    between atoms: C_8  and  N_10
REMARK    3  A    between atoms: N_10  and  S_11
REMARK    4  A    between atoms: S_11  and  C_14
REMARK    5  A    between atoms: C_17  and  N_23
REMARK    6  A    between atoms: C_18  and  N_20
REMARK                            x       y       z     vdW  Elec       q    Type
REMARK                         _______ _______ _______ _____ _____    ______ ____
ROOT
ATOM      1  S   UNL     1       3.251   0.648   3.123  0.00  0.00    +0.059 S 
ATOM      2  O   UNL     1       4.612   1.058   3.135  0.00  0.00    -0.153 OA
ATOM      3  O   UNL     1       2.229   1.381   3.784  0.00  0.00    -0.153 OA
ENDROOT
BRANCH   1   4
ATOM      4  C   UNL     1       3.211  -0.983   3.788  0.00  0.00    +0.108 A 
ATOM      5  C   UNL     1       2.047  -1.468   4.356  0.00  0.00    +0.030 A 
ATOM      6  C   UNL     1       2.011  -2.746   4.877  0.00  0.00    +0.027 A 
ATOM      7  C   UNL     1       3.147  -3.545   4.831  0.00  0.00    +0.055 A 
ATOM      8  C   UNL     1       4.314  -3.055   4.260  0.00  0.00    +0.149 A 
ATOM      9  C   UNL     1       4.341  -1.778   3.735  0.00  0.00    +0.063 A 
BRANCH   8  10
ATOM     10  N   UNL     1       5.527  -3.903   4.209  0.00  0.00    +0.058 N 
ATOM     11  O   UNL     1       5.795  -4.630   5.137  0.00  0.00    -0.126 OA
ATOM     12  O   UNL     1       6.248  -3.868   3.240  0.00  0.00    -0.126 OA
ENDBRANCH   8  10
BRANCH   7  13
ATOM     13  N   UNL     1       3.115  -4.839   5.358  0.00  0.00    -0.356 N 
ATOM     14  H   UNL     1       2.344  -5.137   5.865  0.00  0.00    +0.142 HD
ATOM     15  H   UNL     1       3.864  -5.439   5.216  0.00  0.00    +0.142 HD
ENDBRANCH   7  13
ENDBRANCH   1   4
BRANCH   1  16
ATOM     16  N   UNL     1       2.803   0.540   1.532  0.00  0.00    -0.187 NA
ATOM     17  H   UNL     1       3.438   0.760   0.834  0.00  0.00    +0.148 HD
BRANCH  16  24
ATOM     18  C   UNL     1       0.987   2.365   0.205  0.00  0.00    +0.009 C 
ATOM     19  C   UNL     1       0.983   0.860  -0.070  0.00  0.00    +0.005 C 
ATOM     20  C   UNL     1       1.932   0.551  -1.230  0.00  0.00    +0.005 C 
ATOM     21  C   UNL     1       1.929  -0.954  -1.505  0.00  0.00    +0.000 C 
ATOM     22  C   UNL     1       2.392  -1.702  -0.254  0.00  0.00    +0.002 C 
ATOM     23  C   UNL     1       1.443  -1.394   0.906  0.00  0.00    +0.020 C 
ATOM     24  C   UNL     1       1.447   0.111   1.181  0.00  0.00    +0.079 C 
ENDBRANCH  16  24
ENDBRANCH   1  16
TORSDOF 5
