REMARK  Name = ZINC04577311
REMARK  7 active torsions:
REMARK  status: ('A' for Active; 'I' for Inactive)
REMARK    1  A    between atoms: C_1  and  C_2
REMARK    2  A    between atoms: C_2  and  O_3
REMARK    3  A    between atoms: O_3  and  C_4
REMARK    4  A    between atoms: C_6  and  C_11
REMARK    5  A    between atoms: C_9  and  O_10
REMARK    6  A    between atoms: C_15  and  C_17
REMARK    7  A    between atoms: C_20  and  C_23
REMARK                            x       y       z     vdW  Elec       q    Type
REMARK                         _______ _______ _______ _____ _____    ______ ____
ROOT
ATOM      1  C   UNL     1      -0.217  -4.963  -0.535  0.00  0.00    +0.183 C 
ATOM      2  N   UNL     1      -0.553  -6.283   0.045  0.00  0.00    -0.250 N 
ATOM      3  N   UNL     1       0.132  -7.351  -0.489  0.00  0.00    -0.178 NA
ATOM      4  C   UNL     1       1.015  -7.229  -1.435  0.00  0.00    +0.124 C 
ATOM      5  S   UNL     1       1.046  -5.474  -1.772  0.00  0.00    -0.075 S 
ATOM      6  H   UNL     1      -1.210  -6.388   0.750  0.00  0.00    +0.170 HD
ENDROOT
BRANCH   4   7
ATOM      7  C   UNL     1       1.808  -8.296  -2.083  0.00  0.00    +0.008 A 
ATOM      8  C   UNL     1       2.724  -7.976  -3.087  0.00  0.00    +0.011 A 
ATOM      9  C   UNL     1       3.461  -8.975  -3.688  0.00  0.00    +0.004 A 
ATOM     10  C   UNL     1       3.295 -10.292  -3.297  0.00  0.00    -0.050 A 
ATOM     11  C   UNL     1       2.389 -10.616  -2.302  0.00  0.00    +0.004 A 
ATOM     12  C   UNL     1       1.650  -9.625  -1.689  0.00  0.00    +0.011 A 
ATOM     13  C   UNL     1       4.103 -11.379  -3.957  0.00  0.00    +0.044 C 
ENDBRANCH   4   7
BRANCH   1  16
ATOM     14  C   UNL     1       0.802  -1.825   1.306  0.00  0.00    +0.162 A 
ATOM     15  C   UNL     1       0.261  -2.673   0.353  0.00  0.00    +0.055 A 
ATOM     16  C   UNL     1       0.372  -4.043   0.502  0.00  0.00    -0.012 A 
ATOM     17  C   UNL     1       1.024  -4.570   1.602  0.00  0.00    +0.010 A 
ATOM     18  C   UNL     1       1.566  -3.730   2.557  0.00  0.00    +0.049 A 
ATOM     19  C   UNL     1       1.462  -2.356   2.410  0.00  0.00    +0.158 A 
BRANCH  19  20
ATOM     20  O   UNL     1       2.000  -1.528   3.345  0.00  0.00    -0.503 OA
ATOM     21  H   UNL     1       1.395  -1.301   4.064  0.00  0.00    +0.292 HD
ENDBRANCH  19  20
BRANCH  14  22
ATOM     22  O   UNL     1       0.693  -0.477   1.160  0.00  0.00    -0.489 OA
BRANCH  22  24
ATOM     23  C   UNL     1      -0.019   1.526   0.010  0.00  0.00    +0.048 C 
ATOM     24  C   UNL     1       0.002  -0.004   0.002  0.00  0.00    +0.226 C 
ENDBRANCH  22  24
ENDBRANCH  14  22
ENDBRANCH   1  16
TORSDOF 5
