REMARK  Name = ZINC66807078
REMARK  6 active torsions:
REMARK  status: ('A' for Active; 'I' for Inactive)
REMARK    1  A    between atoms: C_4  and  C_7
REMARK    2  A    between atoms: C_7  and  C_8
REMARK    3  A    between atoms: N_10  and  C_11
REMARK    4  A    between atoms: C_17  and  C_19
REMARK    5  A    between atoms: C_19  and  S_20
REMARK    6  A    between atoms: S_20  and  C_21
REMARK                            x       y       z     vdW  Elec       q    Type
REMARK                         _______ _______ _______ _____ _____    ______ ____
ROOT
ATOM      1  C   UNL     1       3.726  -4.080  -3.435  0.00  0.00    +0.076 C 
ATOM      2  C   UNL     1       2.445  -4.721  -3.974  0.00  0.00    +0.041 C 
ATOM      3  C   UNL     1       2.566  -6.245  -3.888  0.00  0.00    +0.109 C 
ATOM      4  N   UNL     1       3.789  -6.662  -4.587  0.00  0.00    -0.301 N 
ATOM      5  C   UNL     1       5.066  -6.041  -4.210  0.00  0.00    +0.109 C 
ATOM      6  C   UNL     1       4.916  -4.519  -4.292  0.00  0.00    +0.041 C 
ATOM      7  C   UNL     1       3.741  -7.598  -5.557  0.00  0.00    +0.226 C 
ATOM      8  O   UNL     1       2.681  -8.103  -5.859  0.00  0.00    -0.275 OA
ENDROOT
BRANCH   1  11
ATOM      9  C   UNL     1       2.999  -1.962  -2.475  0.00  0.00    +0.214 C 
ATOM     10  O   UNL     1       2.561  -2.576  -1.526  0.00  0.00    -0.276 OA
ATOM     11  N   UNL     1       3.601  -2.621  -3.485  0.00  0.00    -0.312 N 
ATOM     12  H   UNL     1       3.951  -2.130  -4.245  0.00  0.00    +0.149 HD
BRANCH   9  13
ATOM     13  C   UNL     1       2.870  -0.461  -2.526  0.00  0.00    +0.099 C 
BRANCH  13  17
ATOM     14  C   UNL     1      -0.019   1.526   0.010  0.00  0.00    +0.000 C 
ATOM     15  C   UNL     1       1.417   2.055  -0.000  0.00  0.00    +0.000 C 
ATOM     16  C   UNL     1       2.133   1.562  -1.259  0.00  0.00    +0.004 C 
ATOM     17  C   UNL     1       2.154   0.032  -1.268  0.00  0.00    -0.002 C 
ATOM     18  C   UNL     1       0.718  -0.497  -1.257  0.00  0.00    +0.004 C 
ATOM     19  C   UNL     1       0.002  -0.004   0.002  0.00  0.00    +0.000 C 
ENDBRANCH  13  17
ENDBRANCH   9  13
ENDBRANCH   1  11
BRANCH   7  20
ATOM     20  C   UNL     1       5.004  -8.015  -6.265  0.00  0.00    +0.173 C 
BRANCH  20  21
ATOM     21  S   UNL     1       4.612  -9.279  -7.505  0.00  0.00    -0.042 S 
BRANCH  21  22
ATOM     22  C   UNL     1       6.217  -9.668  -8.257  0.00  0.00    +0.444 C 
ATOM     23  F   UNL     1       7.089 -10.147  -7.273  0.00  0.00    -0.160 F 
ATOM     24  F   UNL     1       6.045 -10.645  -9.243  0.00  0.00    -0.160 F 
ATOM     25  F   UNL     1       6.754  -8.513  -8.833  0.00  0.00    -0.160 F 
ENDBRANCH  21  22
ENDBRANCH  20  21
ENDBRANCH   7  20
TORSDOF 6
