REMARK  Name = ZINC21973536
REMARK  10 active torsions:
REMARK  status: ('A' for Active; 'I' for Inactive)
REMARK    1  A    between atoms: C_1  and  C_2
REMARK    2  A    between atoms: C_5  and  N_8
REMARK    3  A    between atoms: C_9  and  C_11
REMARK    4  A    between atoms: C_11  and  O_12
REMARK    5  A    between atoms: O_12  and  C_13
REMARK    6  A    between atoms: C_13  and  C_15
REMARK    7  A    between atoms: C_15  and  N_16
REMARK    8  A    between atoms: C_21  and  C_28
REMARK    9  A    between atoms: C_24  and  C_26
REMARK   10  A    between atoms: C_24  and  C_27
REMARK                            x       y       z     vdW  Elec       q    Type
REMARK                         _______ _______ _______ _____ _____    ______ ____
ROOT
ATOM      1  C   UNL     1       0.721  -9.016   4.783  0.00  0.00    +0.238 C 
ENDROOT
BRANCH   1   2
ATOM      2  N   UNL     1       0.836 -10.447   4.489  0.00  0.00    -0.213 N 
ATOM      3  C   UNL     1      -0.215 -11.287   4.387  0.00  0.00    +0.247 C 
ATOM      4  O   UNL     1      -1.389 -11.013   4.516  0.00  0.00    -0.273 OA
ATOM      5  C   UNL     1       0.380 -12.642   4.078  0.00  0.00    +0.113 C 
ATOM      6  C   UNL     1       0.039 -13.637   5.182  0.00  0.00    +0.038 C 
ATOM      7  C   UNL     1       0.676 -14.992   4.864  0.00  0.00    -0.011 C 
ATOM      8  C   UNL     1       0.151 -15.498   3.519  0.00  0.00    +0.009 C 
ATOM      9  C   UNL     1       0.521 -14.501   2.419  0.00  0.00    -0.032 C 
ATOM     10  C   UNL     1      -0.116 -13.144   2.726  0.00  0.00    +0.041 C 
ATOM     11  C   UNL     1       0.006 -15.014   1.072  0.00  0.00    +0.011 C 
ATOM     12  C   UNL     1       2.042 -14.349   2.358  0.00  0.00    +0.011 C 
ATOM     13  C   UNL     1       0.315 -15.995   5.963  0.00  0.00    +0.007 C 
ATOM     14  N   UNL     1       1.827 -12.395   4.036  0.00  0.00    -0.285 N 
ATOM     15  C   UNL     1       1.996 -11.082   4.283  0.00  0.00    +0.310 C 
ATOM     16  O   UNL     1       3.081 -10.535   4.318  0.00  0.00    -0.252 OA
ATOM     17  H   UNL     1       2.523 -13.047   3.861  0.00  0.00    +0.151 HD
ENDBRANCH   1   2
BRANCH   1  18
ATOM     18  C   UNL     1       0.587  -8.248   3.493  0.00  0.00    +0.326 C 
ATOM     19  O   UNL     1       0.587  -8.835   2.437  0.00  0.00    -0.249 OA
BRANCH  18  20
ATOM     20  O   UNL     1       0.467  -6.911   3.518  0.00  0.00    -0.454 OA
BRANCH  20  21
ATOM     21  C   UNL     1       0.344  -6.248   2.258  0.00  0.00    +0.328 C 
BRANCH  21  23
ATOM     22  N   UNL     1       0.092  -3.930   1.430  0.00  0.00    -0.283 N 
ATOM     23  C   UNL     1       0.220  -4.763   2.483  0.00  0.00    +0.255 C 
ATOM     24  O   UNL     1       0.236  -4.316   3.610  0.00  0.00    -0.272 OA
ATOM     25  H   UNL     1       0.003  -4.291   0.534  0.00  0.00    +0.155 HD
BRANCH  22  30
ATOM     26  C   UNL     1       0.079   1.685   2.239  0.00  0.00    +0.044 C 
ATOM     27  C   UNL     1       0.082   0.193   2.024  0.00  0.00    -0.050 A 
ATOM     28  C   UNL     1       0.845  -0.620   2.843  0.00  0.00    +0.005 A 
ATOM     29  C   UNL     1       0.850  -1.987   2.648  0.00  0.00    +0.023 A 
ATOM     30  C   UNL     1       0.088  -2.545   1.630  0.00  0.00    +0.034 A 
ATOM     31  C   UNL     1      -0.676  -1.726   0.810  0.00  0.00    +0.023 A 
ATOM     32  C   UNL     1      -0.681  -0.360   1.012  0.00  0.00    +0.005 A 
ENDBRANCH  22  30
ENDBRANCH  21  23
ENDBRANCH  20  21
ENDBRANCH  18  20
ENDBRANCH   1  18
TORSDOF 6
