REMARK  Name = ZINC40757774
REMARK  7 active torsions:
REMARK  status: ('A' for Active; 'I' for Inactive)
REMARK    1  A    between atoms: C_1  and  C_2
REMARK    2  A    between atoms: C_5  and  S_8
REMARK    3  A    between atoms: S_8  and  C_9
REMARK    4  A    between atoms: C_10  and  N_23
REMARK    5  A    between atoms: C_11  and  N_15
REMARK    6  A    between atoms: N_15  and  C_16
REMARK    7  A    between atoms: N_15  and  C_17
REMARK                            x       y       z     vdW  Elec       q    Type
REMARK                         _______ _______ _______ _____ _____    ______ ____
ROOT
ATOM      1  C   UNL     1      -0.121  -5.036   1.706  0.00  0.00    +0.127 A 
ATOM      2  C   UNL     1       0.180  -6.344   2.092  0.00  0.00    +0.098 A 
ATOM      3  C   UNL     1       0.380  -6.600   3.450  0.00  0.00    +0.150 A 
ATOM      4  N   UNL     1       0.277  -5.596   4.318  0.00  0.00    -0.218 NA
ATOM      5  C   UNL     1      -0.010  -4.376   3.911  0.00  0.00    +0.224 A 
ATOM      6  N   UNL     1      -0.201  -4.090   2.639  0.00  0.00    -0.227 NA
ENDROOT
BRANCH   2   7
ATOM      7  N   UNL     1       0.279  -7.372   1.142  0.00  0.00    -0.353 N 
ATOM      8  H   UNL     1       0.210  -7.167   0.197  0.00  0.00    +0.142 HD
ATOM      9  H   UNL     1       0.417  -8.288   1.431  0.00  0.00    +0.142 HD
ENDBRANCH   2   7
BRANCH   3  10
ATOM     10  N   UNL     1       0.682  -7.885   3.889  0.00  0.00    -0.287 N 
ATOM     11  C   UNL     1      -0.387  -8.770   4.356  0.00  0.00    +0.137 C 
BRANCH  10  12
ATOM     12  C   UNL     1       2.007  -8.331   3.884  0.00  0.00    +0.035 A 
ATOM     13  C   UNL     1       3.035  -7.457   3.555  0.00  0.00    +0.023 A 
ATOM     14  C   UNL     1       4.342  -7.902   3.552  0.00  0.00    +0.002 A 
ATOM     15  C   UNL     1       4.628  -9.215   3.876  0.00  0.00    +0.000 A 
ATOM     16  C   UNL     1       3.607 -10.088   4.203  0.00  0.00    +0.002 A 
ATOM     17  C   UNL     1       2.298  -9.649   4.214  0.00  0.00    +0.023 A 
ENDBRANCH  10  12
ENDBRANCH   3  10
BRANCH   1  18
ATOM     18  S   UNL     1      -0.385  -4.643   0.009  0.00  0.00    -0.068 S 
BRANCH  18  23
ATOM     19  C   UNL     1      -1.043   1.357  -0.017  0.00  0.00    +0.044 C 
ATOM     20  C   UNL     1      -0.878  -0.141  -0.010  0.00  0.00    -0.050 A 
ATOM     21  C   UNL     1       0.387  -0.696  -0.057  0.00  0.00    +0.004 A 
ATOM     22  C   UNL     1       0.542  -2.068  -0.051  0.00  0.00    +0.015 A 
ATOM     23  C   UNL     1      -0.577  -2.891   0.002  0.00  0.00    +0.014 A 
ATOM     24  C   UNL     1      -1.847  -2.330   0.049  0.00  0.00    +0.015 A 
ATOM     25  C   UNL     1      -1.994  -0.957   0.048  0.00  0.00    +0.004 A 
ENDBRANCH  18  23
ENDBRANCH   1  18
TORSDOF 5
