REMARK  Name = ZINC01635782
REMARK  4 active torsions:
REMARK  status: ('A' for Active; 'I' for Inactive)
REMARK    1  A    between atoms: C_2  and  N_14
REMARK    2  A    between atoms: C_3  and  S_9
REMARK    3  A    between atoms: S_9  and  N_12
REMARK    4  A    between atoms: N_12  and  O_13
REMARK                            x       y       z     vdW  Elec       q    Type
REMARK                         _______ _______ _______ _____ _____    ______ ____
ROOT
ATOM      1  C   UNL     1      -3.341   1.065  -2.967  0.00  0.00    +0.046 A 
ATOM      2  C   UNL     1      -2.690   0.790  -1.771  0.00  0.00    +0.053 A 
ATOM      3  C   UNL     1      -2.247  -0.499  -1.505  0.00  0.00    +0.129 A 
ATOM      4  C   UNL     1      -2.449  -1.503  -2.432  0.00  0.00    +0.052 A 
ATOM      5  C   UNL     1      -3.101  -1.228  -3.620  0.00  0.00    +0.061 A 
ATOM      6  C   UNL     1      -3.545   0.056  -3.889  0.00  0.00    +0.061 A 
ATOM      7 CL   UNL     1      -4.357   0.399  -5.384  0.00  0.00    -0.082 Cl
ATOM      8 CL   UNL     1      -3.359  -2.494  -4.780  0.00  0.00    -0.082 Cl
ENDROOT
BRANCH   3   9
ATOM      9  S   UNL     1      -1.421  -0.852   0.011  0.00  0.00    +0.082 S 
ATOM     10  O   UNL     1      -1.073  -2.229  -0.027  0.00  0.00    -0.151 OA
ATOM     11  O   UNL     1      -2.218  -0.295   1.047  0.00  0.00    -0.151 OA
BRANCH   9  12
ATOM     12  N   UNL     1       0.002  -0.004   0.002  0.00  0.00    -0.071 NA
ATOM     13  H   UNL     1       0.849  -0.478  -0.009  0.00  0.00    +0.181 HD
BRANCH  12  14
ATOM     14  O   UNL     1      -0.017   1.412   0.010  0.00  0.00    -0.295 OA
ATOM     15  H   UNL     1       0.861   1.817   0.004  0.00  0.00    +0.238 HD
ENDBRANCH  12  14
ENDBRANCH   9  12
ENDBRANCH   3   9
BRANCH   2  16
ATOM     16  N   UNL     1      -2.483   1.808  -0.837  0.00  0.00    -0.356 N 
ATOM     17  H   UNL     1      -2.029   1.615  -0.001  0.00  0.00    +0.142 HD
ATOM     18  H   UNL     1      -2.793   2.708  -1.023  0.00  0.00    +0.142 HD
ENDBRANCH   2  16
TORSDOF 4
