REMARK  Name = ZINC20379754
REMARK  4 active torsions:
REMARK  status: ('A' for Active; 'I' for Inactive)
REMARK    1  A    between atoms: C_10  and  C_13
REMARK    2  A    between atoms: C_13  and  C_14
REMARK    3  A    between atoms: N_19  and  C_22
REMARK    4  A    between atoms: C_22  and  C_23
REMARK                            x       y       z     vdW  Elec       q    Type
REMARK                         _______ _______ _______ _____ _____    ______ ____
ROOT
ATOM      1  C   UNL     1      -0.016   1.344   0.009  0.00  0.00    +0.220 C 
ATOM      2  O   UNL     1      -1.075   1.936   0.018  0.00  0.00    -0.275 OA
ATOM      3  N   UNL     1       0.002  -0.004   0.002  0.00  0.00    -0.299 N 
ATOM      4  C   UNL     1       1.274  -0.742  -0.020  0.00  0.00    +0.123 C 
ATOM      5  C   UNL     1       1.250  -1.780   1.113  0.00  0.00    +0.103 C 
ATOM      6  N   UNL     1       0.047  -2.613   0.980  0.00  0.00    -0.295 NA
ATOM      7  C   UNL     1      -1.175  -1.813   1.136  0.00  0.00    +0.103 C 
ATOM      8  C   UNL     1      -1.250  -0.776   0.010  0.00  0.00    +0.123 C 
ENDROOT
BRANCH   1   9
ATOM      9  C   UNL     1       1.278   2.115   0.001  0.00  0.00    +0.150 C 
BRANCH   9  19
ATOM     10  C   UNL     1       2.608   4.234  -4.622  0.00  0.00    +0.002 A 
ATOM     11  C   UNL     1       1.287   3.833  -4.705  0.00  0.00    +0.004 A 
ATOM     12  C   UNL     1       0.516   3.733  -3.561  0.00  0.00    +0.047 A 
ATOM     13  C   UNL     1       1.069   4.033  -2.327  0.00  0.00    +0.143 A 
ATOM     14  C   UNL     1       2.407   4.416  -2.241  0.00  0.00    +0.076 A 
ATOM     15  C   UNL     1       3.169   4.529  -3.393  0.00  0.00    +0.027 A 
ATOM     16  N   UNL     1       2.962   4.703  -0.987  0.00  0.00    -0.280 N 
ATOM     17  C   UNL     1       2.270   4.384   0.128  0.00  0.00    +0.259 C 
ATOM     18  O   UNL     1       2.686   4.716   1.218  0.00  0.00    -0.271 OA
ATOM     19  C   UNL     1       0.979   3.615   0.012  0.00  0.00    +0.268 C 
ATOM     20  O   UNL     1       0.312   3.976  -1.200  0.00  0.00    -0.477 OA
ATOM     21  H   UNL     1       3.949   5.182  -0.919  0.00  0.00    +0.155 HD
ENDBRANCH   9  19
ENDBRANCH   1   9
BRANCH   6  22
ATOM     22  C   UNL     1       0.071  -3.728   1.936  0.00  0.00    +0.119 C 
BRANCH  22  23
ATOM     23  C   UNL     1       1.432  -4.375   1.920  0.00  0.00    -0.030 A 
ATOM     24  C   UNL     1       1.688  -5.421   1.054  0.00  0.00    +0.009 A 
ATOM     25  C   UNL     1       2.937  -6.014   1.031  0.00  0.00    +0.050 A 
ATOM     26  C   UNL     1       3.932  -5.567   1.885  0.00  0.00    +0.166 A 
ATOM     27  C   UNL     1       3.673  -4.516   2.761  0.00  0.00    +0.167 A 
ATOM     28  C   UNL     1       2.421  -3.923   2.774  0.00  0.00    +0.054 A 
ATOM     29  O   UNL     1       4.800  -4.266   3.488  0.00  0.00    -0.453 OA
ATOM     30  C   UNL     1       5.872  -4.899   2.765  0.00  0.00    +0.466 C 
ATOM     31  O   UNL     1       5.223  -5.975   2.063  0.00  0.00    -0.453 OA
ENDBRANCH  22  23
ENDBRANCH   6  22
TORSDOF 4
