REMARK  Name = ZINC39448431
REMARK  5 active torsions:
REMARK  status: ('A' for Active; 'I' for Inactive)
REMARK    1  A    between atoms: C_1  and  C_2
REMARK    2  A    between atoms: C_5  and  S_8
REMARK    3  A    between atoms: S_8  and  N_11
REMARK    4  A    between atoms: C_13  and  C_22
REMARK    5  A    between atoms: N_24  and  O_25
REMARK                            x       y       z     vdW  Elec       q    Type
REMARK                         _______ _______ _______ _____ _____    ______ ____
ROOT
ATOM      1  N   UNL     1       1.651  -4.999  -0.034  0.00  0.00    -0.195 N 
ATOM      2  C   UNL     1       2.345  -5.308  -1.296  0.00  0.00    +0.184 C 
ATOM      3  C   UNL     1       3.749  -4.690  -1.216  0.00  0.00    +0.257 C 
ATOM      4  O   UNL     1       4.426  -5.232  -0.080  0.00  0.00    -0.478 OA
ATOM      5  C   UNL     1       3.769  -5.230   1.110  0.00  0.00    +0.144 A 
ATOM      6  C   UNL     1       2.384  -5.111   1.158  0.00  0.00    +0.093 A 
ATOM      7  C   UNL     1       1.728  -5.109   2.379  0.00  0.00    +0.028 A 
ATOM      8  C   UNL     1       2.455  -5.216   3.551  0.00  0.00    +0.002 A 
ATOM      9  C   UNL     1       3.832  -5.326   3.504  0.00  0.00    +0.004 A 
ATOM     10  C   UNL     1       4.487  -5.341   2.291  0.00  0.00    +0.047 A 
ENDROOT
BRANCH   3  11
ATOM     11  C   UNL     1       4.517  -5.018  -2.470  0.00  0.00    +0.141 C 
ATOM     12  N   UNL     1       4.655  -6.250  -2.840  0.00  0.00    -0.384 N 
ATOM     13  N   UNL     1       5.070  -4.012  -3.218  0.00  0.00    -0.253 N 
ATOM     14  H   UNL     1       5.150  -6.461  -3.648  0.00  0.00    +0.157 HD
ATOM     15  H   UNL     1       4.966  -3.088  -2.940  0.00  0.00    +0.195 HD
ATOM     16  H   UNL     1       4.264  -6.962  -2.311  0.00  0.00    +0.157 HD
BRANCH  13  17
ATOM     17  O   UNL     1       5.792  -4.320  -4.396  0.00  0.00    -0.288 OA
ATOM     18  H   UNL     1       6.144  -3.546  -4.856  0.00  0.00    +0.244 HD
ENDBRANCH  13  17
ENDBRANCH   3  11
BRANCH   1  19
ATOM     19  S   UNL     1       0.063  -4.530  -0.023  0.00  0.00    +0.075 S 
ATOM     20  O   UNL     1      -0.239  -4.088  -1.339  0.00  0.00    -0.150 OA
ATOM     21  O   UNL     1      -0.107  -3.700   1.118  0.00  0.00    -0.150 OA
BRANCH  19  26
ATOM     22  C   UNL     1      -3.255  -9.478   0.935  0.00  0.00    +0.044 C 
ATOM     23  C   UNL     1      -2.426  -8.242   0.696  0.00  0.00    -0.050 A 
ATOM     24  C   UNL     1      -1.982  -7.490   1.767  0.00  0.00    +0.005 A 
ATOM     25  C   UNL     1      -1.222  -6.356   1.548  0.00  0.00    +0.029 A 
ATOM     26  C   UNL     1      -0.905  -5.976   0.257  0.00  0.00    +0.109 A 
ATOM     27  C   UNL     1      -1.349  -6.729  -0.814  0.00  0.00    +0.029 A 
ATOM     28  C   UNL     1      -2.106  -7.864  -0.594  0.00  0.00    +0.005 A 
ENDBRANCH  19  26
ENDBRANCH   1  19
TORSDOF 4
