REMARK  Name = ZINC40682278
REMARK  6 active torsions:
REMARK  status: ('A' for Active; 'I' for Inactive)
REMARK    1  A    between atoms: C_1  and  C_2
REMARK    2  A    between atoms: C_4  and  C_28
REMARK    3  A    between atoms: C_6  and  N_8
REMARK    4  A    between atoms: C_10  and  N_27
REMARK    5  A    between atoms: C_11  and  N_15
REMARK    6  A    between atoms: C_19  and  C_22
REMARK                            x       y       z     vdW  Elec       q    Type
REMARK                         _______ _______ _______ _____ _____    ______ ____
ROOT
ATOM      1  N   UNL     1       0.052  -2.797   2.391  0.00  0.00    -0.298 N 
ATOM      2  C   UNL     1       0.154  -2.113   3.597  0.00  0.00    +0.149 A 
ATOM      3  C   UNL     1       0.281  -2.812   4.800  0.00  0.00    +0.106 A 
ATOM      4  C   UNL     1       0.379  -2.076   5.982  0.00  0.00    +0.150 A 
ATOM      5  N   UNL     1       0.349  -0.747   5.919  0.00  0.00    -0.219 NA
ATOM      6  C   UNL     1       0.227  -0.127   4.763  0.00  0.00    +0.225 A 
ATOM      7  N   UNL     1       0.137  -0.783   3.624  0.00  0.00    -0.219 NA
ATOM      8  H   UNL     1      -0.012  -3.765   2.386  0.00  0.00    +0.154 HD
ENDROOT
BRANCH   4   9
ATOM      9  N   UNL     1       0.507  -2.722   7.207  0.00  0.00    -0.282 N 
ATOM     10  C   UNL     1       0.605  -1.978   8.380  0.00  0.00    +0.142 A 
ATOM     11  C   UNL     1       0.738  -2.631   9.602  0.00  0.00    +0.081 A 
ATOM     12  C   UNL     1       0.834  -1.878  10.760  0.00  0.00    +0.037 A 
ATOM     13  C   UNL     1       0.793  -0.494  10.655  0.00  0.00    +0.074 A 
ATOM     14  C   UNL     1       0.659   0.086   9.410  0.00  0.00    +0.125 A 
ATOM     15  N   UNL     1       0.575  -0.656   8.322  0.00  0.00    -0.238 NA
ATOM     16 CL   UNL     1       0.783  -4.365   9.674  0.00  0.00    -0.080 Cl
ATOM     17  H   UNL     1       0.528  -3.691   7.245  0.00  0.00    +0.155 HD
BRANCH  13  18
ATOM     18  C   UNL     1       0.893   0.366  11.889  0.00  0.00    +0.419 C 
ATOM     19  F   UNL     1       2.237   0.661  12.143  0.00  0.00    -0.166 F 
ATOM     20  F   UNL     1       0.184   1.555  11.687  0.00  0.00    -0.166 F 
ATOM     21  F   UNL     1       0.351  -0.321  12.981  0.00  0.00    -0.166 F 
ENDBRANCH  13  18
ENDBRANCH   4   9
BRANCH   1  27
ATOM     22  C   UNL     1      -1.496  -2.375  -2.255  0.00  0.00    +0.044 C 
ATOM     23  C   UNL     1      -0.699  -1.862  -1.083  0.00  0.00    -0.048 A 
ATOM     24  C   UNL     1       0.025  -0.689  -1.201  0.00  0.00    +0.006 A 
ATOM     25  C   UNL     1       0.758  -0.215  -0.128  0.00  0.00    -0.048 A 
ATOM     26  C   UNL     1       0.769  -0.911   1.064  0.00  0.00    +0.026 A 
ATOM     27  C   UNL     1       0.043  -2.090   1.186  0.00  0.00    +0.033 A 
ATOM     28  C   UNL     1      -0.696  -2.561   0.108  0.00  0.00    +0.026 A 
ATOM     29  C   UNL     1       1.545   1.063  -0.261  0.00  0.00    +0.044 C 
ENDBRANCH   1  27
BRANCH   3  30
ATOM     30  N   UNL     1       0.308  -4.215   4.819  0.00  0.00    -0.353 N 
ATOM     31  H   UNL     1       0.239  -4.713   3.990  0.00  0.00    +0.143 HD
ATOM     32  H   UNL     1       0.397  -4.687   5.662  0.00  0.00    +0.143 HD
ENDBRANCH   3  30
TORSDOF 4
