REMARK  Name = ZINC12887602
REMARK  11 active torsions:
REMARK  status: ('A' for Active; 'I' for Inactive)
REMARK    1  A    between atoms: C_1  and  C_2
REMARK    2  A    between atoms: C_2  and  C_3
REMARK    3  A    between atoms: C_3  and  C_5
REMARK    4  A    between atoms: C_3  and  C_6
REMARK    5  A    between atoms: C_6  and  C_8
REMARK    6  A    between atoms: C_6  and  N_16
REMARK    7  A    between atoms: N_10  and  C_11
REMARK    8  A    between atoms: C_11  and  C_13
REMARK    9  A    between atoms: C_11  and  C_14
REMARK   10  A    between atoms: C_14  and  C_15
REMARK   11  A    between atoms: C_17  and  C_19
REMARK                            x       y       z     vdW  Elec       q    Type
REMARK                         _______ _______ _______ _____ _____    ______ ____
ROOT
ATOM      1  C   UNL     1      -1.801   2.292   1.101  0.00  0.00    +0.167 C 
ATOM      2  C   UNL     1      -0.963   2.445   2.379  0.00  0.00    +0.069 C 
ATOM      3  C   UNL     1      -1.758   1.999   3.580  0.00  0.00    -0.015 A 
ATOM      4  C   UNL     1      -1.251   1.700   4.907  0.00  0.00    +0.003 A 
ATOM      5  C   UNL     1       0.036   1.721   5.452  0.00  0.00    +0.010 A 
ATOM      6  C   UNL     1       0.155   1.373   6.775  0.00  0.00    +0.001 A 
ATOM      7  C   UNL     1      -0.941   1.016   7.543  0.00  0.00    +0.002 A 
ATOM      8  C   UNL     1      -2.226   0.987   7.029  0.00  0.00    +0.026 A 
ATOM      9  C   UNL     1      -2.377   1.336   5.689  0.00  0.00    +0.047 A 
ATOM     10  N   UNL     1      -3.474   1.412   4.881  0.00  0.00    -0.356 N 
ATOM     11  H   UNL     1      -4.384   1.220   5.155  0.00  0.00    +0.166 HD
ATOM     12  C   UNL     1      -3.095   1.802   3.625  0.00  0.00    +0.046 A 
ATOM     13  C   UNL     1      -3.995   1.996   2.428  0.00  0.00    +0.155 C 
ATOM     14  N   UNL     1      -3.175   2.700   1.414  0.00  0.00    -0.273 N 
ATOM     15  C   UNL     1      -3.887   3.724   0.927  0.00  0.00    +0.248 C 
ATOM     16  O   UNL     1      -3.594   4.375  -0.057  0.00  0.00    -0.270 OA
ATOM     17  C   UNL     1      -5.073   3.940   1.762  0.00  0.00    +0.042 A 
ATOM     18  C   UNL     1      -5.141   2.904   2.715  0.00  0.00    -0.009 A 
ATOM     19  C   UNL     1      -6.133   2.868   3.670  0.00  0.00    +0.006 A 
ATOM     20  C   UNL     1      -7.075   3.892   3.643  0.00  0.00    +0.000 A 
ATOM     21  C   UNL     1      -7.024   4.904   2.706  0.00  0.00    +0.001 A 
ATOM     22  C   UNL     1      -6.028   4.959   1.742  0.00  0.00    +0.013 A 
ENDROOT
BRANCH   1  24
ATOM     23  N   UNL     1      -0.619   0.263   0.324  0.00  0.00    -0.302 N 
ATOM     24  C   UNL     1      -1.786   0.855   0.649  0.00  0.00    +0.235 C 
ATOM     25  O   UNL     1      -2.823   0.230   0.578  0.00  0.00    -0.274 OA
ATOM     26  H   UNL     1       0.216   0.742   0.440  0.00  0.00    +0.150 HD
BRANCH  23  27
ATOM     27  C   UNL     1      -0.614  -1.102  -0.209  0.00  0.00    +0.162 C 
BRANCH  27  28
ATOM     28  C   UNL     1       0.583  -1.845   0.327  0.00  0.00    +0.234 C 
ATOM     29  O   UNL     1       1.355  -1.290   1.078  0.00  0.00    -0.274 OA
ATOM     30  N   UNL     1       0.794  -3.128  -0.030  0.00  0.00    -0.311 N 
ATOM     31  H   UNL     1       0.217  -3.550  -0.686  0.00  0.00    +0.149 HD
BRANCH  30  32
ATOM     32  C   UNL     1       1.895  -3.884   0.572  0.00  0.00    +0.070 C 
ATOM     33  C   UNL     1       3.186  -3.610  -0.202  0.00  0.00    +0.028 C 
BRANCH  32  34
ATOM     34  C   UNL     1       1.576  -5.379   0.519  0.00  0.00    +0.018 C 
ATOM     35  C   UNL     1       0.356  -5.672   1.395  0.00  0.00    +0.005 C 
ENDBRANCH  32  34
ENDBRANCH  30  32
ENDBRANCH  27  28
BRANCH  27  36
ATOM     36  C   UNL     1      -0.542  -1.052  -1.736  0.00  0.00    +0.015 C 
ATOM     37  C   UNL     1      -1.827  -0.432  -2.288  0.00  0.00    +0.010 C 
BRANCH  36  39
ATOM     38  C   UNL     1       1.953  -0.922  -1.780  0.00  0.00    +0.004 C 
ATOM     39  C   UNL     1       0.658  -0.204  -2.163  0.00  0.00    +0.002 C 
ENDBRANCH  36  39
ENDBRANCH  27  36
ENDBRANCH  23  27
ENDBRANCH   1  24
TORSDOF 7
