REMARK  Name = ZINC40291394
REMARK  6 active torsions:
REMARK  status: ('A' for Active; 'I' for Inactive)
REMARK    1  A    between atoms: C_1  and  C_2
REMARK    2  A    between atoms: C_3  and  C_19
REMARK    3  A    between atoms: C_6  and  O_11
REMARK    4  A    between atoms: C_7  and  C_8
REMARK    5  A    between atoms: C_8  and  N_10
REMARK    6  A    between atoms: O_11  and  C_12
REMARK                            x       y       z     vdW  Elec       q    Type
REMARK                         _______ _______ _______ _____ _____    ______ ____
ROOT
ATOM      1  C   UNL     1       0.169   1.522   0.028  0.00  0.00    +0.046 C 
ATOM      2  C   UNL     1       0.185   0.016   0.009  0.00  0.00    -0.013 A 
ATOM      3  C   UNL     1       0.172  -0.684  -1.187  0.00  0.00    +0.064 A 
ATOM      4  N   UNL     1       0.187  -2.002  -1.182  0.00  0.00    -0.151 NA
ATOM      5  N   UNL     1       0.213  -2.691  -0.100  0.00  0.00    -0.110 NA
ATOM      6  C   UNL     1       0.227  -2.125   1.097  0.00  0.00    +0.250 A 
ATOM      7  C   UNL     1       0.219  -0.722   1.199  0.00  0.00    +0.071 A 
ATOM      8  C   UNL     1       0.141   0.063  -2.495  0.00  0.00    +0.068 C 
ENDROOT
BRANCH   7   9
ATOM      9  C   UNL     1       0.240  -0.052   2.514  0.00  0.00    +0.082 C 
ATOM     10  S   UNL     1       1.726   0.466   3.187  0.00  0.00    -0.035 S 
BRANCH   9  11
ATOM     11  N   UNL     1      -0.911   0.153   3.184  0.00  0.00    -0.352 N 
ATOM     12  H   UNL     1      -1.760  -0.074   2.772  0.00  0.00    +0.143 HD
ATOM     13  H   UNL     1      -0.891   0.527   4.079  0.00  0.00    +0.143 HD
ENDBRANCH   9  11
ENDBRANCH   7   9
BRANCH   6  14
ATOM     14  O   UNL     1       0.254  -2.890   2.214  0.00  0.00    -0.435 OA
BRANCH  14  15
ATOM     15  C   UNL     1       0.367  -4.236   2.062  0.00  0.00    +0.149 A 
ATOM     16  C   UNL     1      -0.770  -5.031   2.037  0.00  0.00    +0.048 A 
ATOM     17  C   UNL     1      -0.653  -6.399   1.883  0.00  0.00    +0.004 A 
ATOM     18  C   UNL     1       0.597  -6.977   1.754  0.00  0.00    +0.002 A 
ATOM     19  C   UNL     1       1.732  -6.188   1.779  0.00  0.00    +0.024 A 
ATOM     20  C   UNL     1       1.620  -4.818   1.927  0.00  0.00    +0.083 A 
ATOM     21 CL   UNL     1       3.045  -3.828   1.950  0.00  0.00    -0.080 Cl
ENDBRANCH  14  15
ENDBRANCH   6  14
TORSDOF 4
