REMARK  Name = ZINC39932294
REMARK  12 active torsions:
REMARK  status: ('A' for Active; 'I' for Inactive)
REMARK    1  A    between atoms: C_1  and  C_2
REMARK    2  A    between atoms: C_4  and  C_14
REMARK    3  A    between atoms: C_5  and  C_13
REMARK    4  A    between atoms: C_14  and  C_15
REMARK    5  A    between atoms: C_15  and  C_16
REMARK    6  A    between atoms: N_18  and  C_19
REMARK    7  A    between atoms: C_19  and  C_20
REMARK    8  A    between atoms: C_20  and  C_21
REMARK    9  A    between atoms: C_21  and  C_22
REMARK   10  A    between atoms: C_22  and  C_23
REMARK   11  A    between atoms: C_23  and  C_24
REMARK   12  A    between atoms: C_25  and  C_31
REMARK                            x       y       z     vdW  Elec       q    Type
REMARK                         _______ _______ _______ _____ _____    ______ ____
ROOT
ATOM      1  C   UNL     1       0.638  -3.890  -3.036  0.00  0.00    +0.213 C 
ATOM      2  O   UNL     1      -0.050  -4.483  -2.232  0.00  0.00    -0.276 OA
ATOM      3  N   UNL     1       1.082  -4.523  -4.140  0.00  0.00    -0.315 N 
ATOM      4  H   UNL     1       1.632  -4.049  -4.783  0.00  0.00    +0.149 HD
ENDROOT
BRANCH   1   5
ATOM      5  C   UNL     1       0.996  -2.445  -2.801  0.00  0.00    +0.096 C 
BRANCH   5   6
ATOM      6  C   UNL     1       0.370  -1.972  -1.487  0.00  0.00    +0.020 C 
BRANCH   6   9
ATOM      7  C   UNL     1      -0.019   1.526   0.010  0.00  0.00    +0.033 C 
ATOM      8  C   UNL     1       0.002  -0.004   0.002  0.00  0.00    +0.116 C 
ATOM      9  C   UNL     1       0.734  -0.505  -1.248  0.00  0.00    +0.058 C 
ATOM     10  C   UNL     1       2.222  -0.386  -1.092  0.00  0.00    +0.025 C 
ATOM     11  N   UNL     1       2.820  -0.511   0.048  0.00  0.00    -0.220 NA
ATOM     12  C   UNL     1       2.064  -0.730   1.165  0.00  0.00    +0.250 A 
ATOM     13  N   UNL     1       0.723  -0.495   1.176  0.00  0.00    -0.224 N 
ATOM     14  N   UNL     1       0.268  -0.811   2.452  0.00  0.00    -0.132 NA
ATOM     15  C   UNL     1       1.318  -1.216   3.138  0.00  0.00    +0.234 A 
ATOM     16  N   UNL     1       2.403  -1.166   2.352  0.00  0.00    -0.177 NA
ATOM     17  N   UNL     1       1.302  -1.631   4.471  0.00  0.00    -0.326 N 
ATOM     18  C   UNL     1       3.056  -0.109  -2.317  0.00  0.00    +0.061 C 
ATOM     19  H   UNL     1       0.469  -1.635   4.968  0.00  0.00    +0.145 HD
ATOM     20  H   UNL     1       2.124  -1.914   4.900  0.00  0.00    +0.145 HD
ENDBRANCH   6   9
ENDBRANCH   5   6
ENDBRANCH   1   5
BRANCH   3  21
ATOM     21  C   UNL     1       0.734  -5.928  -4.369  0.00  0.00    +0.104 C 
BRANCH  21  22
ATOM     22  C   UNL     1       1.360  -6.401  -5.683  0.00  0.00    +0.019 C 
BRANCH  22  23
ATOM     23  C   UNL     1       0.997  -7.868  -5.921  0.00  0.00    +0.002 C 
BRANCH  23  24
ATOM     24  C   UNL     1       1.622  -8.341  -7.235  0.00  0.00    +0.006 C 
BRANCH  24  25
ATOM     25  C   UNL     1       1.259  -9.807  -7.474  0.00  0.00    +0.056 C 
BRANCH  25  26
ATOM     26  C   UNL     1       1.875 -10.273  -8.768  0.00  0.00    +0.055 A 
ATOM     27  C   UNL     1       3.157 -10.758  -8.933  0.00  0.00    +0.113 A 
ATOM     28  C   UNL     1       3.309 -11.076 -10.307  0.00  0.00    +0.156 A 
ATOM     29  N   UNL     1       2.183 -10.795 -10.912  0.00  0.00    -0.158 NA
ATOM     30  N   UNL     1       1.275 -10.298  -9.970  0.00  0.00    -0.279 N 
ATOM     31  H   UNL     1       0.365 -10.018 -10.153  0.00  0.00    +0.189 HD
ATOM     32  N   UNL     1       4.457 -11.597 -10.908  0.00  0.00    -0.341 N 
ATOM     33  H   UNL     1       5.247 -11.773 -10.373  0.00  0.00    +0.144 HD
ATOM     34  H   UNL     1       4.464 -11.783 -11.860  0.00  0.00    +0.144 HD
BRANCH  27  35
ATOM     35  C   UNL     1       4.148 -10.910  -7.910  0.00  0.00    +0.104 C 
ATOM     36  N   UNL     1       4.934 -11.031  -7.099  0.00  0.00    -0.191 NA
ENDBRANCH  27  35
ENDBRANCH  25  26
ENDBRANCH  24  25
ENDBRANCH  23  24
ENDBRANCH  22  23
ENDBRANCH  21  22
ENDBRANCH   3  21
TORSDOF 10
