REMARK  Name = ZINC01783829
REMARK  6 active torsions:
REMARK  status: ('A' for Active; 'I' for Inactive)
REMARK    1  A    between atoms: C_1  and  C_2
REMARK    2  A    between atoms: N_13  and  C_16
REMARK    3  A    between atoms: C_16  and  C_18
REMARK    4  A    between atoms: C_16  and  C_19
REMARK    5  A    between atoms: N_21  and  N_22
REMARK    6  A    between atoms: C_23  and  C_24
REMARK                            x       y       z     vdW  Elec       q    Type
REMARK                         _______ _______ _______ _____ _____    ______ ____
ROOT
ATOM      1  C   UNL     1      -6.180   6.224  -0.106  0.00  0.00    +0.176 C 
ATOM      2  C   UNL     1      -6.298   7.002   1.206  0.00  0.00    +0.041 C 
ENDROOT
BRANCH   1  14
ATOM      3  C   UNL     1     -13.493   3.980  -5.246  0.00  0.00    +0.008 C 
ATOM      4  C   UNL     1     -12.544   4.349  -4.104  0.00  0.00    -0.009 C 
ATOM      5  C   UNL     1     -11.183   4.753  -4.679  0.00  0.00    +0.008 C 
ATOM      6  C   UNL     1     -10.314   5.361  -3.577  0.00  0.00    +0.037 C 
ATOM      7  C   UNL     1     -10.269   4.394  -2.397  0.00  0.00    -0.023 A 
ATOM      8  C   UNL     1     -11.197   3.422  -2.266  0.00  0.00    -0.004 A 
ATOM      9  S   UNL     1     -10.754   2.562  -0.780  0.00  0.00    -0.073 S 
ATOM     10  C   UNL     1      -9.322   3.512  -0.340  0.00  0.00    +0.116 A 
ATOM     11  C   UNL     1      -9.236   4.468  -1.364  0.00  0.00    +0.076 A 
ATOM     12  C   UNL     1      -8.148   5.396  -1.259  0.00  0.00    +0.263 A 
ATOM     13  O   UNL     1      -7.992   6.266  -2.097  0.00  0.00    -0.267 OA
ATOM     14  N   UNL     1      -7.298   5.285  -0.221  0.00  0.00    -0.287 N 
ATOM     15  C   UNL     1      -7.460   4.325   0.726  0.00  0.00    +0.204 A 
ATOM     16  N   UNL     1      -8.445   3.469   0.660  0.00  0.00    -0.230 NA
ATOM     17  C   UNL     1     -12.348   3.138  -3.181  0.00  0.00    +0.046 C 
ENDBRANCH   1  14
BRANCH   1  18
ATOM     18  C   UNL     1      -4.880   5.462  -0.122  0.00  0.00    +0.255 C 
ATOM     19  O   UNL     1      -4.888   4.253  -0.220  0.00  0.00    -0.272 OA
ATOM     20  N   UNL     1      -3.709   6.123  -0.029  0.00  0.00    -0.205 N 
ATOM     21  H   UNL     1      -3.703   7.090   0.049  0.00  0.00    +0.177 HD
BRANCH  20  22
ATOM     22  N   UNL     1      -2.501   5.414  -0.044  0.00  0.00    -0.188 NA
ATOM     23  C   UNL     1      -1.373   6.051   0.046  0.00  0.00    +0.139 C 
BRANCH  23  24
ATOM     24  C   UNL     1      -0.104   5.307   0.031  0.00  0.00    +0.002 A 
ATOM     25  C   UNL     1       1.113   5.978   0.014  0.00  0.00    +0.010 A 
ATOM     26  C   UNL     1       2.308   5.273  -0.001  0.00  0.00    +0.001 A 
ATOM     27  C   UNL     1       2.339   3.912   0.000  0.00  0.00    +0.008 A 
ATOM     28  C   UNL     1       1.147   3.168   0.016  0.00  0.00    -0.017 A 
ATOM     29  C   UNL     1      -0.097   3.845   0.032  0.00  0.00    -0.009 A 
ATOM     30  C   UNL     1      -1.286   3.107   0.048  0.00  0.00    +0.009 A 
ATOM     31  C   UNL     1      -1.234   1.745   0.042  0.00  0.00    +0.001 A 
ATOM     32  C   UNL     1      -0.012   1.076   0.032  0.00  0.00    +0.001 A 
ATOM     33  C   UNL     1       1.163   1.762   0.017  0.00  0.00    +0.008 A 
ENDBRANCH  23  24
ENDBRANCH  20  22
ENDBRANCH   1  18
TORSDOF 4
