REMARK  Name = ZINC04088582
REMARK  5 active torsions:
REMARK  status: ('A' for Active; 'I' for Inactive)
REMARK    1  A    between atoms: C_1  and  C_2
REMARK    2  A    between atoms: C_2  and  N_3
REMARK    3  A    between atoms: C_9  and  N_14
REMARK    4  A    between atoms: C_10  and  C_11
REMARK    5  A    between atoms: C_15  and  C_17
REMARK                            x       y       z     vdW  Elec       q    Type
REMARK                         _______ _______ _______ _____ _____    ______ ____
ROOT
ATOM      1  N   UNL     1       0.690  -0.478  -1.207  0.00  0.00    +0.383 N 
ATOM      2  C   UNL     1       0.601  -1.942  -1.277  0.00  0.00    -0.074 C 
ATOM      3  C   UNL     1       1.029  -2.431  -2.665  0.00  0.00    +0.018 C 
ATOM      4  C   UNL     1       2.386  -1.818  -2.979  0.00  0.00    -0.027 A 
ATOM      5  C   UNL     1       2.832  -0.755  -2.272  0.00  0.00    -0.021 A 
ATOM      6  S   UNL     1       4.416  -0.390  -2.964  0.00  0.00    -0.079 S 
ATOM      7  C   UNL     1       4.496  -1.585  -4.142  0.00  0.00    +0.084 A 
ATOM      8  C   UNL     1       3.299  -2.275  -4.008  0.00  0.00    +0.068 A 
ATOM      9  C   UNL     1       2.106  -0.068  -1.158  0.00  0.00    -0.035 C 
ATOM     10  H   UNL     1       0.251  -0.076  -2.022  0.00  0.00    -0.081 HD
ENDROOT
BRANCH   8  11
ATOM     11  C   UNL     1       2.973  -3.415  -4.869  0.00  0.00    +0.244 C 
ATOM     12  O   UNL     1       2.384  -3.236  -5.919  0.00  0.00    -0.270 OA
ATOM     13  N   UNL     1       3.325  -4.662  -4.499  0.00  0.00    -0.325 N 
ATOM     14  H   UNL     1       3.794  -4.805  -3.662  0.00  0.00    +0.145 HD
ATOM     15  H   UNL     1       3.109  -5.417  -5.069  0.00  0.00    +0.145 HD
ENDBRANCH   8  11
BRANCH   7  16
ATOM     16  N   UNL     1       5.522  -1.827  -5.042  0.00  0.00    -0.276 N 
ATOM     17  C   UNL     1       6.624  -1.052  -5.032  0.00  0.00    +0.262 C 
ATOM     18  O   UNL     1       6.718  -0.142  -4.236  0.00  0.00    -0.271 OA
ATOM     19  H   UNL     1       5.447  -2.555  -5.679  0.00  0.00    +0.155 HD
BRANCH  17  20
ATOM     20  C   UNL     1       7.740  -1.315  -6.011  0.00  0.00    +0.296 C 
ATOM     21  C   UNL     1       8.380  -2.677  -5.712  0.00  0.00    +0.283 C 
ATOM     22  O   UNL     1       9.442  -2.888  -6.648  0.00  0.00    -0.484 OA
ATOM     23  C   UNL     1      10.296  -1.847  -6.850  0.00  0.00    +0.162 A 
ATOM     24  C   UNL     1      11.527  -2.082  -7.443  0.00  0.00    +0.049 A 
ATOM     25  C   UNL     1      12.403  -1.035  -7.657  0.00  0.00    +0.004 A 
ATOM     26  C   UNL     1      12.055   0.249  -7.281  0.00  0.00    +0.004 A 
ATOM     27  C   UNL     1      10.830   0.490  -6.688  0.00  0.00    +0.049 A 
ATOM     28  C   UNL     1       9.947  -0.557  -6.469  0.00  0.00    +0.163 A 
ATOM     29  O   UNL     1       8.747  -0.305  -5.877  0.00  0.00    -0.473 OA
ENDBRANCH  17  20
ENDBRANCH   7  16
BRANCH   1  31
ATOM     30  C   UNL     1      -0.019   1.526   0.010  0.00  0.00    -0.017 C 
ATOM     31  C   UNL     1       0.002  -0.004   0.002  0.00  0.00    -0.082 C 
ENDBRANCH   1  31
TORSDOF 4
