REMARK  Name = ZINC59008694
REMARK  7 active torsions:
REMARK  status: ('A' for Active; 'I' for Inactive)
REMARK    1  A    between atoms: C_1  and  C_2
REMARK    2  A    between atoms: C_2  and  C_25
REMARK    3  A    between atoms: N_5  and  C_9
REMARK    4  A    between atoms: C_9  and  C_10
REMARK    5  A    between atoms: C_10  and  C_12
REMARK    6  A    between atoms: C_13  and  N_24
REMARK    7  A    between atoms: N_14  and  C_21
REMARK                            x       y       z     vdW  Elec       q    Type
REMARK                         _______ _______ _______ _____ _____    ______ ____
ROOT
ATOM      1  C   UNL     1      -1.575   1.528  -1.991  0.00  0.00    +0.047 C 
ATOM      2  C   UNL     1      -1.213   0.105  -1.563  0.00  0.00    +0.135 C 
ATOM      3  C   UNL     1      -2.461  -0.683  -1.219  0.00  0.00    +0.251 C 
ATOM      4  O   UNL     1      -3.384  -0.953  -1.958  0.00  0.00    -0.272 OA
ATOM      5  N   UNL     1      -2.333  -1.021   0.080  0.00  0.00    -0.216 N 
ATOM      6  C   UNL     1      -1.188  -0.561   0.598  0.00  0.00    +0.310 C 
ATOM      7  O   UNL     1      -0.849  -0.739   1.751  0.00  0.00    -0.252 OA
ATOM      8  N   UNL     1      -0.454   0.121  -0.300  0.00  0.00    -0.281 N 
ATOM      9  H   UNL     1       0.406   0.541  -0.147  0.00  0.00    +0.152 HD
ENDROOT
BRANCH   2  10
ATOM     10  C   UNL     1      -0.426  -0.588  -2.645  0.00  0.00    -0.015 A 
ATOM     11  C   UNL     1      -1.100  -1.321  -3.621  0.00  0.00    +0.007 A 
ATOM     12  C   UNL     1      -0.420  -1.960  -4.612  0.00  0.00    +0.009 A 
ATOM     13  C   UNL     1       0.983  -1.881  -4.655  0.00  0.00    -0.018 A 
ATOM     14  C   UNL     1       1.720  -2.526  -5.663  0.00  0.00    +0.008 A 
ATOM     15  C   UNL     1       3.077  -2.427  -5.674  0.00  0.00    +0.001 A 
ATOM     16  C   UNL     1       3.750  -1.693  -4.698  0.00  0.00    +0.001 A 
ATOM     17  C   UNL     1       3.070  -1.055  -3.707  0.00  0.00    +0.008 A 
ATOM     18  C   UNL     1       1.667  -1.135  -3.664  0.00  0.00    -0.018 A 
ATOM     19  C   UNL     1       0.931  -0.485  -2.659  0.00  0.00    +0.014 A 
ENDBRANCH   2  10
BRANCH   5  20
ATOM     20  C   UNL     1      -3.324  -1.795   0.831  0.00  0.00    +0.197 C 
BRANCH  20  21
ATOM     21  C   UNL     1      -3.009  -3.264   0.710  0.00  0.00    +0.189 C 
ATOM     22  O   UNL     1      -2.051  -3.629   0.060  0.00  0.00    -0.290 OA
BRANCH  21  23
ATOM     23  C   UNL     1      -3.829  -4.216   1.353  0.00  0.00    +0.121 A 
ATOM     24  C   UNL     1      -3.640  -5.594   1.147  0.00  0.00    +0.116 A 
ATOM     25  N   UNL     1      -4.458  -6.476   1.792  0.00  0.00    -0.278 N 
ATOM     26  C   UNL     1      -5.433  -6.053   2.612  0.00  0.00    +0.331 A 
ATOM     27  O   UNL     1      -6.135  -6.879   3.162  0.00  0.00    -0.246 OA
ATOM     28  N   UNL     1      -5.661  -4.751   2.847  0.00  0.00    -0.274 N 
ATOM     29  H   UNL     1      -6.378  -4.491   3.447  0.00  0.00    +0.173 HD
ATOM     30  C   UNL     1      -4.904  -3.799   2.263  0.00  0.00    +0.266 A 
ATOM     31  O   UNL     1      -5.110  -2.620   2.482  0.00  0.00    -0.267 OA
BRANCH  25  32
ATOM     32  C   UNL     1      -4.269  -7.914   1.584  0.00  0.00    +0.094 C 
ATOM     33  C   UNL     1      -4.236  -8.809   2.825  0.00  0.00    +0.027 C 
ATOM     34  C   UNL     1      -2.947  -8.527   2.051  0.00  0.00    +0.027 C 
ENDBRANCH  25  32
BRANCH  24  35
ATOM     35  N   UNL     1      -2.657  -6.040   0.319  0.00  0.00    -0.344 N 
ATOM     36  H   UNL     1      -1.859  -5.506   0.182  0.00  0.00    +0.144 HD
ATOM     37  H   UNL     1      -2.755  -6.892  -0.134  0.00  0.00    +0.144 HD
ENDBRANCH  24  35
ENDBRANCH  21  23
ENDBRANCH  20  21
ENDBRANCH   5  20
TORSDOF 6
