REMARK  Name = ZINC21056141
REMARK  4 active torsions:
REMARK  status: ('A' for Active; 'I' for Inactive)
REMARK    1  A    between atoms: C_1  and  C_2
REMARK    2  A    between atoms: N_8  and  S_9
REMARK    3  A    between atoms: S_9  and  C_12
REMARK    4  A    between atoms: N_18  and  N_19
REMARK                            x       y       z     vdW  Elec       q    Type
REMARK                         _______ _______ _______ _____ _____    ______ ____
ROOT
ATOM      1  S   UNL     1      -1.688   5.930   0.050  0.00  0.00    +0.102 S 
ATOM      2  O   UNL     1      -1.437   7.328   0.082  0.00  0.00    -0.146 OA
ATOM      3  O   UNL     1      -2.464   5.318  -0.971  0.00  0.00    -0.146 OA
ENDROOT
BRANCH   1  11
ATOM      4  C   UNL     1       2.376   3.997   0.001  0.00  0.00    +0.047 C 
ATOM      5  C   UNL     1       1.113   3.175   0.009  0.00  0.00    -0.007 A 
ATOM      6  C   UNL     1       1.176   1.793   0.001  0.00  0.00    +0.008 A 
ATOM      7  C   UNL     1      -0.013   1.076   0.008  0.00  0.00    +0.018 A 
ATOM      8  C   UNL     1      -1.214   1.757   0.017  0.00  0.00    +0.084 A 
ATOM      9  N   UNL     1      -1.243   3.076   0.030  0.00  0.00    -0.345 N 
ATOM     10  C   UNL     1      -0.132   3.796   0.024  0.00  0.00    +0.155 A 
ATOM     11  N   UNL     1      -0.210   5.184   0.032  0.00  0.00    -0.111 NA
ATOM     12  H   UNL     1      -2.208   3.604   0.048  0.00  0.00    +0.167 HD
ENDBRANCH   1  11
BRANCH   1  13
ATOM     13  C   UNL     1      -2.459   5.522   1.581  0.00  0.00    +0.131 A 
ATOM     14  C   UNL     1      -2.271   6.327   2.697  0.00  0.00    +0.034 A 
ATOM     15  C   UNL     1      -2.894   5.971   3.879  0.00  0.00    +0.046 A 
ATOM     16  C   UNL     1      -3.683   4.825   3.911  0.00  0.00    +0.132 A 
ATOM     17  N   UNL     1      -3.837   4.084   2.825  0.00  0.00    -0.237 NA
ATOM     18  C   UNL     1      -3.260   4.402   1.681  0.00  0.00    +0.142 A 
ATOM     19  N   UNL     1      -4.315   4.456   5.092  0.00  0.00    -0.268 N 
ATOM     20  H   UNL     1      -4.190   5.069   5.997  0.00  0.00    +0.167 HD
BRANCH  19  21
ATOM     21  N   UNL     1      -5.091   3.332   5.130  0.00  0.00    -0.255 NA
ATOM     22  H   UNL     1      -5.503   3.205   6.141  0.00  0.00    +0.140 HD
ATOM     23  H   UNL     1      -5.915   3.432   4.408  0.00  0.00    +0.140 HD
ENDBRANCH  19  21
ENDBRANCH   1  13
TORSDOF 3
