REMARK  Name = ZINC02399881
REMARK  6 active torsions:
REMARK  status: ('A' for Active; 'I' for Inactive)
REMARK    1  A    between atoms: N_14  and  C_28
REMARK    2  A    between atoms: C_15  and  C_17
REMARK    3  A    between atoms: C_20  and  O_23
REMARK    4  A    between atoms: O_23  and  C_24
REMARK    5  A    between atoms: C_24  and  C_25
REMARK    6  A    between atoms: C_28  and  C_29
REMARK                            x       y       z     vdW  Elec       q    Type
REMARK                         _______ _______ _______ _____ _____    ______ ____
ROOT
ATOM      1  C   UNL     1      -3.161  -8.088  -2.677  0.00  0.00    +0.001 A 
ATOM      2  C   UNL     1      -1.968  -8.316  -3.349  0.00  0.00    +0.004 A 
ATOM      3  C   UNL     1      -0.867  -7.521  -3.122  0.00  0.00    +0.047 A 
ATOM      4  C   UNL     1      -0.944  -6.473  -2.208  0.00  0.00    +0.139 A 
ATOM      5  C   UNL     1      -2.156  -6.250  -1.532  0.00  0.00    +0.064 A 
ATOM      6  C   UNL     1      -3.260  -7.065  -1.775  0.00  0.00    +0.015 A 
ATOM      7  C   UNL     1      -2.218  -5.135  -0.567  0.00  0.00    +0.199 A 
ATOM      8  O   UNL     1      -3.235  -4.884   0.055  0.00  0.00    -0.287 OA
ATOM      9  C   UNL     1      -0.995  -4.346  -0.394  0.00  0.00    +0.072 A 
ATOM     10  C   UNL     1       0.116  -4.658  -1.105  0.00  0.00    +0.199 A 
ATOM     11  O   UNL     1       0.122  -5.687  -1.975  0.00  0.00    -0.450 OA
ATOM     12  C   UNL     1       1.191  -3.704  -0.734  0.00  0.00    +0.283 C 
ATOM     13  O   UNL     1       2.316  -3.712  -1.194  0.00  0.00    -0.267 OA
ATOM     14  N   UNL     1       0.742  -2.831   0.183  0.00  0.00    -0.281 N 
ATOM     15  C   UNL     1      -0.658  -3.163   0.476  0.00  0.00    +0.145 C 
ENDROOT
BRANCH  15  16
ATOM     16  C   UNL     1      -0.813  -3.524   1.931  0.00  0.00    -0.022 A 
ATOM     17  C   UNL     1       0.151  -4.293   2.557  0.00  0.00    +0.009 A 
ATOM     18  C   UNL     1       0.015  -4.620   3.892  0.00  0.00    +0.046 A 
ATOM     19  C   UNL     1      -1.096  -4.188   4.602  0.00  0.00    +0.121 A 
ATOM     20  C   UNL     1      -2.065  -3.422   3.969  0.00  0.00    +0.046 A 
ATOM     21  C   UNL     1      -1.921  -3.092   2.636  0.00  0.00    +0.009 A 
BRANCH  19  22
ATOM     22  O   UNL     1      -1.235  -4.513   5.914  0.00  0.00    -0.483 OA
BRANCH  22  23
ATOM     23  C   UNL     1      -0.199  -5.304   6.499  0.00  0.00    +0.324 C 
BRANCH  23  24
ATOM     24  C   UNL     1      -0.523  -5.564   7.948  0.00  0.00    +0.248 C 
ATOM     25  O   UNL     1      -1.541  -5.115   8.431  0.00  0.00    -0.272 OA
ATOM     26  N   UNL     1       0.318  -6.294   8.706  0.00  0.00    -0.327 N 
ATOM     27  H   UNL     1       1.132  -6.653   8.320  0.00  0.00    +0.145 HD
ATOM     28  H   UNL     1       0.110  -6.461   9.639  0.00  0.00    +0.145 HD
ENDBRANCH  23  24
ENDBRANCH  22  23
ENDBRANCH  19  22
ENDBRANCH  15  16
BRANCH  14  29
ATOM     29  C   UNL     1       1.514  -1.743   0.789  0.00  0.00    +0.140 C 
BRANCH  29  30
ATOM     30  C   UNL     1       1.358  -0.476  -0.054  0.00  0.00    +0.136 C 
ATOM     31  C   UNL     1       2.211   0.674   0.537  0.00  0.00    +0.035 C 
ATOM     32  C   UNL     1       1.448   1.915  -0.002  0.00  0.00    +0.031 C 
ATOM     33  C   UNL     1      -0.017   1.428   0.010  0.00  0.00    +0.160 C 
ATOM     34  O   UNL     1       0.002  -0.004   0.002  0.00  0.00    -0.375 OA
ENDBRANCH  29  30
ENDBRANCH  14  29
TORSDOF 6
