REMARK  Name = ZINC12660062
REMARK  6 active torsions:
REMARK  status: ('A' for Active; 'I' for Inactive)
REMARK    1  A    between atoms: C_1  and  C_2
REMARK    2  A    between atoms: N_6  and  N_7
REMARK    3  A    between atoms: C_8  and  C_10
REMARK    4  A    between atoms: C_26  and  C_42
REMARK    5  A    between atoms: N_32  and  N_33
REMARK    6  A    between atoms: C_34  and  C_36
REMARK                            x       y       z     vdW  Elec       q    Type
REMARK                         _______ _______ _______ _____ _____    ______ ____
ROOT
ATOM      1  C   UNL     1       0.128   1.460   2.455  0.00  0.00    +0.016 C 
ATOM      2  C   UNL     1      -0.701   2.009   1.291  0.00  0.00    -0.007 C 
ATOM      3  C   UNL     1      -0.660   3.511   1.423  0.00  0.00    +0.017 C 
ATOM      4  C   UNL     1      -1.928   4.178   0.893  0.00  0.00    +0.058 C 
ATOM      5  C   UNL     1      -3.110   3.547   1.605  0.00  0.00    +0.059 C 
ATOM      6  N   UNL     1      -4.009   4.262   2.214  0.00  0.00    -0.185 NA
ATOM      7  C   UNL     1      -3.178   2.075   1.564  0.00  0.00    +0.024 C 
ATOM      8  C   UNL     1      -2.056   1.384   1.403  0.00  0.00    -0.062 C 
ATOM      9  C   UNL     1      -2.132  -0.131   1.317  0.00  0.00    +0.031 C 
ATOM     10  C   UNL     1      -1.424  -0.556   0.026  0.00  0.00    +0.008 C 
ATOM     11  C   UNL     1       0.002  -0.004   0.002  0.00  0.00    -0.003 C 
ATOM     12  C   UNL     1      -0.019   1.525   0.010  0.00  0.00    +0.002 C 
ATOM     13  C   UNL     1       1.429   2.030  -0.001  0.00  0.00    +0.005 C 
ATOM     14  C   UNL     1       2.059   1.596  -1.340  0.00  0.00    +0.013 C 
ATOM     15  C   UNL     1       2.130   0.068  -1.411  0.00  0.00    +0.011 C 
ATOM     16  C   UNL     1       0.736  -0.548  -1.200  0.00  0.00    +0.004 C 
ATOM     17  C   UNL     1       0.024  -0.220  -2.527  0.00  0.00    +0.010 C 
ATOM     18  C   UNL     1       1.136  -0.431  -3.580  0.00  0.00    +0.053 C 
ATOM     19  C   UNL     1       2.460  -0.293  -2.854  0.00  0.00    +0.043 C 
ATOM     20  N   UNL     1       3.626  -0.439  -3.361  0.00  0.00    -0.188 NA
ATOM     21  C   UNL     1       3.161  -0.510  -0.440  0.00  0.00    +0.018 C 
ENDROOT
BRANCH   6  22
ATOM     22  N   UNL     1      -5.084   3.635   2.858  0.00  0.00    -0.203 N 
ATOM     23  C   UNL     1      -6.016   4.375   3.489  0.00  0.00    +0.263 C 
ATOM     24  O   UNL     1      -5.925   5.588   3.500  0.00  0.00    -0.268 OA
ATOM     25  H   UNL     1      -5.157   2.667   2.850  0.00  0.00    +0.178 HD
BRANCH  23  26
ATOM     26  C   UNL     1      -7.152   3.713   4.170  0.00  0.00    +0.041 A 
ATOM     27  C   UNL     1      -7.280   2.320   4.165  0.00  0.00    +0.033 A 
ATOM     28  C   UNL     1      -8.352   1.744   4.817  0.00  0.00    +0.111 A 
ATOM     29  N   UNL     1      -9.253   2.488   5.428  0.00  0.00    -0.263 NA
ATOM     30  C   UNL     1      -9.173   3.803   5.452  0.00  0.00    +0.111 A 
ATOM     31  C   UNL     1      -8.130   4.463   4.831  0.00  0.00    +0.033 A 
ENDBRANCH  23  26
ENDBRANCH   6  22
BRANCH  20  32
ATOM     32  N   UNL     1       3.764  -0.760  -4.718  0.00  0.00    -0.203 N 
ATOM     33  C   UNL     1       4.992  -0.914  -5.252  0.00  0.00    +0.263 C 
ATOM     34  O   UNL     1       5.979  -0.775  -4.556  0.00  0.00    -0.268 OA
ATOM     35  H   UNL     1       2.977  -0.872  -5.272  0.00  0.00    +0.178 HD
BRANCH  33  36
ATOM     36  C   UNL     1       5.139  -1.254  -6.686  0.00  0.00    +0.041 A 
ATOM     37  C   UNL     1       4.016  -1.425  -7.502  0.00  0.00    +0.033 A 
ATOM     38  C   UNL     1       4.199  -1.736  -8.835  0.00  0.00    +0.111 A 
ATOM     39  N   UNL     1       5.410  -1.882  -9.337  0.00  0.00    -0.263 NA
ATOM     40  C   UNL     1       6.494  -1.735  -8.601  0.00  0.00    +0.111 A 
ATOM     41  C   UNL     1       6.403  -1.418  -7.260  0.00  0.00    +0.033 A 
ENDBRANCH  33  36
ENDBRANCH  20  32
TORSDOF 4
