REMARK  Name = ZINC66242119
REMARK  9 active torsions:
REMARK  status: ('A' for Active; 'I' for Inactive)
REMARK    1  A    between atoms: C_1  and  O_2
REMARK    2  A    between atoms: O_2  and  C_3
REMARK    3  A    between atoms: C_5  and  C_17
REMARK    4  A    between atoms: C_8  and  O_9
REMARK    5  A    between atoms: O_9  and  C_10
REMARK    6  A    between atoms: C_10  and  C_11
REMARK    7  A    between atoms: C_17  and  N_18
REMARK    8  A    between atoms: N_20  and  C_21
REMARK    9  A    between atoms: C_21  and  C_22
REMARK                            x       y       z     vdW  Elec       q    Type
REMARK                         _______ _______ _______ _____ _____    ______ ____
ROOT
ATOM      1  C   UNL     1       0.606  -0.608  -1.056  0.00  0.00    +0.162 A 
ATOM      2  C   UNL     1       1.173   0.159  -2.062  0.00  0.00    +0.054 A 
ATOM      3  C   UNL     1       1.787  -0.456  -3.137  0.00  0.00    -0.025 A 
ATOM      4  C   UNL     1       1.837  -1.836  -3.212  0.00  0.00    +0.009 A 
ATOM      5  C   UNL     1       1.273  -2.606  -2.212  0.00  0.00    +0.050 A 
ATOM      6  C   UNL     1       0.662  -1.996  -1.129  0.00  0.00    +0.162 A 
ENDROOT
BRANCH   1   8
ATOM      7  C   UNL     1      -0.017   1.425   0.010  0.00  0.00    +0.277 C 
ATOM      8  O   UNL     1       0.002  -0.004   0.002  0.00  0.00    -0.491 OA
ENDBRANCH   1   8
BRANCH   6   9
ATOM      9  O   UNL     1       0.112  -2.753  -0.142  0.00  0.00    -0.484 OA
BRANCH   9  10
ATOM     10  C   UNL     1       0.206  -4.171  -0.283  0.00  0.00    +0.264 C 
BRANCH  10  11
ATOM     11  C   UNL     1      -0.453  -4.838   0.897  0.00  0.00    -0.010 A 
ATOM     12  C   UNL     1       0.286  -5.128   2.029  0.00  0.00    +0.007 A 
ATOM     13  C   UNL     1      -0.319  -5.740   3.111  0.00  0.00    +0.000 A 
ATOM     14  C   UNL     1      -1.663  -6.062   3.061  0.00  0.00    +0.000 A 
ATOM     15  C   UNL     1      -2.401  -5.771   1.929  0.00  0.00    +0.000 A 
ATOM     16  C   UNL     1      -1.798  -5.155   0.849  0.00  0.00    +0.007 A 
ENDBRANCH  10  11
ENDBRANCH   9  10
ENDBRANCH   6   9
BRANCH   3  17
ATOM     17  C   UNL     1       2.403   0.379  -4.230  0.00  0.00    +0.151 C 
BRANCH  17  18
ATOM     18  N   UNL     1       3.803   0.657  -3.902  0.00  0.00    -0.354 N 
ATOM     19  C   UNL     1       4.574   1.407  -4.758  0.00  0.00    +0.169 C 
ATOM     20  N   UNL     1       5.820   1.654  -4.466  0.00  0.00    -0.355 N 
ATOM     21  N   UNL     1       4.030   1.897  -5.922  0.00  0.00    -0.371 N 
ATOM     22  H   UNL     1       4.187   0.311  -3.081  0.00  0.00    +0.163 HD
ATOM     23  H   UNL     1       3.103   1.713  -6.139  0.00  0.00    +0.159 HD
ATOM     24  H   UNL     1       4.574   2.426  -6.526  0.00  0.00    +0.159 HD
ATOM     25  H   UNL     1       6.204   1.309  -3.645  0.00  0.00    +0.162 HD
BRANCH  20  26
ATOM     26  C   UNL     1       6.641   2.454  -5.379  0.00  0.00    +0.147 C 
BRANCH  26  27
ATOM     27  C   UNL     1       8.053   2.594  -4.805  0.00  0.00    +0.137 C 
ATOM     28  C   UNL     1       8.929   3.466  -5.738  0.00  0.00    +0.035 C 
ATOM     29  C   UNL     1       9.989   3.998  -4.735  0.00  0.00    +0.031 C 
ATOM     30  C   UNL     1       9.166   4.147  -3.438  0.00  0.00    +0.160 C 
ATOM     31  O   UNL     1       8.015   3.300  -3.554  0.00  0.00    -0.375 OA
ENDBRANCH  26  27
ENDBRANCH  20  26
ENDBRANCH  17  18
ENDBRANCH   3  17
TORSDOF 8
