REMARK  Name = ZINC43287143
REMARK  7 active torsions:
REMARK  status: ('A' for Active; 'I' for Inactive)
REMARK    1  A    between atoms: C_1  and  C_2
REMARK    2  A    between atoms: C_2  and  C_3
REMARK    3  A    between atoms: C_3  and  C_5
REMARK    4  A    between atoms: C_3  and  N_23
REMARK    5  A    between atoms: C_5  and  C_7
REMARK    6  A    between atoms: C_5  and  N_13
REMARK    7  A    between atoms: C_18  and  C_20
REMARK                            x       y       z     vdW  Elec       q    Type
REMARK                         _______ _______ _______ _____ _____    ______ ____
ROOT
ATOM      1  C   UNL     1       1.002  -1.937   3.157  0.00  0.00    -0.045 C 
ENDROOT
BRANCH   1   2
ATOM      2  N   UNL     1       0.228  -2.767   2.224  0.00  0.00    +0.391 N 
ATOM      3  C   UNL     1       0.521  -4.183   2.472  0.00  0.00    -0.077 C 
ATOM      4  C   UNL     1      -0.221  -5.048   1.450  0.00  0.00    -0.019 C 
ATOM      5  C   UNL     1      -1.727  -4.806   1.583  0.00  0.00    -0.003 C 
ATOM      6  C   UNL     1      -2.013  -3.313   1.397  0.00  0.00    -0.006 C 
ATOM      7  C   UNL     1      -1.205  -2.513   2.420  0.00  0.00    +0.020 C 
ATOM      8  H   UNL     1       0.483  -2.533   1.276  0.00  0.00    -0.080 HD
BRANCH   7   9
ATOM      9  C   UNL     1      -1.483  -1.043   2.241  0.00  0.00    +0.197 C 
ATOM     10  O   UNL     1      -1.140  -0.480   1.223  0.00  0.00    -0.278 OA
ATOM     11  N   UNL     1      -2.115  -0.353   3.211  0.00  0.00    -0.331 N 
ATOM     12  H   UNL     1      -2.389  -0.803   4.026  0.00  0.00    +0.145 HD
ATOM     13  H   UNL     1      -2.294   0.593   3.096  0.00  0.00    +0.145 HD
ENDBRANCH   7   9
ENDBRANCH   1   2
BRANCH   1  14
ATOM     14  C   UNL     1       0.476  -2.129   4.556  0.00  0.00    -0.024 A 
ATOM     15  C   UNL     1       1.135  -2.545   5.665  0.00  0.00    +0.024 A 
ATOM     16  C   UNL     1       0.441  -2.648   6.857  0.00  0.00    +0.025 A 
ATOM     17  C   UNL     1      -0.877  -2.331   6.880  0.00  0.00    +0.060 A 
ATOM     18  S   UNL     1      -1.173  -1.861   5.183  0.00  0.00    -0.102 S 
ATOM     19 BR   UNL     1       1.317  -3.224   8.431  0.00  0.00    -0.050 Br
ENDBRANCH   1  14
BRANCH   1  20
ATOM     20  C   UNL     1       0.871  -0.465   2.760  0.00  0.00    -0.085 C 
BRANCH  20  21
ATOM     21  N   UNL     1       1.790   0.344   3.572  0.00  0.00    +0.379 N 
ATOM     22  H   UNL     1       1.703   1.315   3.310  0.00  0.00    -0.090 HD
ATOM     23  H   UNL     1       1.559   0.237   4.548  0.00  0.00    -0.090 HD
ATOM     24  H   UNL     1       2.737   0.037   3.414  0.00  0.00    -0.090 HD
ENDBRANCH  20  21
BRANCH  20  26
ATOM     25  C   UNL     1       1.000   1.152   0.860  0.00  0.00    +0.002 C 
ATOM     26  C   UNL     1       1.221  -0.303   1.279  0.00  0.00    -0.021 C 
ENDBRANCH  20  26
ENDBRANCH   1  20
TORSDOF 6
