REMARK  Name = ZINC20465893
REMARK  11 active torsions:
REMARK  status: ('A' for Active; 'I' for Inactive)
REMARK    1  A    between atoms: C_1  and  N_2
REMARK    2  A    between atoms: N_2  and  C_3
REMARK    3  A    between atoms: N_2  and  C_11
REMARK    4  A    between atoms: C_3  and  C_4
REMARK    5  A    between atoms: C_4  and  C_5
REMARK    6  A    between atoms: C_13  and  C_23
REMARK    7  A    between atoms: C_16  and  C_21
REMARK    8  A    between atoms: C_18  and  O_20
REMARK    9  A    between atoms: C_21  and  O_22
REMARK   10  A    between atoms: C_23  and  N_24
REMARK   11  A    between atoms: N_27  and  C_28
REMARK                            x       y       z     vdW  Elec       q    Type
REMARK                         _______ _______ _______ _____ _____    ______ ____
ROOT
ATOM      1  C   UNL     1      -6.920  -0.311   0.265  0.00  0.00    -0.006 C 
ATOM      2  C   UNL     1      -5.429  -0.668   0.450  0.00  0.00    +0.125 C 
ATOM      3  O   UNL     1      -5.368  -1.357   1.718  0.00  0.00    -0.369 OA
ATOM      4  C   UNL     1      -6.535  -2.208   1.744  0.00  0.00    +0.171 C 
ATOM      5  C   UNL     1      -7.665  -1.348   1.136  0.00  0.00    +0.134 C 
ENDROOT
BRANCH   1   7
ATOM      6  C   UNL     1      -8.571   1.449   0.455  0.00  0.00    -0.096 C 
ATOM      7  N   UNL     1      -7.187   1.051   0.744  0.00  0.00    +0.383 N 
ATOM      8  H   UNL     1      -6.518   1.737   0.204  0.00  0.00    -0.082 HD
BRANCH   7   9
ATOM      9  C   UNL     1      -6.894   1.171   2.179  0.00  0.00    -0.072 C 
BRANCH   9  10
ATOM     10  C   UNL     1      -6.671   2.643   2.533  0.00  0.00    +0.037 C 
BRANCH  10  11
ATOM     11  C   UNL     1      -6.370   2.766   4.004  0.00  0.00    +0.040 A 
ATOM     12  C   UNL     1      -5.215   3.404   4.414  0.00  0.00    +0.023 A 
ATOM     13  C   UNL     1      -4.948   3.513   5.770  0.00  0.00    +0.003 A 
ATOM     14  C   UNL     1      -5.857   2.972   6.667  0.00  0.00    +0.020 A 
ATOM     15  C   UNL     1      -6.991   2.348   6.183  0.00  0.00    +0.111 A 
ATOM     16  N   UNL     1      -7.215   2.268   4.886  0.00  0.00    -0.260 NA
ENDBRANCH  10  11
ENDBRANCH   9  10
ENDBRANCH   7   9
ENDBRANCH   1   7
BRANCH   5  17
ATOM     17  O   UNL     1      -8.407  -0.694   2.167  0.00  0.00    -0.391 OA
ATOM     18  H   UNL     1      -8.998  -1.288   2.881  0.00  0.00    +0.210 HD
ENDBRANCH   5  17
BRANCH   4  19
ATOM     19  C   UNL     1      -6.878  -2.597   3.184  0.00  0.00    +0.190 C 
BRANCH  19  20
ATOM     20  O   UNL     1      -5.878  -3.486   3.688  0.00  0.00    -0.392 OA
ATOM     21  H   UNL     1      -5.956  -3.875   4.713  0.00  0.00    +0.210 HD
ENDBRANCH  19  20
ENDBRANCH   4  19
BRANCH   2  22
ATOM     22  C   UNL     1      -4.579   0.604   0.493  0.00  0.00    +0.135 C 
BRANCH  22  23
ATOM     23  N   UNL     1      -3.159   0.241   0.520  0.00  0.00    -0.297 N 
ATOM     24  C   UNL     1      -2.219   1.206   0.560  0.00  0.00    +0.304 C 
ATOM     25  O   UNL     1      -2.548   2.376   0.574  0.00  0.00    -0.253 OA
ATOM     26  N   UNL     1      -0.913   0.873   0.585  0.00  0.00    -0.267 N 
ATOM     27  H   UNL     1      -2.862  -0.817   0.507  0.00  0.00    +0.150 HD
ATOM     28  H   UNL     1      -0.612  -0.180   0.476  0.00  0.00    +0.156 HD
BRANCH  26  29
ATOM     29  C   UNL     1       0.061   1.867   0.749  0.00  0.00    +0.070 A 
ATOM     30  C   UNL     1      -0.276   3.081   1.330  0.00  0.00    +0.029 A 
ATOM     31  C   UNL     1       0.685   4.060   1.491  0.00  0.00    +0.040 A 
ATOM     32  C   UNL     1       1.986   3.832   1.075  0.00  0.00    +0.126 A 
ATOM     33  C   UNL     1       2.326   2.622   0.494  0.00  0.00    +0.078 A 
ATOM     34  C   UNL     1       1.367   1.639   0.330  0.00  0.00    +0.147 A 
ATOM     35  F   UNL     1       1.699   0.457  -0.235  0.00  0.00    -0.203 F 
ATOM     36  F   UNL     1       2.923   4.791   1.234  0.00  0.00    -0.205 F 
ENDBRANCH  26  29
ENDBRANCH  22  23
ENDBRANCH   2  22
TORSDOF 10
