REMARK  Name = ZINC39315484
REMARK  7 active torsions:
REMARK  status: ('A' for Active; 'I' for Inactive)
REMARK    1  A    between atoms: C_1  and  O_2
REMARK    2  A    between atoms: O_2  and  C_3
REMARK    3  A    between atoms: C_5  and  C_11
REMARK    4  A    between atoms: C_7  and  O_9
REMARK    5  A    between atoms: O_9  and  C_10
REMARK    6  A    between atoms: C_26  and  N_30
REMARK    7  A    between atoms: C_27  and  C_28
REMARK                            x       y       z     vdW  Elec       q    Type
REMARK                         _______ _______ _______ _____ _____    ______ ____
ROOT
ATOM      1  C   UNL     1      -2.533  -4.175   0.015  0.00  0.00    +0.084 C 
ATOM      2  C   UNL     1      -3.263  -4.659   1.272  0.00  0.00    +0.154 C 
ATOM      3  C   UNL     1      -4.737  -4.404   1.006  0.00  0.00    +0.129 C 
ATOM      4  C   UNL     1      -5.422  -3.570   1.876  0.00  0.00    +0.035 A 
ATOM      5  C   UNL     1      -6.796  -3.301   1.704  0.00  0.00    +0.013 A 
ATOM      6  C   UNL     1      -7.435  -2.481   2.583  0.00  0.00    +0.001 A 
ATOM      7  C   UNL     1      -6.761  -1.899   3.651  0.00  0.00    +0.002 A 
ATOM      8  C   UNL     1      -5.433  -2.117   3.867  0.00  0.00    +0.024 A 
ATOM      9  C   UNL     1      -4.708  -2.951   3.000  0.00  0.00    +0.044 A 
ATOM     10  N   UNL     1      -3.402  -3.159   3.208  0.00  0.00    -0.284 N 
ATOM     11  C   UNL     1      -2.638  -3.951   2.454  0.00  0.00    +0.229 C 
ATOM     12  O   UNL     1      -1.455  -4.101   2.699  0.00  0.00    -0.275 OA
ATOM     13  O   UNL     1      -5.302  -4.981  -0.057  0.00  0.00    -0.444 OA
ATOM     14  C   UNL     1      -4.567  -5.006  -1.195  0.00  0.00    +0.198 C 
ATOM     15  C   UNL     1      -3.267  -4.646  -1.210  0.00  0.00    +0.095 C 
ATOM     16  H   UNL     1      -2.983  -2.712   3.959  0.00  0.00    +0.155 HD
ENDROOT
BRANCH   1  19
ATOM     17  C   UNL     1      -1.200  -0.637   0.010  0.00  0.00    +0.124 A 
ATOM     18  C   UNL     1      -1.255  -2.024   0.009  0.00  0.00    +0.050 A 
ATOM     19  C   UNL     1      -2.477  -2.669   0.017  0.00  0.00    -0.031 A 
ATOM     20  C   UNL     1      -3.647  -1.935   0.025  0.00  0.00    +0.050 A 
ATOM     21  C   UNL     1      -3.598  -0.548   0.027  0.00  0.00    +0.124 A 
ATOM     22  C   UNL     1      -2.373   0.101   0.025  0.00  0.00    +0.091 A 
BRANCH  17  24
ATOM     23  C   UNL     1      -0.017   1.425   0.010  0.00  0.00    +0.277 C 
ATOM     24  O   UNL     1       0.002  -0.004   0.002  0.00  0.00    -0.495 OA
ENDBRANCH  17  24
BRANCH  21  25
ATOM     25  O   UNL     1      -4.750   0.173   0.036  0.00  0.00    -0.495 OA
ATOM     26  C   UNL     1      -4.624   1.597   0.037  0.00  0.00    +0.277 C 
ENDBRANCH  21  25
ENDBRANCH   1  19
BRANCH  14  27
ATOM     27  N   UNL     1      -5.163  -5.408  -2.364  0.00  0.00    -0.328 N 
ATOM     28  H   UNL     1      -6.097  -5.670  -2.368  0.00  0.00    +0.145 HD
ATOM     29  H   UNL     1      -4.650  -5.431  -3.187  0.00  0.00    +0.145 HD
ENDBRANCH  14  27
BRANCH  15  30
ATOM     30  C   UNL     1      -2.554  -4.717  -2.450  0.00  0.00    +0.100 C 
ATOM     31  N   UNL     1      -1.988  -4.773  -3.434  0.00  0.00    -0.191 NA
ENDBRANCH  15  30
TORSDOF 5
