REMARK  Name = ZINC01268970
REMARK  6 active torsions:
REMARK  status: ('A' for Active; 'I' for Inactive)
REMARK    1  A    between atoms: C_4  and  N_10
REMARK    2  A    between atoms: C_5  and  C_7
REMARK    3  A    between atoms: N_10  and  C_11
REMARK    4  A    between atoms: C_11  and  N_13
REMARK    5  A    between atoms: C_14  and  C_16
REMARK    6  A    between atoms: C_19  and  C_21
REMARK                            x       y       z     vdW  Elec       q    Type
REMARK                         _______ _______ _______ _____ _____    ______ ____
ROOT
ATOM      1  N   UNL     1       5.328  -3.959   2.087  0.00  0.00    -0.261 N 
ATOM      2  C   UNL     1       5.760  -3.435   0.923  0.00  0.00    +0.285 C 
ATOM      3  O   UNL     1       6.778  -3.857   0.407  0.00  0.00    -0.266 OA
ATOM      4  H   UNL     1       4.516  -3.622   2.498  0.00  0.00    +0.157 HD
ENDROOT
BRANCH   2   5
ATOM      5  C   UNL     1       5.005  -2.359   0.279  0.00  0.00    +0.190 A 
ATOM      6  C   UNL     1       5.333  -1.737  -0.907  0.00  0.00    +0.055 A 
ATOM      7  C   UNL     1       4.345  -0.777  -1.146  0.00  0.00    +0.051 A 
ATOM      8  C   UNL     1       3.458  -0.847  -0.109  0.00  0.00    +0.137 A 
ATOM      9  O   UNL     1       3.869  -1.799   0.746  0.00  0.00    -0.450 OA
BRANCH   8  10
ATOM     10  C   UNL     1       2.252  -0.010   0.050  0.00  0.00    +0.037 A 
ATOM     11  C   UNL     1       2.340   1.378  -0.075  0.00  0.00    +0.013 A 
ATOM     12  C   UNL     1       1.209   2.154   0.073  0.00  0.00    +0.002 A 
ATOM     13  C   UNL     1      -0.011   1.561   0.346  0.00  0.00    +0.021 A 
ATOM     14  C   UNL     1      -0.107   0.186   0.471  0.00  0.00    +0.060 A 
ATOM     15  C   UNL     1       1.017  -0.604   0.325  0.00  0.00    +0.070 A 
ATOM     16 CL   UNL     1       0.896  -2.329   0.482  0.00  0.00    -0.081 Cl
ATOM     17 CL   UNL     1      -1.643  -0.548   0.813  0.00  0.00    -0.082 Cl
ENDBRANCH   8  10
ENDBRANCH   2   5
BRANCH   1  18
ATOM     18  C   UNL     1       6.023  -4.949   2.680  0.00  0.00    +0.141 C 
ATOM     19  S   UNL     1       7.455  -5.543   1.954  0.00  0.00    -0.018 S 
BRANCH  18  20
ATOM     20  N   UNL     1       5.591  -5.473   3.844  0.00  0.00    -0.296 N 
ATOM     21  H   UNL     1       4.819  -5.091   4.290  0.00  0.00    +0.154 HD
BRANCH  20  25
ATOM     22  C   UNL     1       7.573  -8.733   5.525  0.00  0.00    +0.001 A 
ATOM     23  C   UNL     1       8.290  -7.638   5.070  0.00  0.00    +0.002 A 
ATOM     24  C   UNL     1       7.637  -6.559   4.508  0.00  0.00    +0.024 A 
ATOM     25  C   UNL     1       6.252  -6.561   4.406  0.00  0.00    +0.045 A 
ATOM     26  C   UNL     1       5.523  -7.668   4.865  0.00  0.00    +0.058 A 
ATOM     27  C   UNL     1       6.199  -8.755   5.427  0.00  0.00    +0.015 A 
BRANCH  26  28
ATOM     28  C   UNL     1       4.053  -7.686   4.757  0.00  0.00    +0.243 C 
ATOM     29  O   UNL     1       3.475  -6.786   4.178  0.00  0.00    -0.270 OA
ATOM     30  N   UNL     1       3.348  -8.699   5.299  0.00  0.00    -0.325 N 
ATOM     31  H   UNL     1       3.809  -9.417   5.761  0.00  0.00    +0.145 HD
ATOM     32  H   UNL     1       2.381  -8.710   5.227  0.00  0.00    +0.145 HD
ENDBRANCH  26  28
ENDBRANCH  20  25
ENDBRANCH  18  20
ENDBRANCH   1  18
TORSDOF 6
