REMARK  Name = ZINC64530459
REMARK  7 active torsions:
REMARK  status: ('A' for Active; 'I' for Inactive)
REMARK    1  A    between atoms: C_1  and  C_2
REMARK    2  A    between atoms: C_5  and  C_9
REMARK    3  A    between atoms: C_7  and  C_8
REMARK    4  A    between atoms: N_16  and  C_17
REMARK    5  A    between atoms: C_19  and  N_24
REMARK    6  A    between atoms: C_22  and  C_23
REMARK    7  A    between atoms: C_25  and  C_27
REMARK                            x       y       z     vdW  Elec       q    Type
REMARK                         _______ _______ _______ _____ _____    ______ ____
ROOT
ATOM      1  C   UNL     1       0.381  -4.592   0.561  0.00  0.00    +0.108 C 
ATOM      2  C   UNL     1      -1.021  -5.228   0.455  0.00  0.00    +0.029 C 
ATOM      3  C   UNL     1      -0.778  -6.453  -0.465  0.00  0.00    +0.021 C 
ATOM      4  C   UNL     1       0.296  -5.904  -1.438  0.00  0.00    +0.110 C 
ATOM      5  N   UNL     1       1.155  -5.043  -0.604  0.00  0.00    -0.278 N 
ATOM      6  C   UNL     1       2.437  -4.723  -0.868  0.00  0.00    +0.307 C 
ATOM      7  O   UNL     1       3.052  -4.001  -0.107  0.00  0.00    -0.252 OA
ATOM      8  N   UNL     1       3.038  -5.203  -1.974  0.00  0.00    -0.269 N 
ATOM      9  H   UNL     1       2.577  -5.845  -2.537  0.00  0.00    +0.156 HD
ENDROOT
BRANCH   1  14
ATOM     10  C   UNL     1      -0.069   1.169   0.512  0.00  0.00    +0.044 C 
ATOM     11  C   UNL     1       0.049  -0.333   0.525  0.00  0.00    -0.048 A 
ATOM     12  C   UNL     1      -0.028  -1.043  -0.659  0.00  0.00    +0.004 A 
ATOM     13  C   UNL     1       0.080  -2.421  -0.648  0.00  0.00    +0.006 A 
ATOM     14  C   UNL     1       0.265  -3.089   0.548  0.00  0.00    -0.027 A 
ATOM     15  C   UNL     1       0.342  -2.380   1.732  0.00  0.00    +0.009 A 
ATOM     16  C   UNL     1       0.238  -1.001   1.720  0.00  0.00    -0.047 A 
ATOM     17  C   UNL     1       0.328  -0.227   3.010  0.00  0.00    +0.044 C 
ENDBRANCH   1  14
BRANCH   8  18
ATOM     18  C   UNL     1       4.327  -4.776  -2.312  0.00  0.00    +0.039 A 
ATOM     19  C   UNL     1       4.826  -3.592  -1.787  0.00  0.00    +0.047 A 
ATOM     20  C   UNL     1       6.105  -3.172  -2.124  0.00  0.00    +0.035 A 
ATOM     21  C   UNL     1       6.881  -3.937  -2.986  0.00  0.00    +0.024 A 
ATOM     22  C   UNL     1       6.381  -5.114  -3.507  0.00  0.00    +0.007 A 
ATOM     23  C   UNL     1       5.110  -5.538  -3.169  0.00  0.00    -0.029 A 
ATOM     24  C   UNL     1       4.571  -6.827  -3.735  0.00  0.00    +0.045 C 
BRANCH  20  25
ATOM     25  N   UNL     1       6.612  -1.979  -1.597  0.00  0.00    -0.286 N 
ATOM     26  C   UNL     1       7.925  -1.871  -1.317  0.00  0.00    +0.214 C 
ATOM     27  O   UNL     1       8.652  -2.834  -1.435  0.00  0.00    -0.276 OA
ATOM     28  C   UNL     1       8.491  -0.552  -0.857  0.00  0.00    +0.109 C 
ATOM     29  H   UNL     1       6.017  -1.230  -1.433  0.00  0.00    +0.155 HD
ENDBRANCH  20  25
ENDBRANCH   8  18
TORSDOF 3
