REMARK  Name = ZINC20834537
REMARK  11 active torsions:
REMARK  status: ('A' for Active; 'I' for Inactive)
REMARK    1  A    between atoms: C_1  and  O_2
REMARK    2  A    between atoms: O_2  and  C_3
REMARK    3  A    between atoms: C_7  and  C_10
REMARK    4  A    between atoms: C_8  and  O_9
REMARK    5  A    between atoms: N_11  and  N_12
REMARK    6  A    between atoms: C_15  and  S_18
REMARK    7  A    between atoms: S_18  and  C_19
REMARK    8  A    between atoms: C_19  and  C_20
REMARK    9  A    between atoms: C_20  and  C_21
REMARK   10  A    between atoms: N_23  and  C_24
REMARK   11  A    between atoms: C_27  and  C_30
REMARK                            x       y       z     vdW  Elec       q    Type
REMARK                         _______ _______ _______ _____ _____    ______ ____
ROOT
ATOM      1  N   UNL     1       0.815   0.519  -6.242  0.00  0.00    -0.205 N 
ATOM      2  C   UNL     1       0.733   0.575  -4.858  0.00  0.00    +0.232 A 
ATOM      3  N   UNL     1      -0.220   1.238  -4.135  0.00  0.00    -0.186 NA
ATOM      4  C   UNL     1       0.049   1.049  -2.809  0.00  0.00    +0.210 A 
ATOM      5  N   UNL     1       1.125   0.305  -2.715  0.00  0.00    -0.144 NA
ATOM      6  N   UNL     1       1.555   0.001  -4.013  0.00  0.00    -0.245 N 
ATOM      7  H   UNL     1       0.068   1.040  -6.858  0.00  0.00    +0.177 HD
ATOM      8  H   UNL     1       2.402  -0.593  -4.388  0.00  0.00    +0.192 HD
ENDROOT
BRANCH   1  10
ATOM      9  C   UNL     1       1.926  -0.253  -8.149  0.00  0.00    +0.142 C 
ATOM     10  N   UNL     1       1.849  -0.201  -6.854  0.00  0.00    -0.187 NA
BRANCH   9  15
ATOM     11  C   UNL     1       4.989  -2.386  -8.628  0.00  0.00    +0.162 A 
ATOM     12  C   UNL     1       5.061  -2.435 -10.012  0.00  0.00    +0.049 A 
ATOM     13  C   UNL     1       4.120  -1.779 -10.785  0.00  0.00    +0.004 A 
ATOM     14  C   UNL     1       3.100  -1.069 -10.186  0.00  0.00    +0.013 A 
ATOM     15  C   UNL     1       3.014  -1.010  -8.793  0.00  0.00    +0.040 A 
ATOM     16  C   UNL     1       3.970  -1.670  -8.011  0.00  0.00    +0.167 A 
BRANCH  11  18
ATOM     17  C   UNL     1       6.940  -3.744  -8.575  0.00  0.00    +0.277 C 
ATOM     18  O   UNL     1       5.918  -3.033  -7.875  0.00  0.00    -0.491 OA
ENDBRANCH  11  18
BRANCH  16  19
ATOM     19  O   UNL     1       3.900  -1.615  -6.655  0.00  0.00    -0.503 OA
ATOM     20  H   UNL     1       3.092  -1.047  -6.169  0.00  0.00    +0.292 HD
ENDBRANCH  16  19
ENDBRANCH   9  15
ENDBRANCH   1  10
BRANCH   4  21
ATOM     21  S   UNL     1      -0.883   1.698  -1.462  0.00  0.00    -0.084 S 
BRANCH  21  22
ATOM     22  C   UNL     1      -0.011   1.088   0.008  0.00  0.00    +0.086 C 
BRANCH  22  23
ATOM     23  C   UNL     1      -0.725   1.585   1.267  0.00  0.00    +0.107 C 
BRANCH  23  24
ATOM     24  C   UNL     1      -0.001   1.079   2.488  0.00  0.00    +0.218 C 
ATOM     25  O   UNL     1       0.989   0.389   2.363  0.00  0.00    -0.275 OA
ATOM     26  N   UNL     1      -0.453   1.393   3.718  0.00  0.00    -0.285 N 
ATOM     27  H   UNL     1      -1.304   2.080   3.832  0.00  0.00    +0.155 HD
BRANCH  26  28
ATOM     28  C   UNL     1       0.160   0.845   4.850  0.00  0.00    +0.033 A 
ATOM     29  C   UNL     1      -0.599   0.529   5.969  0.00  0.00    +0.024 A 
ATOM     30  C   UNL     1       0.009  -0.018   7.082  0.00  0.00    +0.014 A 
ATOM     31  C   UNL     1       1.374  -0.239   7.088  0.00  0.00    +0.055 A 
ATOM     32  C   UNL     1       2.133   0.079   5.977  0.00  0.00    +0.014 A 
ATOM     33  C   UNL     1       1.531   0.621   4.859  0.00  0.00    +0.024 A 
BRANCH  31  34
ATOM     34  C   UNL     1       2.034  -0.829   8.307  0.00  0.00    +0.417 C 
ATOM     35  F   UNL     1       2.434   0.201   9.165  0.00  0.00    -0.166 F 
ATOM     36  F   UNL     1       1.129  -1.664   8.970  0.00  0.00    -0.166 F 
ATOM     37  F   UNL     1       3.154  -1.572   7.917  0.00  0.00    -0.166 F 
ENDBRANCH  31  34
ENDBRANCH  26  28
ENDBRANCH  23  24
ENDBRANCH  22  23
ENDBRANCH  21  22
ENDBRANCH   4  21
TORSDOF 10
