REMARK  Name = ZINC00906202
REMARK  10 active torsions:
REMARK  status: ('A' for Active; 'I' for Inactive)
REMARK    1  A    between atoms: C_1  and  O_2
REMARK    2  A    between atoms: O_2  and  C_3
REMARK    3  A    between atoms: C_6  and  C_10
REMARK    4  A    between atoms: C_8  and  O_9
REMARK    5  A    between atoms: C_10  and  C_12
REMARK    6  A    between atoms: C_10  and  N_21
REMARK    7  A    between atoms: N_14  and  C_15
REMARK    8  A    between atoms: N_21  and  C_22
REMARK    9  A    between atoms: C_32  and  C_34
REMARK   10  A    between atoms: C_34  and  N_35
REMARK                            x       y       z     vdW  Elec       q    Type
REMARK                         _______ _______ _______ _____ _____    ______ ____
ROOT
ATOM      1  N   UNL     1      -5.846  -1.994   1.014  0.00  0.00    -0.252 N 
ATOM      2  C   UNL     1      -6.878  -2.756   1.427  0.00  0.00    +0.242 C 
ATOM      3  O   UNL     1      -7.201  -3.737   0.792  0.00  0.00    -0.273 OA
ENDROOT
BRANCH   1   4
ATOM      4  C   UNL     1      -5.538  -0.807   1.688  0.00  0.00    +0.056 A 
ATOM      5  C   UNL     1      -6.415   0.260   1.651  0.00  0.00    +0.035 A 
ATOM      6  C   UNL     1      -6.060   1.431   2.345  0.00  0.00    +0.002 A 
ATOM      7  C   UNL     1      -6.900   2.557   2.355  0.00  0.00    +0.010 A 
ATOM      8  C   UNL     1      -6.523   3.672   3.038  0.00  0.00    +0.001 A 
ATOM      9  C   UNL     1      -5.314   3.712   3.730  0.00  0.00    +0.002 A 
ATOM     10  C   UNL     1      -4.476   2.640   3.742  0.00  0.00    +0.028 A 
ATOM     11  C   UNL     1      -4.830   1.469   3.048  0.00  0.00    +0.071 A 
ATOM     12  N   UNL     1      -4.024   0.402   3.046  0.00  0.00    -0.253 NA
ATOM     13  C   UNL     1      -4.343  -0.697   2.408  0.00  0.00    +0.135 A 
ENDBRANCH   1   4
BRANCH   1  14
ATOM     14  C   UNL     1      -5.047  -2.408  -0.142  0.00  0.00    +0.197 C 
BRANCH  14  18
ATOM     15  C   UNL     1      -1.699   0.217  -0.571  0.00  0.00    +0.161 A 
ATOM     16  C   UNL     1      -2.987   0.727  -0.577  0.00  0.00    +0.050 A 
ATOM     17  C   UNL     1      -4.068  -0.125  -0.438  0.00  0.00    +0.010 A 
ATOM     18  C   UNL     1      -3.866  -1.485  -0.293  0.00  0.00    -0.014 A 
ATOM     19  C   UNL     1      -2.583  -1.999  -0.286  0.00  0.00    +0.055 A 
ATOM     20  C   UNL     1      -1.496  -1.152  -0.430  0.00  0.00    +0.159 A 
BRANCH  15  22
ATOM     21  C   UNL     1      -0.919   2.447  -0.847  0.00  0.00    +0.277 C 
ATOM     22  O   UNL     1      -0.635   1.053  -0.707  0.00  0.00    -0.491 OA
ENDBRANCH  15  22
BRANCH  20  23
ATOM     23  O   UNL     1      -0.233  -1.657  -0.430  0.00  0.00    -0.503 OA
ATOM     24  H   UNL     1       0.170  -1.708   0.448  0.00  0.00    +0.292 HD
ENDBRANCH  20  23
ENDBRANCH  14  18
BRANCH  14  25
ATOM     25  C   UNL     1      -5.895  -2.347  -1.387  0.00  0.00    +0.239 C 
ATOM     26  O   UNL     1      -7.052  -1.993  -1.315  0.00  0.00    -0.273 OA
ATOM     27  N   UNL     1      -5.366  -2.687  -2.579  0.00  0.00    -0.311 N 
ATOM     28  H   UNL     1      -4.441  -2.970  -2.636  0.00  0.00    +0.149 HD
BRANCH  27  29
ATOM     29  C   UNL     1      -6.190  -2.627  -3.789  0.00  0.00    +0.073 C 
ATOM     30  C   UNL     1      -6.980  -3.930  -3.933  0.00  0.00    +0.022 C 
ATOM     31  C   UNL     1      -7.840  -3.869  -5.197  0.00  0.00    +0.002 C 
ATOM     32  C   UNL     1      -6.939  -3.681  -6.419  0.00  0.00    +0.000 C 
ATOM     33  C   UNL     1      -6.150  -2.378  -6.275  0.00  0.00    +0.002 C 
ATOM     34  C   UNL     1      -5.289  -2.440  -5.011  0.00  0.00    +0.022 C 
ENDBRANCH  27  29
ENDBRANCH  14  25
ENDBRANCH   1  14
BRANCH   2  35
ATOM     35  C   UNL     1      -7.631  -2.389   2.680  0.00  0.00    +0.242 C 
BRANCH  35  36
ATOM     36  N   UNL     1      -8.611  -3.434   2.985  0.00  0.00    -0.235 N 
ATOM     37  C   UNL     1      -9.912  -3.495   2.545  0.00  0.00    +0.090 A 
ATOM     38  C   UNL     1     -10.698  -2.681   1.737  0.00  0.00    +0.029 A 
ATOM     39  C   UNL     1     -11.995  -3.027   1.480  0.00  0.00    +0.002 A 
ATOM     40  C   UNL     1     -12.537  -4.187   2.020  0.00  0.00    +0.002 A 
ATOM     41  C   UNL     1     -11.787  -5.003   2.816  0.00  0.00    +0.032 A 
ATOM     42  C   UNL     1     -10.454  -4.670   3.094  0.00  0.00    +0.113 A 
ATOM     43  N   UNL     1      -9.490  -5.262   3.826  0.00  0.00    -0.129 NA
ATOM     44  N   UNL     1      -8.405  -4.572   3.779  0.00  0.00    -0.064 NA
ENDBRANCH  35  36
ENDBRANCH   2  35
TORSDOF 9
