REMARK  Name = ZINC45731698
REMARK  7 active torsions:
REMARK  status: ('A' for Active; 'I' for Inactive)
REMARK    1  A    between atoms: C_1  and  C_2
REMARK    2  A    between atoms: C_2  and  C_3
REMARK    3  A    between atoms: C_2  and  C_4
REMARK    4  A    between atoms: C_4  and  C_6
REMARK    5  A    between atoms: C_4  and  N_13
REMARK    6  A    between atoms: C_14  and  C_16
REMARK    7  A    between atoms: C_16  and  N_17
REMARK                            x       y       z     vdW  Elec       q    Type
REMARK                         _______ _______ _______ _____ _____    ______ ____
ROOT
ATOM      1  C   UNL     1      -3.456   1.665  -2.381  0.00  0.00    +0.213 C 
ENDROOT
BRANCH   1   2
ATOM      2  N   UNL     1      -3.999   2.999  -2.114  0.00  0.00    -0.215 N 
ATOM      3  C   UNL     1      -5.224   3.231  -1.594  0.00  0.00    +0.251 C 
ATOM      4  O   UNL     1      -6.053   2.408  -1.271  0.00  0.00    -0.272 OA
ATOM      5  C   UNL     1      -5.338   4.730  -1.502  0.00  0.00    +0.138 C 
ATOM      6  C   UNL     1      -6.521   5.250  -2.329  0.00  0.00    +0.045 C 
ATOM      7  C   UNL     1      -6.980   6.475  -1.506  0.00  0.00    +0.038 C 
ATOM      8  C   UNL     1      -6.532   6.191  -0.087  0.00  0.00    -0.042 A 
ATOM      9  C   UNL     1      -5.582   5.183  -0.088  0.00  0.00    -0.012 A 
ATOM     10  C   UNL     1      -5.029   4.761   1.109  0.00  0.00    +0.006 A 
ATOM     11  C   UNL     1      -5.422   5.338   2.301  0.00  0.00    +0.000 A 
ATOM     12  C   UNL     1      -6.371   6.343   2.301  0.00  0.00    +0.000 A 
ATOM     13  C   UNL     1      -6.923   6.768   1.108  0.00  0.00    +0.004 A 
ATOM     14  N   UNL     1      -4.064   5.230  -2.020  0.00  0.00    -0.281 N 
ATOM     15  C   UNL     1      -3.340   4.141  -2.350  0.00  0.00    +0.310 C 
ATOM     16  O   UNL     1      -2.217   4.191  -2.812  0.00  0.00    -0.252 OA
ATOM     17  H   UNL     1      -3.794   6.157  -2.107  0.00  0.00    +0.152 HD
ENDBRANCH   1   2
BRANCH   1  19
ATOM     18  N   UNL     1      -2.142  -0.048  -1.174  0.00  0.00    -0.307 N 
ATOM     19  C   UNL     1      -2.727   1.166  -1.160  0.00  0.00    +0.231 C 
ATOM     20  O   UNL     1      -2.667   1.857  -0.165  0.00  0.00    -0.274 OA
ATOM     21  H   UNL     1      -2.190  -0.601  -1.970  0.00  0.00    +0.149 HD
BRANCH  18  22
ATOM     22  C   UNL     1      -1.433  -0.534   0.013  0.00  0.00    +0.106 C 
BRANCH  22  23
ATOM     23  C   UNL     1      -1.413  -2.041   0.005  0.00  0.00    -0.027 A 
ATOM     24  C   UNL     1      -1.201  -2.722  -1.179  0.00  0.00    +0.007 A 
ATOM     25  C   UNL     1      -1.182  -4.104  -1.188  0.00  0.00    +0.020 A 
ATOM     26  C   UNL     1      -1.375  -4.805  -0.011  0.00  0.00    +0.041 A 
ATOM     27  C   UNL     1      -1.587  -4.123   1.174  0.00  0.00    +0.020 A 
ATOM     28  C   UNL     1      -1.600  -2.740   1.182  0.00  0.00    +0.007 A 
ATOM     29 CL   UNL     1      -1.352  -6.541  -0.020  0.00  0.00    -0.084 Cl
ENDBRANCH  22  23
BRANCH  22  31
ATOM     30  C   UNL     1      -0.019   1.526   0.010  0.00  0.00    +0.009 C 
ATOM     31  C   UNL     1       0.002  -0.004   0.002  0.00  0.00    +0.008 C 
ATOM     32  C   UNL     1       0.742  -0.511   1.242  0.00  0.00    +0.009 C 
ENDBRANCH  22  31
ENDBRANCH  18  22
ENDBRANCH   1  19
TORSDOF 5
