REMARK  Name = ZINC33155097
REMARK  8 active torsions:
REMARK  status: ('A' for Active; 'I' for Inactive)
REMARK    1  A    between atoms: C_1  and  C_2
REMARK    2  A    between atoms: C_5  and  C_21
REMARK    3  A    between atoms: C_6  and  O_8
REMARK    4  A    between atoms: O_8  and  C_9
REMARK    5  A    between atoms: C_9  and  C_10
REMARK    6  A    between atoms: N_12  and  N_13
REMARK    7  A    between atoms: C_14  and  C_15
REMARK    8  A    between atoms: N_19  and  C_20
REMARK                            x       y       z     vdW  Elec       q    Type
REMARK                         _______ _______ _______ _____ _____    ______ ____
ROOT
ATOM      1  C   UNL     1       3.624   5.885  -0.241  0.00  0.00    +0.270 C 
ATOM      2  O   UNL     1       4.493   5.197   0.252  0.00  0.00    -0.270 OA
ATOM      3  N   UNL     1       3.831   7.204  -0.423  0.00  0.00    -0.204 N 
ATOM      4  H   UNL     1       3.044   7.828  -0.870  0.00  0.00    +0.177 HD
ENDROOT
BRANCH   3   5
ATOM      5  N   UNL     1       5.050   7.781  -0.042  0.00  0.00    -0.186 NA
ATOM      6  C   UNL     1       5.204   9.071  -0.096  0.00  0.00    +0.156 C 
BRANCH   6   7
ATOM      7  C   UNL     1       4.030   9.951  -0.080  0.00  0.00    +0.061 A 
ATOM      8  C   UNL     1       2.724   9.562   0.122  0.00  0.00    +0.029 A 
ATOM      9  C   UNL     1       1.934  10.718   0.056  0.00  0.00    +0.020 A 
ATOM     10  C   UNL     1       2.753  11.767  -0.180  0.00  0.00    +0.086 A 
ATOM     11  N   UNL     1       4.035  11.313  -0.260  0.00  0.00    -0.349 N 
ATOM     12  C   UNL     1       5.220  12.140  -0.500  0.00  0.00    +0.149 C 
ENDBRANCH   6   7
ENDBRANCH   3   5
BRANCH   1  13
ATOM     13  C   UNL     1       2.313   5.265  -0.651  0.00  0.00    +0.326 C 
BRANCH  13  14
ATOM     14  O   UNL     1       2.336   3.866  -0.359  0.00  0.00    -0.482 OA
BRANCH  14  20
ATOM     15  C   UNL     1      -2.191   3.747  -2.180  0.00  0.00    +0.044 C 
ATOM     16  C   UNL     1      -1.004   3.059  -1.557  0.00  0.00    -0.047 A 
ATOM     17  C   UNL     1      -1.045   1.700  -1.306  0.00  0.00    +0.004 A 
ATOM     18  C   UNL     1       0.040   1.068  -0.729  0.00  0.00    +0.007 A 
ATOM     19  C   UNL     1       1.175   1.790  -0.413  0.00  0.00    -0.009 A 
ATOM     20  C   UNL     1       1.221   3.153  -0.669  0.00  0.00    +0.124 A 
ATOM     21  C   UNL     1       0.128   3.787  -1.243  0.00  0.00    +0.049 A 
ATOM     22  C   UNL     1       2.361   1.099   0.209  0.00  0.00    +0.047 C 
ENDBRANCH  14  20
ENDBRANCH  13  14
ENDBRANCH   1  13
TORSDOF 5
