REMARK  Name = ZINC42026432
REMARK  5 active torsions:
REMARK  status: ('A' for Active; 'I' for Inactive)
REMARK    1  A    between atoms: C_1  and  C_2
REMARK    2  A    between atoms: C_8  and  N_10
REMARK    3  A    between atoms: C_11  and  C_15
REMARK    4  A    between atoms: C_18  and  N_22
REMARK    5  A    between atoms: C_20  and  N_21
REMARK                            x       y       z     vdW  Elec       q    Type
REMARK                         _______ _______ _______ _____ _____    ______ ____
ROOT
ATOM      1  N   UNL     1      -0.014  -0.235   3.020  0.00  0.00    -0.222 N 
ATOM      2  C   UNL     1       0.643   0.523   3.942  0.00  0.00    +0.184 A 
ATOM      3  N   UNL     1      -0.181   0.690   4.957  0.00  0.00    -0.108 NA
ATOM      4  N   UNL     1      -1.296   0.094   4.734  0.00  0.00    -0.023 NA
ATOM      5  N   UNL     1      -1.278  -0.483   3.582  0.00  0.00    -0.043 NA
ENDROOT
BRANCH   1  12
ATOM      6  C   UNL     1      -0.499   1.336   0.635  0.00  0.00    +0.009 C 
ATOM      7  C   UNL     1      -0.447  -0.193   0.613  0.00  0.00    +0.011 C 
ATOM      8  C   UNL     1       0.076  -0.665  -0.745  0.00  0.00    +0.005 C 
ATOM      9  C   UNL     1       0.129  -2.194  -0.767  0.00  0.00    +0.000 C 
ATOM     10  C   UNL     1       1.062  -2.689   0.339  0.00  0.00    +0.002 C 
ATOM     11  C   UNL     1       0.539  -2.216   1.697  0.00  0.00    +0.027 C 
ATOM     12  C   UNL     1       0.487  -0.687   1.719  0.00  0.00    +0.114 C 
ENDBRANCH   1  12
BRANCH   2  13
ATOM     13  C   UNL     1       2.016   1.055   3.827  0.00  0.00    +0.041 A 
ATOM     14  C   UNL     1       3.060   0.219   3.428  0.00  0.00    +0.015 A 
ATOM     15  C   UNL     1       4.339   0.717   3.320  0.00  0.00    +0.023 A 
ATOM     16  C   UNL     1       4.597   2.055   3.609  0.00  0.00    +0.026 A 
ATOM     17  C   UNL     1       3.566   2.895   4.006  0.00  0.00    +0.046 A 
ATOM     18  C   UNL     1       2.274   2.404   4.112  0.00  0.00    +0.037 A 
BRANCH  18  19
ATOM     19  N   UNL     1       1.236   3.246   4.506  0.00  0.00    -0.357 N 
ATOM     20  H   UNL     1       0.321   2.925   4.495  0.00  0.00    +0.142 HD
ATOM     21  H   UNL     1       1.429   4.153   4.791  0.00  0.00    +0.142 HD
ENDBRANCH  18  19
BRANCH  16  22
ATOM     22  N   UNL     1       5.895   2.552   3.498  0.00  0.00    -0.358 N 
ATOM     23  H   UNL     1       6.616   1.966   3.221  0.00  0.00    +0.142 HD
ATOM     24  H   UNL     1       6.076   3.483   3.699  0.00  0.00    +0.142 HD
ENDBRANCH  16  22
ENDBRANCH   2  13
TORSDOF 4
