REMARK  Name = ZINC20877799
REMARK  10 active torsions:
REMARK  status: ('A' for Active; 'I' for Inactive)
REMARK    1  A    between atoms: C_1  and  C_2
REMARK    2  A    between atoms: C_2  and  C_3
REMARK    3  A    between atoms: C_2  and  C_4
REMARK    4  A    between atoms: C_2  and  N_5
REMARK    5  A    between atoms: C_6  and  C_8
REMARK    6  A    between atoms: C_8  and  O_9
REMARK    7  A    between atoms: O_9  and  C_10
REMARK    8  A    between atoms: C_15  and  C_16
REMARK    9  A    between atoms: C_16  and  N_17
REMARK   10  A    between atoms: N_17  and  C_18
REMARK                            x       y       z     vdW  Elec       q    Type
REMARK                         _______ _______ _______ _____ _____    ______ ____
ROOT
ATOM      1  C   UNL     1       5.682   4.177  -1.216  0.00  0.00    +0.126 A 
ATOM      2  C   UNL     1       6.982   4.663  -1.223  0.00  0.00    +0.046 A 
ATOM      3  C   UNL     1       7.564   5.093  -0.047  0.00  0.00    +0.004 A 
ATOM      4  C   UNL     1       6.853   5.039   1.138  0.00  0.00    +0.001 A 
ATOM      5  C   UNL     1       5.556   4.560   1.147  0.00  0.00    +0.009 A 
ATOM      6  C   UNL     1       4.971   4.124  -0.026  0.00  0.00    +0.011 A 
ENDROOT
BRANCH   1   7
ATOM      7  O   UNL     1       5.107   3.755  -2.372  0.00  0.00    -0.482 OA
BRANCH   7   8
ATOM      8  C   UNL     1       5.899   3.838  -3.559  0.00  0.00    +0.324 C 
BRANCH   8  10
ATOM      9  N   UNL     1       5.649   3.314  -5.963  0.00  0.00    -0.308 N 
ATOM     10  C   UNL     1       5.101   3.329  -4.732  0.00  0.00    +0.251 C 
ATOM     11  O   UNL     1       3.966   2.934  -4.568  0.00  0.00    -0.272 OA
ATOM     12  H   UNL     1       6.678   3.673  -6.112  0.00  0.00    +0.149 HD
BRANCH   9  14
ATOM     13  C   UNL     1       3.612   3.670  -7.271  0.00  0.00    +0.031 C 
ATOM     14  C   UNL     1       4.873   2.819  -7.104  0.00  0.00    +0.026 C 
ATOM     15  C   UNL     1       5.721   2.909  -8.374  0.00  0.00    +0.031 C 
ATOM     16  C   UNL     1       4.477   1.362  -6.857  0.00  0.00    +0.031 C 
ENDBRANCH   9  14
ENDBRANCH   8  10
ENDBRANCH   7   8
ENDBRANCH   1   7
BRANCH   6  17
ATOM     17  C   UNL     1       3.559   3.597  -0.015  0.00  0.00    +0.140 C 
BRANCH  17  18
ATOM     18  N   UNL     1       3.584   2.132  -0.022  0.00  0.00    -0.340 N 
ATOM     19  H   UNL     1       4.546   1.599  -0.035  0.00  0.00    +0.146 HD
BRANCH  18  20
ATOM     20  C   UNL     1       2.385   1.412  -0.014  0.00  0.00    +0.029 A 
ATOM     21  C   UNL     1       1.170   2.088   0.002  0.00  0.00    +0.025 A 
ATOM     22  C   UNL     1      -0.017   1.382   0.010  0.00  0.00    +0.029 A 
ATOM     23  C   UNL     1       0.002  -0.004   0.002  0.00  0.00    +0.067 A 
ATOM     24  C   UNL     1       1.221  -0.686  -0.013  0.00  0.00    +0.069 A 
ATOM     25  C   UNL     1       2.411   0.025  -0.021  0.00  0.00    +0.050 A 
ATOM     26  N   UNL     1       0.921  -2.046  -0.017  0.00  0.00    -0.306 N 
ATOM     27  H   UNL     1       1.734  -2.788  -0.029  0.00  0.00    +0.170 HD
ATOM     28  C   UNL     1      -0.417  -2.187  -0.005  0.00  0.00    +0.325 A 
ATOM     29  O   UNL     1      -1.010  -3.250  -0.005  0.00  0.00    -0.247 OA
ATOM     30  N   UNL     1      -1.001  -0.974   0.007  0.00  0.00    -0.306 N 
ATOM     31  H   UNL     1      -2.059  -0.671   0.019  0.00  0.00    +0.170 HD
ENDBRANCH  18  20
ENDBRANCH  17  18
ENDBRANCH   6  17
TORSDOF 7
