REMARK  Name = ZINC36913992
REMARK  6 active torsions:
REMARK  status: ('A' for Active; 'I' for Inactive)
REMARK    1  A    between atoms: C_7  and  N_14
REMARK    2  A    between atoms: C_8  and  C_11
REMARK    3  A    between atoms: C_11  and  N_13
REMARK    4  A    between atoms: N_14  and  C_15
REMARK    5  A    between atoms: C_15  and  C_16
REMARK    6  A    between atoms: N_18  and  C_19
REMARK                            x       y       z     vdW  Elec       q    Type
REMARK                         _______ _______ _______ _____ _____    ______ ____
ROOT
ATOM      1  C   UNL     1       4.326  -7.041   0.013  0.00  0.00    +0.001 A 
ATOM      2  C   UNL     1       4.867  -6.342   1.089  0.00  0.00    +0.002 A 
ATOM      3  C   UNL     1       4.185  -5.321   1.678  0.00  0.00    +0.026 A 
ATOM      4  C   UNL     1       2.915  -4.962   1.198  0.00  0.00    +0.048 A 
ATOM      5  C   UNL     1       2.367  -5.674   0.104  0.00  0.00    +0.020 A 
ATOM      6  C   UNL     1       3.096  -6.720  -0.479  0.00  0.00    +0.012 A 
ATOM      7  C   UNL     1       1.088  -5.313  -0.380  0.00  0.00    +0.048 A 
ATOM      8  C   UNL     1       0.422  -4.255   0.258  0.00  0.00    +0.040 A 
ATOM      9  C   UNL     1       1.042  -3.605   1.337  0.00  0.00    +0.095 A 
ATOM     10  N   UNL     1       2.227  -3.960   1.763  0.00  0.00    -0.360 N 
ATOM     11  H   UNL     1       2.619  -3.484   2.512  0.00  0.00    +0.165 HD
ENDROOT
BRANCH   8  12
ATOM     12  C   UNL     1      -0.910  -3.833  -0.199  0.00  0.00    +0.080 C 
ATOM     13  S   UNL     1      -1.716  -2.543   0.588  0.00  0.00    -0.035 S 
BRANCH  12  14
ATOM     14  N   UNL     1      -1.498  -4.460  -1.237  0.00  0.00    -0.352 N 
ATOM     15  H   UNL     1      -1.042  -5.191  -1.683  0.00  0.00    +0.143 HD
ATOM     16  H   UNL     1      -2.377  -4.181  -1.539  0.00  0.00    +0.143 HD
ENDBRANCH  12  14
ENDBRANCH   8  12
BRANCH   7  17
ATOM     17  N   UNL     1       0.515  -5.978  -1.443  0.00  0.00    -0.334 N 
ATOM     18  H   UNL     1       0.283  -5.493  -2.250  0.00  0.00    +0.147 HD
BRANCH  17  19
ATOM     19  C   UNL     1       0.256  -7.417  -1.353  0.00  0.00    +0.197 C 
BRANCH  19  20
ATOM     20  C   UNL     1      -1.231  -7.660  -1.333  0.00  0.00    +0.230 C 
ATOM     21  O   UNL     1      -1.999  -6.723  -1.388  0.00  0.00    -0.274 OA
ATOM     22  N   UNL     1      -1.708  -8.918  -1.253  0.00  0.00    -0.311 N 
ATOM     23  H   UNL     1      -1.093  -9.668  -1.209  0.00  0.00    +0.149 HD
BRANCH  22  24
ATOM     24  C   UNL     1      -3.153  -9.154  -1.233  0.00  0.00    +0.073 C 
ATOM     25  C   UNL     1      -3.688 -10.178  -0.230  0.00  0.00    +0.024 C 
ATOM     26  C   UNL     1      -3.654 -10.515  -1.722  0.00  0.00    +0.024 C 
ENDBRANCH  22  24
ENDBRANCH  19  20
ENDBRANCH  17  19
ENDBRANCH   7  17
TORSDOF 6
