REMARK  Name = ZINC17303691
REMARK  5 active torsions:
REMARK  status: ('A' for Active; 'I' for Inactive)
REMARK    1  A    between atoms: C_1  and  C_2
REMARK    2  A    between atoms: C_2  and  C_3
REMARK    3  A    between atoms: C_6  and  N_9
REMARK    4  A    between atoms: C_11  and  C_15
REMARK    5  A    between atoms: C_15  and  N_17
REMARK                            x       y       z     vdW  Elec       q    Type
REMARK                         _______ _______ _______ _____ _____    ______ ____
ROOT
ATOM      1  N   UNL     1       2.704  -1.889   4.602  0.00  0.00    -0.271 N 
ATOM      2  C   UNL     1       2.105  -2.087   5.927  0.00  0.00    +0.127 C 
ATOM      3  C   UNL     1       3.093  -2.991   6.696  0.00  0.00    +0.103 C 
ATOM      4  C   UNL     1       4.428  -2.680   5.979  0.00  0.00    +0.110 C 
ATOM      5  C   UNL     1       4.008  -2.215   4.602  0.00  0.00    +0.221 C 
ATOM      6  O   UNL     1       4.742  -2.144   3.639  0.00  0.00    -0.275 OA
ENDROOT
BRANCH   1  10
ATOM      7  C   UNL     1       0.625  -0.515   1.263  0.00  0.00    -0.048 A 
ATOM      8  C   UNL     1       1.992  -0.715   1.191  0.00  0.00    +0.005 A 
ATOM      9  C   UNL     1       2.684  -1.171   2.296  0.00  0.00    +0.024 A 
ATOM     10  C   UNL     1       2.006  -1.427   3.481  0.00  0.00    +0.036 A 
ATOM     11  C   UNL     1       0.634  -1.225   3.550  0.00  0.00    +0.024 A 
ATOM     12  C   UNL     1      -0.051  -0.765   2.443  0.00  0.00    +0.005 A 
BRANCH   7  14
ATOM     13  C   UNL     1      -0.153   1.512   0.065  0.00  0.00    +0.009 C 
ATOM     14  C   UNL     1      -0.126  -0.018   0.055  0.00  0.00    +0.032 C 
ENDBRANCH   7  14
ENDBRANCH   1  10
BRANCH   3  15
ATOM     15  C   UNL     1       2.725  -4.444   6.543  0.00  0.00    +0.244 C 
ATOM     16  O   UNL     1       1.756  -4.760   5.880  0.00  0.00    -0.273 OA
BRANCH  15  17
ATOM     17  N   UNL     1       3.459  -5.382   7.134  0.00  0.00    -0.147 NA
ATOM     18  C   UNL     1       3.202  -6.668   6.910  0.00  0.00    +0.198 A 
ATOM     19  N   UNL     1       2.299  -7.145   6.015  0.00  0.00    -0.326 N 
ATOM     20  H   UNL     1       1.736  -6.609   5.435  0.00  0.00    +0.169 HD
ATOM     21  C   UNL     1       2.320  -8.535   6.072  0.00  0.00    +0.065 A 
ATOM     22  C   UNL     1       1.620  -9.522   5.394  0.00  0.00    +0.028 A 
ATOM     23  C   UNL     1       1.863 -10.853   5.672  0.00  0.00    +0.002 A 
ATOM     24  C   UNL     1       2.803 -11.207   6.625  0.00  0.00    +0.002 A 
ATOM     25  C   UNL     1       3.505 -10.232   7.306  0.00  0.00    +0.028 A 
ATOM     26  C   UNL     1       3.268  -8.892   7.034  0.00  0.00    +0.065 A 
ATOM     27  N   UNL     1       3.806  -7.712   7.537  0.00  0.00    -0.326 N 
ATOM     28  H   UNL     1       4.493  -7.645   8.219  0.00  0.00    +0.169 HD
ENDBRANCH  15  17
ENDBRANCH   3  15
TORSDOF 4
