REMARK  Name = ZINC05696991
REMARK  8 active torsions:
REMARK  status: ('A' for Active; 'I' for Inactive)
REMARK    1  A    between atoms: C_1  and  C_2
REMARK    2  A    between atoms: C_3  and  C_19
REMARK    3  A    between atoms: C_4  and  C_18
REMARK    4  A    between atoms: C_7  and  C_8
REMARK    5  A    between atoms: N_10  and  N_11
REMARK    6  A    between atoms: C_12  and  C_13
REMARK    7  A    between atoms: N_21  and  N_22
REMARK    8  A    between atoms: C_23  and  C_24
REMARK                            x       y       z     vdW  Elec       q    Type
REMARK                         _______ _______ _______ _____ _____    ______ ____
ROOT
ATOM      1  C   UNL     1      -3.759   3.829   0.028  0.00  0.00    +0.047 C 
ATOM      2  C   UNL     1      -2.329   4.306   0.031  0.00  0.00    -0.008 A 
ATOM      3  C   UNL     1      -1.891   5.649   0.042  0.00  0.00    +0.062 A 
ATOM      4  C   UNL     1      -0.509   5.626   0.035  0.00  0.00    +0.026 A 
ATOM      5  N   UNL     1      -0.107   4.344   0.026  0.00  0.00    -0.354 N 
ATOM      6  H   UNL     1       0.815   4.045   0.019  0.00  0.00    +0.166 HD
ATOM      7  C   UNL     1      -1.213   3.522   0.027  0.00  0.00    +0.107 A 
ATOM      8  C   UNL     1       0.393   6.833   0.037  0.00  0.00    +0.064 C 
ENDROOT
BRANCH   7   9
ATOM      9  C   UNL     1      -1.193   2.055   0.019  0.00  0.00    +0.280 C 
ATOM     10  O   UNL     1      -2.239   1.432   0.021  0.00  0.00    -0.267 OA
ATOM     11  N   UNL     1      -0.017   1.397   0.010  0.00  0.00    -0.202 N 
ATOM     12  H   UNL     1       0.816   1.893   0.004  0.00  0.00    +0.178 HD
BRANCH  11  13
ATOM     13  N   UNL     1       0.002  -0.004   0.002  0.00  0.00    -0.187 NA
ATOM     14  C   UNL     1       1.137  -0.639  -0.012  0.00  0.00    +0.145 C 
BRANCH  14  15
ATOM     15  C   UNL     1       1.157  -2.105  -0.020  0.00  0.00    +0.032 A 
ATOM     16  C   UNL     1       2.243  -2.963  -0.035  0.00  0.00    +0.017 A 
ATOM     17  C   UNL     1       2.006  -4.318  -0.040  0.00  0.00    +0.008 A 
ATOM     18  C   UNL     1       0.724  -4.769  -0.029  0.00  0.00    +0.046 A 
ATOM     19  S   UNL     1      -0.213  -3.250  -0.005  0.00  0.00    -0.096 S 
ENDBRANCH  14  15
ENDBRANCH  11  13
ENDBRANCH   7   9
BRANCH   3  20
ATOM     20  C   UNL     1      -2.747   6.849   0.053  0.00  0.00    +0.265 C 
ATOM     21  O   UNL     1      -3.106   7.350  -0.996  0.00  0.00    -0.268 OA
ATOM     22  N   UNL     1      -3.131   7.392   1.225  0.00  0.00    -0.203 N 
ATOM     23  H   UNL     1      -2.845   6.993   2.062  0.00  0.00    +0.178 HD
BRANCH  22  24
ATOM     24  N   UNL     1      -3.945   8.533   1.236  0.00  0.00    -0.187 NA
ATOM     25  C   UNL     1      -4.316   9.057   2.367  0.00  0.00    +0.145 C 
BRANCH  25  26
ATOM     26  C   UNL     1      -5.167  10.251   2.378  0.00  0.00    +0.032 A 
ATOM     27  C   UNL     1      -5.668  10.956   3.458  0.00  0.00    +0.017 A 
ATOM     28  C   UNL     1      -6.453  12.058   3.213  0.00  0.00    +0.008 A 
ATOM     29  C   UNL     1      -6.712  12.418   1.928  0.00  0.00    +0.046 A 
ATOM     30  S   UNL     1      -5.822  11.179   1.000  0.00  0.00    -0.096 S 
ENDBRANCH  25  26
ENDBRANCH  22  24
ENDBRANCH   3  20
TORSDOF 6
