REMARK  Name = ZINC09959718
REMARK  8 active torsions:
REMARK  status: ('A' for Active; 'I' for Inactive)
REMARK    1  A    between atoms: C_1  and  C_2
REMARK    2  A    between atoms: C_3  and  C_7
REMARK    3  A    between atoms: C_10  and  S_13
REMARK    4  A    between atoms: N_11  and  N_12
REMARK    5  A    between atoms: S_13  and  C_14
REMARK    6  A    between atoms: C_14  and  C_16
REMARK    7  A    between atoms: C_14  and  C_17
REMARK    8  A    between atoms: C_29  and  C_33
REMARK                            x       y       z     vdW  Elec       q    Type
REMARK                         _______ _______ _______ _____ _____    ______ ____
ROOT
ATOM      1  C   UNL     1      -4.152  -3.584   1.446  0.00  0.00    +0.117 C 
ATOM      2  C   UNL     1      -3.970  -4.009   2.905  0.00  0.00    +0.027 C 
ENDROOT
BRANCH   1   3
ATOM      3  C   UNL     1      -3.065  -2.611   1.068  0.00  0.00    +0.124 A 
ATOM      4  N   UNL     1      -3.325  -1.284   1.159  0.00  0.00    -0.309 N 
ATOM      5  H   UNL     1      -4.202  -1.005   1.464  0.00  0.00    +0.170 HD
ATOM      6  C   UNL     1      -2.417  -0.330   0.843  0.00  0.00    +0.260 A 
ATOM      7  O   UNL     1      -2.669   0.859   0.931  0.00  0.00    -0.267 OA
ATOM      8  C   UNL     1      -1.139  -0.809   0.399  0.00  0.00    +0.075 A 
ATOM      9  C   UNL     1       0.002  -0.004   0.002  0.00  0.00    -0.023 A 
ATOM     10  C   UNL     1       1.113  -0.674  -0.386  0.00  0.00    -0.004 A 
ATOM     11  S   UNL     1       0.692  -2.393  -0.240  0.00  0.00    -0.073 S 
ATOM     12  C   UNL     1      -0.965  -2.210   0.338  0.00  0.00    +0.116 A 
ATOM     13  N   UNL     1      -1.908  -3.088   0.665  0.00  0.00    -0.225 NA
ATOM     14  C   UNL     1       2.414  -0.088  -0.839  0.00  0.00    +0.046 C 
ATOM     15  C   UNL     1       2.194   1.398  -1.157  0.00  0.00    -0.009 C 
ATOM     16  C   UNL     1       1.421   2.037  -0.001  0.00  0.00    +0.008 C 
ATOM     17  C   UNL     1      -0.019   1.522   0.010  0.00  0.00    +0.037 C 
ATOM     18  C   UNL     1       3.546   2.093  -1.322  0.00  0.00    +0.008 C 
ENDBRANCH   1   3
BRANCH   1  19
ATOM     19  S   UNL     1      -5.767  -2.792   1.245  0.00  0.00    -0.074 S 
BRANCH  19  23
ATOM     20  C   UNL     1      -8.571  -5.428   1.923  0.00  0.00    +0.185 A 
ATOM     21  N   UNL     1      -7.471  -6.123   2.100  0.00  0.00    -0.127 NA
ATOM     22  N   UNL     1      -6.444  -5.376   1.908  0.00  0.00    -0.121 NA
ATOM     23  C   UNL     1      -6.823  -4.158   1.596  0.00  0.00    +0.209 A 
ATOM     24  N   UNL     1      -8.190  -4.146   1.600  0.00  0.00    -0.224 N 
BRANCH  20  27
ATOM     25  C   UNL     1      -9.432  -8.351   2.660  0.00  0.00    +0.087 C 
ATOM     26  C   UNL     1     -10.349  -7.191   2.370  0.00  0.00    +0.112 A 
ATOM     27  C   UNL     1      -9.957  -5.927   2.052  0.00  0.00    +0.061 A 
ATOM     28  C   UNL     1     -11.196  -5.164   1.857  0.00  0.00    +0.053 A 
ATOM     29  C   UNL     1     -12.202  -6.026   2.078  0.00  0.00    +0.196 A 
ATOM     30  O   UNL     1     -11.689  -7.228   2.386  0.00  0.00    -0.467 OA
ENDBRANCH  20  27
BRANCH  24  31
ATOM     31  N   UNL     1      -9.008  -3.084   1.336  0.00  0.00    -0.295 N 
ATOM     32  H   UNL     1      -9.229  -3.034   0.353  0.00  0.00    +0.163 HD
ATOM     33  H   UNL     1      -9.847  -3.127   1.894  0.00  0.00    +0.163 HD
ENDBRANCH  24  31
ENDBRANCH  19  23
ENDBRANCH   1  19
TORSDOF 5
