REMARK  Name = ZINC19769059
REMARK  11 active torsions:
REMARK  status: ('A' for Active; 'I' for Inactive)
REMARK    1  A    between atoms: C_1  and  C_2
REMARK    2  A    between atoms: C_2  and  C_3
REMARK    3  A    between atoms: N_7  and  C_19
REMARK    4  A    between atoms: C_10  and  C_15
REMARK    5  A    between atoms: C_15  and  C_17
REMARK    6  A    between atoms: C_15  and  N_18
REMARK    7  A    between atoms: C_19  and  C_20
REMARK    8  A    between atoms: N_22  and  C_23
REMARK    9  A    between atoms: C_23  and  C_24
REMARK   10  A    between atoms: C_24  and  C_25
REMARK   11  A    between atoms: C_24  and  C_26
REMARK                            x       y       z     vdW  Elec       q    Type
REMARK                         _______ _______ _______ _____ _____    ______ ____
ROOT
ATOM      1  C   UNL     1      -7.836  -0.457  -2.078  0.00  0.00    +0.259 C 
ATOM      2  C   UNL     1      -6.454   0.132  -2.207  0.00  0.00    +0.261 C 
ATOM      3  O   UNL     1      -6.243   1.274  -1.858  0.00  0.00    -0.271 OA
ATOM      4  N   UNL     1      -5.452  -0.619  -2.712  0.00  0.00    -0.256 N 
ATOM      5  C   UNL     1      -5.745  -1.887  -3.232  0.00  0.00    +0.079 A 
ATOM      6  C   UNL     1      -4.724  -2.776  -3.533  0.00  0.00    +0.029 A 
ATOM      7  C   UNL     1      -5.029  -4.031  -4.028  0.00  0.00    -0.060 A 
ATOM      8  C   UNL     1      -6.347  -4.402  -4.218  0.00  0.00    +0.005 A 
ATOM      9  C   UNL     1      -7.369  -3.520  -3.920  0.00  0.00    +0.048 A 
ATOM     10  C   UNL     1      -7.072  -2.260  -3.429  0.00  0.00    +0.143 A 
ATOM     11  O   UNL     1      -8.068  -1.378  -3.146  0.00  0.00    -0.478 OA
ENDROOT
BRANCH   1  13
ATOM     12  C   UNL     1      -9.393  -1.679  -0.552  0.00  0.00    +0.008 C 
ATOM     13  C   UNL     1      -7.955  -1.188  -0.739  0.00  0.00    +0.051 C 
ENDBRANCH   1  13
BRANCH   7  14
ATOM     14  C   UNL     1      -3.920  -4.996  -4.362  0.00  0.00    -0.047 C 
ATOM     15  C   UNL     1      -3.668  -4.981  -5.871  0.00  0.00    -0.009 C 
BRANCH  14  16
ATOM     16  N   UNL     1      -4.308  -6.350  -3.944  0.00  0.00    +0.382 N 
ATOM     17  H   UNL     1      -3.499  -7.054  -4.188  0.00  0.00    -0.089 HD
ATOM     18  H   UNL     1      -5.225  -6.648  -4.472  0.00  0.00    -0.089 HD
ATOM     19  H   UNL     1      -4.489  -6.361  -2.859  0.00  0.00    -0.089 HD
ENDBRANCH  14  16
ENDBRANCH   7  14
BRANCH   4  20
ATOM     20  C   UNL     1      -4.078  -0.112  -2.723  0.00  0.00    +0.209 C 
BRANCH  20  21
ATOM     21  C   UNL     1      -3.387  -0.508  -1.443  0.00  0.00    +0.231 C 
ATOM     22  O   UNL     1      -3.983  -1.151  -0.606  0.00  0.00    -0.274 OA
ATOM     23  N   UNL     1      -2.105  -0.148  -1.230  0.00  0.00    -0.314 N 
ATOM     24  H   UNL     1      -1.564   0.435  -1.990  0.00  0.00    +0.149 HD
BRANCH  23  25
ATOM     25  C   UNL     1      -1.433  -0.534   0.013  0.00  0.00    +0.107 C 
BRANCH  25  26
ATOM     26  C   UNL     1       0.002  -0.004   0.002  0.00  0.00    -0.000 C 
ATOM     27  C   UNL     1      -0.019   1.526   0.010  0.00  0.00    +0.009 C 
ATOM     28  C   UNL     1       0.742  -0.511   1.242  0.00  0.00    +0.009 C 
ENDBRANCH  25  26
ENDBRANCH  23  25
ENDBRANCH  20  21
ENDBRANCH   4  20
TORSDOF 7
