REMARK  Name = ZINC36597587
REMARK  18 active torsions:
REMARK  status: ('A' for Active; 'I' for Inactive)
REMARK    1  A    between atoms: C_1  and  C_2
REMARK    2  A    between atoms: C_3  and  C_4
REMARK    3  A    between atoms: C_4  and  C_6
REMARK    4  A    between atoms: C_4  and  N_17
REMARK    5  A    between atoms: N_8  and  C_9
REMARK    6  A    between atoms: C_9  and  C_10
REMARK    7  A    between atoms: C_9  and  C_11
REMARK    8  A    between atoms: C_9  and  C_12
REMARK    9  A    between atoms: C_12  and  C_13
REMARK   10  A    between atoms: C_13  and  C_14
REMARK   11  A    between atoms: C_13  and  C_15
REMARK   12  A    between atoms: C_13  and  C_16
REMARK   13  A    between atoms: N_17  and  C_18
REMARK   14  A    between atoms: C_18  and  C_19
REMARK   15  A    between atoms: C_22  and  C_24
REMARK   16  A    between atoms: C_25  and  C_27
REMARK   17  A    between atoms: C_28  and  O_34
REMARK   18  A    between atoms: C_32  and  O_33
REMARK                            x       y       z     vdW  Elec       q    Type
REMARK                         _______ _______ _______ _____ _____    ______ ____
ROOT
ATOM      1  N   UNL     1      -0.730  -2.705   0.613  0.00  0.00    -0.275 N 
ATOM      2  C   UNL     1      -0.152  -3.095   1.766  0.00  0.00    +0.255 C 
ATOM      3  O   UNL     1      -0.757  -2.991   2.815  0.00  0.00    -0.270 OA
ENDROOT
BRANCH   2   4
ATOM      4  C   UNL     1       1.213  -3.648   1.754  0.00  0.00    +0.119 A 
ATOM      5  C   UNL     1       2.307  -2.837   2.091  0.00  0.00    +0.133 A 
ATOM      6  C   UNL     1       3.586  -3.368   2.078  0.00  0.00    +0.046 A 
ATOM      7  C   UNL     1       3.787  -4.692   1.735  0.00  0.00    +0.007 A 
ATOM      8  C   UNL     1       2.717  -5.500   1.401  0.00  0.00    +0.046 A 
ATOM      9  C   UNL     1       1.428  -4.992   1.413  0.00  0.00    +0.133 A 
BRANCH   9  10
ATOM     10  O   UNL     1       0.379  -5.789   1.091  0.00  0.00    -0.506 OA
ATOM     11  H   UNL     1       0.112  -5.732   0.163  0.00  0.00    +0.292 HD
ENDBRANCH   9  10
BRANCH   5  12
ATOM     12  O   UNL     1       2.112  -1.538   2.428  0.00  0.00    -0.506 OA
ATOM     13  H   UNL     1       1.967  -1.393   3.373  0.00  0.00    +0.292 HD
ENDBRANCH   5  12
ENDBRANCH   2   4
BRANCH   1  14
ATOM     14  C   UNL     1      -2.037  -2.044   0.636  0.00  0.00    +0.186 C 
BRANCH  14  15
ATOM     15  C   UNL     1      -3.042  -2.942   1.310  0.00  0.00    +0.238 C 
ATOM     16  O   UNL     1      -2.708  -4.041   1.700  0.00  0.00    -0.273 OA
ATOM     17  N   UNL     1      -4.312  -2.524   1.480  0.00  0.00    -0.308 N 
ATOM     18  H   UNL     1      -4.579  -1.645   1.168  0.00  0.00    +0.149 HD
BRANCH  17  19
ATOM     19  C   UNL     1      -5.289  -3.397   2.135  0.00  0.00    +0.030 C 
ATOM     20  C   UNL     1      -5.550  -4.621   1.255  0.00  0.00    +0.031 C 
ATOM     21  C   UNL     1      -4.740  -3.850   3.489  0.00  0.00    +0.031 C 
BRANCH  19  22
ATOM     22  C   UNL     1      -6.597  -2.631   2.345  0.00  0.00    +0.031 C 
BRANCH  22  23
ATOM     23  C   UNL     1      -6.291  -1.146   2.550  0.00  0.00    -0.036 C 
ATOM     24  C   UNL     1      -6.079  -0.477   1.190  0.00  0.00    +0.010 C 
ATOM     25  C   UNL     1      -7.464  -0.478   3.269  0.00  0.00    +0.010 C 
ATOM     26  C   UNL     1      -5.024  -0.997   3.394  0.00  0.00    +0.010 C 
ENDBRANCH  22  23
ENDBRANCH  19  22
ENDBRANCH  17  19
ENDBRANCH  14  15
BRANCH  14  29
ATOM     27  C   UNL     1      -0.671   0.899   2.686  0.00  0.00    +0.035 C 
ATOM     28  C   UNL     1      -0.762  -0.326   1.813  0.00  0.00    -0.032 C 
ATOM     29  C   UNL     1      -1.931  -0.748   1.397  0.00  0.00    +0.000 C 
ENDBRANCH  14  29
ENDBRANCH   1  14
BRANCH   1  30
ATOM     30  C   UNL     1      -0.051  -2.941  -0.664  0.00  0.00    +0.183 C 
BRANCH  30  31
ATOM     31  C   UNL     1       0.823  -1.758  -0.995  0.00  0.00    +0.122 A 
ATOM     32  C   UNL     1       2.113  -1.610  -0.643  0.00  0.00    +0.046 A 
ATOM     33  C   UNL     1       2.537  -0.363  -1.157  0.00  0.00    +0.045 A 
ATOM     34  C   UNL     1       1.481   0.176  -1.792  0.00  0.00    +0.102 A 
ATOM     35  O   UNL     1       0.447  -0.676  -1.696  0.00  0.00    -0.463 OA
ATOM     36  C   UNL     1       1.463   1.508  -2.497  0.00  0.00    +0.086 C 
ENDBRANCH  30  31
ENDBRANCH   1  30
TORSDOF 11
