REMARK  Name = ZINC67619113
REMARK  11 active torsions:
REMARK  status: ('A' for Active; 'I' for Inactive)
REMARK    1  A    between atoms: C_1  and  C_2
REMARK    2  A    between atoms: C_2  and  C_4
REMARK    3  A    between atoms: C_2  and  N_11
REMARK    4  A    between atoms: C_8  and  O_10
REMARK    5  A    between atoms: N_11  and  C_12
REMARK    6  A    between atoms: N_15  and  C_16
REMARK    7  A    between atoms: C_16  and  C_17
REMARK    8  A    between atoms: C_17  and  C_19
REMARK    9  A    between atoms: C_17  and  N_24
REMARK   10  A    between atoms: N_24  and  C_25
REMARK   11  A    between atoms: N_24  and  C_26
REMARK                            x       y       z     vdW  Elec       q    Type
REMARK                         _______ _______ _______ _____ _____    ______ ____
ROOT
ATOM      1  N   UNL     1      -1.033  -0.408  -0.018  0.00  0.00    -0.282 N 
ATOM      2  C   UNL     1      -1.876  -0.458  -1.216  0.00  0.00    +0.134 C 
ATOM      3  C   UNL     1      -1.532  -0.791   1.174  0.00  0.00    +0.302 C 
ATOM      4  O   UNL     1      -0.833  -0.749   2.167  0.00  0.00    -0.253 OA
ATOM      5  N   UNL     1      -2.807  -1.219   1.264  0.00  0.00    -0.300 N 
ATOM      6  H   UNL     1      -3.365  -1.252   0.472  0.00  0.00    +0.150 HD
ENDROOT
BRANCH   1   8
ATOM      7  C   UNL     1       0.383   1.431  -0.791  0.00  0.00    +0.033 C 
ATOM      8  C   UNL     1       0.353   0.057  -0.117  0.00  0.00    +0.104 C 
BRANCH   8   9
ATOM      9  C   UNL     1       1.154  -0.922  -0.936  0.00  0.00    -0.024 A 
ATOM     10  C   UNL     1       2.288  -1.505  -0.401  0.00  0.00    +0.006 A 
ATOM     11  C   UNL     1       3.025  -2.403  -1.149  0.00  0.00    +0.004 A 
ATOM     12  C   UNL     1       2.631  -2.720  -2.435  0.00  0.00    +0.045 A 
ATOM     13  C   UNL     1       1.495  -2.136  -2.975  0.00  0.00    +0.117 A 
ATOM     14  C   UNL     1       0.753  -1.239  -2.219  0.00  0.00    +0.050 A 
BRANCH  13  15
ATOM     15  O   UNL     1       1.105  -2.446  -4.239  0.00  0.00    -0.507 OA
ATOM     16  H   UNL     1       0.502  -3.200  -4.291  0.00  0.00    +0.292 HD
ENDBRANCH  13  15
ENDBRANCH   8   9
ENDBRANCH   1   8
BRANCH   5  17
ATOM     17  C   UNL     1      -3.350  -1.634   2.560  0.00  0.00    +0.095 C 
BRANCH  17  18
ATOM     18  C   UNL     1      -4.838  -1.958   2.410  0.00  0.00    -0.020 C 
BRANCH  18  19
ATOM     19  C   UNL     1      -5.005  -3.129   1.477  0.00  0.00    -0.052 A 
ATOM     20  C   UNL     1      -5.352  -2.928   0.154  0.00  0.00    +0.009 A 
ATOM     21  C   UNL     1      -5.495  -4.003  -0.659  0.00  0.00    +0.045 A 
ATOM     22  S   UNL     1      -5.136  -5.355   0.450  0.00  0.00    -0.105 S 
ATOM     23  C   UNL     1      -4.814  -4.395   1.921  0.00  0.00    +0.047 A 
ENDBRANCH  18  19
BRANCH  18  24
ATOM     24  N   UNL     1      -5.401  -2.294   3.724  0.00  0.00    +0.382 N 
ATOM     25  C   UNL     1      -5.324  -1.120   4.605  0.00  0.00    -0.096 C 
ATOM     26  C   UNL     1      -6.804  -2.698   3.567  0.00  0.00    -0.096 C 
ATOM     27  H   UNL     1      -4.876  -3.054   4.131  0.00  0.00    -0.082 HD
ENDBRANCH  18  24
ENDBRANCH  17  18
ENDBRANCH   5  17
TORSDOF 7
