REMARK  Name = ZINC00260654
REMARK  6 active torsions:
REMARK  status: ('A' for Active; 'I' for Inactive)
REMARK    1  A    between atoms: C_1  and  C_2
REMARK    2  A    between atoms: C_5  and  C_8
REMARK    3  A    between atoms: C_8  and  C_9
REMARK    4  A    between atoms: C_10  and  C_22
REMARK    5  A    between atoms: C_13  and  C_19
REMARK    6  A    between atoms: C_17  and  C_18
REMARK                            x       y       z     vdW  Elec       q    Type
REMARK                         _______ _______ _______ _____ _____    ______ ____
ROOT
ATOM      1  C   UNL     1       1.482  -4.755  -0.155  0.00  0.00    -0.001 A 
ATOM      2  C   UNL     1       2.107  -4.773  -1.407  0.00  0.00    +0.046 A 
ATOM      3  N   UNL     1       3.346  -5.199  -1.519  0.00  0.00    -0.232 NA
ATOM      4  C   UNL     1       4.024  -5.618  -0.451  0.00  0.00    +0.170 A 
ATOM      5  C   UNL     1       5.335  -6.115  -0.289  0.00  0.00    +0.127 A 
ATOM      6  C   UNL     1       5.497  -6.399   1.081  0.00  0.00    +0.152 A 
ATOM      7  N   UNL     1       4.388  -6.104   1.704  0.00  0.00    -0.172 NA
ATOM      8  N   UNL     1       3.450  -5.616   0.787  0.00  0.00    -0.218 N 
ATOM      9  C   UNL     1       2.169  -5.176   0.938  0.00  0.00    +0.047 A 
ATOM     10  C   UNL     1       1.522  -5.162   2.298  0.00  0.00    +0.066 C 
ATOM     11  C   UNL     1       1.359  -4.303  -2.628  0.00  0.00    +0.066 C 
ENDROOT
BRANCH   5  12
ATOM     12  C   UNL     1       6.302  -6.294  -1.310  0.00  0.00    +0.392 C 
ATOM     13  O   UNL     1       7.410  -6.737  -1.032  0.00  0.00    -0.240 OA
ATOM     14  O   UNL     1       6.030  -6.006  -2.469  0.00  0.00    -0.240 OA
ENDBRANCH   5  12
BRANCH   1  15
ATOM     15  C   UNL     1       0.062  -4.268  -0.020  0.00  0.00    +0.073 C 
BRANCH  15  20
ATOM     16  C   UNL     1       0.029   1.497   0.366  0.00  0.00    +0.044 C 
ATOM     17  C   UNL     1       0.037  -0.006   0.265  0.00  0.00    -0.050 A 
ATOM     18  C   UNL     1      -0.161  -0.618  -0.958  0.00  0.00    +0.003 A 
ATOM     19  C   UNL     1      -0.152  -1.997  -1.051  0.00  0.00    +0.004 A 
ATOM     20  C   UNL     1       0.054  -2.765   0.080  0.00  0.00    -0.043 A 
ATOM     21  C   UNL     1       0.253  -2.153   1.304  0.00  0.00    +0.004 A 
ATOM     22  C   UNL     1       0.249  -0.774   1.396  0.00  0.00    +0.003 A 
ENDBRANCH  15  20
ENDBRANCH   1  15
TORSDOF 3
