REMARK  Name = ZINC02899005
REMARK  11 active torsions:
REMARK  status: ('A' for Active; 'I' for Inactive)
REMARK    1  A    between atoms: CG1_1  and  CB_2
REMARK    2  A    between atoms: CB_2  and  CG2_3
REMARK    3  A    between atoms: CB_2  and  CA_4
REMARK    4  A    between atoms: CA_4  and  C_6
REMARK    5  A    between atoms: CA_4  and  N_8
REMARK    6  A    between atoms: C_10  and  CA_12
REMARK    7  A    between atoms: CA_12  and  N_22
REMARK    8  A    between atoms: C_13  and  C_14
REMARK    9  A    between atoms: C_17  and  O_20
REMARK   10  A    between atoms: O_20  and  C_21
REMARK   11  A    between atoms: C_23  and  C_25
REMARK                            x       y       z     vdW  Elec       q    Type
REMARK                         _______ _______ _______ _____ _____    ______ ____
ROOT
ATOM      1  CA  UNL     1       3.811   1.478   0.593  0.00  0.00    +0.097 C 
ATOM      2  C   UNL     1       3.803   2.562  -0.218  0.00  0.00    +0.036 C 
ENDROOT
BRANCH   2   3
ATOM      3  C   UNL     1       5.022   3.366  -0.383  0.00  0.00    -0.023 A 
ATOM      4  C   UNL     1       6.010   3.356   0.610  0.00  0.00    +0.011 A 
ATOM      5  C   UNL     1       7.153   4.106   0.448  0.00  0.00    +0.046 A 
ATOM      6  C   UNL     1       7.322   4.881  -0.693  0.00  0.00    +0.120 A 
ATOM      7  C   UNL     1       6.343   4.899  -1.679  0.00  0.00    +0.046 A 
ATOM      8  C   UNL     1       5.198   4.148  -1.530  0.00  0.00    +0.011 A 
BRANCH   6   9
ATOM      9  O   UNL     1       8.449   5.624  -0.845  0.00  0.00    -0.495 OA
ATOM     10  C   UNL     1       9.415   5.560   0.206  0.00  0.00    +0.277 C 
ENDBRANCH   6   9
ENDBRANCH   2   3
BRANCH   1  13
ATOM     11  N   UNL     1       1.385   1.266   0.441  0.00  0.00    -0.297 N 
ATOM     12  H   UNL     1       1.372   2.080  -0.087  0.00  0.00    +0.150 HD
ATOM     13  C   UNL     1       2.556   0.777   0.895  0.00  0.00    +0.259 C 
ATOM     14  O   UNL     1       2.574  -0.244   1.557  0.00  0.00    -0.269 OA
BRANCH  11  15
ATOM     15  CA  UNL     1       0.133   0.568   0.743  0.00  0.00    +0.189 C 
BRANCH  15  17
ATOM     16  CG1 UNL     1      -2.216   0.173  -0.011  0.00  0.00    +0.009 C 
ATOM     17  CB  UNL     1      -0.908   0.902  -0.327  0.00  0.00    +0.014 C 
ATOM     18  CG2 UNL     1      -1.157   2.412  -0.342  0.00  0.00    +0.009 C 
ENDBRANCH  15  17
BRANCH  15  19
ATOM     19  C   UNL     1      -0.373   1.007   2.092  0.00  0.00    +0.376 C 
ATOM     20  O   UNL     1       0.247   1.819   2.736  0.00  0.00    -0.244 OA
ATOM     21  OXT UNL     1      -1.515   0.495   2.580  0.00  0.00    -0.244 OA
ENDBRANCH  15  19
ENDBRANCH  11  15
ENDBRANCH   1  13
BRANCH   1  22
ATOM     22  N   UNL     1       5.016   1.023   1.141  0.00  0.00    -0.277 N 
ATOM     23  C   UNL     1       5.155   0.933   2.478  0.00  0.00    +0.249 C 
ATOM     24  O   UNL     1       4.269   1.330   3.210  0.00  0.00    -0.270 OA
ATOM     25  H   UNL     1       5.750   0.773   0.559  0.00  0.00    +0.155 HD
BRANCH  23  26
ATOM     26  C   UNL     1       6.386   0.353   3.055  0.00  0.00    +0.051 A 
ATOM     27  C   UNL     1       7.404  -0.108   2.218  0.00  0.00    +0.014 A 
ATOM     28  C   UNL     1       8.551  -0.644   2.763  0.00  0.00    +0.001 A 
ATOM     29  C   UNL     1       8.692  -0.735   4.137  0.00  0.00    +0.001 A 
ATOM     30  C   UNL     1       7.687  -0.285   4.973  0.00  0.00    +0.016 A 
ATOM     31  C   UNL     1       6.534   0.259   4.441  0.00  0.00    +0.030 A 
ATOM     32 BR   UNL     1       5.160   0.873   5.586  0.00  0.00    -0.050 Br
ENDBRANCH  23  26
ENDBRANCH   1  22
TORSDOF 8
