REMARK  Name = ZINC40880152
REMARK  6 active torsions:
REMARK  status: ('A' for Active; 'I' for Inactive)
REMARK    1  A    between atoms: C_1  and  C_2
REMARK    2  A    between atoms: C_4  and  C_19
REMARK    3  A    between atoms: C_6  and  O_10
REMARK    4  A    between atoms: C_7  and  C_8
REMARK    5  A    between atoms: C_8  and  O_9
REMARK    6  A    between atoms: O_10  and  C_11
REMARK                            x       y       z     vdW  Elec       q    Type
REMARK                         _______ _______ _______ _____ _____    ______ ____
ROOT
ATOM      1  C   UNL     1       0.596   1.464   0.002  0.00  0.00    +0.044 C 
ATOM      2  C   UNL     1       0.388  -0.028  -0.003  0.00  0.00    -0.038 A 
ATOM      3  C   UNL     1       0.264  -0.724  -1.198  0.00  0.00    +0.027 A 
ATOM      4  C   UNL     1       0.075  -2.091  -1.168  0.00  0.00    +0.042 A 
ATOM      5  N   UNL     1       0.010  -2.739  -0.021  0.00  0.00    -0.218 NA
ATOM      6  C   UNL     1       0.124  -2.112   1.139  0.00  0.00    +0.226 A 
ATOM      7  C   UNL     1       0.321  -0.738   1.183  0.00  0.00    +0.043 A 
ATOM      8  C   UNL     1      -0.060  -2.852  -2.461  0.00  0.00    +0.066 C 
ENDROOT
BRANCH   7   9
ATOM      9  C   UNL     1       0.456  -0.028   2.506  0.00  0.00    +0.196 C 
BRANCH   9  10
ATOM     10  O   UNL     1      -0.836   0.382   2.960  0.00  0.00    -0.390 OA
ATOM     11  H   UNL     1      -0.825   0.846   3.808  0.00  0.00    +0.210 HD
ENDBRANCH   9  10
ENDBRANCH   7   9
BRANCH   6  12
ATOM     12  O   UNL     1       0.051  -2.818   2.295  0.00  0.00    -0.436 OA
BRANCH  12  13
ATOM     13  C   UNL     1      -0.035  -4.172   2.211  0.00  0.00    +0.150 A 
ATOM     14  C   UNL     1      -1.277  -4.791   2.229  0.00  0.00    +0.048 A 
ATOM     15  C   UNL     1      -1.363  -6.168   2.144  0.00  0.00    +0.005 A 
ATOM     16  C   UNL     1      -0.213  -6.929   2.041  0.00  0.00    +0.022 A 
ATOM     17  C   UNL     1       1.027  -6.315   2.023  0.00  0.00    +0.063 A 
ATOM     18  C   UNL     1       1.118  -4.937   2.102  0.00  0.00    +0.101 A 
ATOM     19 CL   UNL     1       2.673  -4.166   2.072  0.00  0.00    -0.078 Cl
ATOM     20 CL   UNL     1       2.468  -7.275   1.895  0.00  0.00    -0.082 Cl
ENDBRANCH  12  13
ENDBRANCH   6  12
TORSDOF 4
