REMARK  Name = ZINC34928899
REMARK  9 active torsions:
REMARK  status: ('A' for Active; 'I' for Inactive)
REMARK    1  A    between atoms: C_1  and  C_2
REMARK    2  A    between atoms: C_2  and  C_3
REMARK    3  A    between atoms: C_3  and  N_4
REMARK    4  A    between atoms: N_7  and  C_8
REMARK    5  A    between atoms: N_7  and  C_18
REMARK    6  A    between atoms: C_8  and  C_9
REMARK    7  A    between atoms: C_12  and  O_15
REMARK    8  A    between atoms: O_15  and  C_16
REMARK    9  A    between atoms: C_16  and  C_17
REMARK                            x       y       z     vdW  Elec       q    Type
REMARK                         _______ _______ _______ _____ _____    ______ ____
ROOT
ATOM      1  N   UNL     1       1.173  -1.892  -1.206  0.00  0.00    -0.299 N 
ATOM      2  C   UNL     1       1.629  -2.632  -2.236  0.00  0.00    +0.303 C 
ATOM      3  O   UNL     1       2.154  -2.089  -3.189  0.00  0.00    -0.253 OA
ATOM      4  N   UNL     1       1.504  -3.974  -2.210  0.00  0.00    -0.276 N 
ATOM      5  H   UNL     1       0.686  -2.316  -0.482  0.00  0.00    +0.150 HD
ENDROOT
BRANCH   4   6
ATOM      6  C   UNL     1       0.776  -4.620  -1.115  0.00  0.00    +0.040 C 
ATOM      7  C   UNL     1       1.493  -4.342   0.208  0.00  0.00    +0.029 C 
ATOM      8  C   UNL     1       0.733  -5.017   1.352  0.00  0.00    -0.008 C 
ATOM      9  C   UNL     1      -0.690  -4.460   1.417  0.00  0.00    +0.007 C 
ATOM     10  C   UNL     1      -1.407  -4.739   0.094  0.00  0.00    -0.008 C 
ATOM     11  C   UNL     1      -0.648  -4.064  -1.050  0.00  0.00    +0.029 C 
ATOM     12  C   UNL     1      -1.460  -6.248  -0.150  0.00  0.00    +0.007 C 
ATOM     13  C   UNL     1      -0.036  -6.804  -0.215  0.00  0.00    -0.008 C 
ATOM     14  C   UNL     1       0.680  -6.526   1.108  0.00  0.00    +0.007 C 
ATOM     15  C   UNL     1       0.723  -6.129  -1.358  0.00  0.00    +0.029 C 
ENDBRANCH   4   6
BRANCH   1  16
ATOM     16  C   UNL     1       1.412  -0.447  -1.179  0.00  0.00    +0.105 C 
BRANCH  16  18
ATOM     17  C   UNL     1       1.045   1.658   0.116  0.00  0.00    +0.005 C 
ATOM     18  C   UNL     1       0.795   0.149   0.088  0.00  0.00    +0.015 C 
ENDBRANCH  16  18
ENDBRANCH   1  16
BRANCH   4  19
ATOM     19  C   UNL     1       2.095  -4.786  -3.276  0.00  0.00    +0.145 C 
BRANCH  19  20
ATOM     20  C   UNL     1       3.550  -5.030  -2.973  0.00  0.00    -0.030 A 
ATOM     21  C   UNL     1       4.499  -4.093  -3.338  0.00  0.00    +0.009 A 
ATOM     22  C   UNL     1       5.834  -4.315  -3.062  0.00  0.00    +0.046 A 
ATOM     23  C   UNL     1       6.223  -5.480  -2.417  0.00  0.00    +0.121 A 
ATOM     24  C   UNL     1       5.270  -6.419  -2.052  0.00  0.00    +0.046 A 
ATOM     25  C   UNL     1       3.935  -6.190  -2.326  0.00  0.00    +0.009 A 
BRANCH  23  26
ATOM     26  O   UNL     1       7.536  -5.701  -2.145  0.00  0.00    -0.492 OA
BRANCH  26  27
ATOM     27  C   UNL     1       7.863  -6.923  -1.479  0.00  0.00    +0.225 C 
ATOM     28  C   UNL     1       9.376  -6.994  -1.260  0.00  0.00    +0.048 C 
ENDBRANCH  26  27
ENDBRANCH  23  26
ENDBRANCH  19  20
ENDBRANCH   4  19
TORSDOF 7
