REMARK  Name = ZINC23425649
REMARK  3 active torsions:
REMARK  status: ('A' for Active; 'I' for Inactive)
REMARK    1  A    between atoms: C_1  and  C_2
REMARK    2  A    between atoms: C_5  and  N_9
REMARK    3  A    between atoms: C_26  and  N_32
REMARK                            x       y       z     vdW  Elec       q    Type
REMARK                         _______ _______ _______ _____ _____    ______ ____
ROOT
ATOM      1  N   UNL     1       0.059  -4.172  -0.022  0.00  0.00    -0.209 N 
ATOM      2  C   UNL     1       0.149  -4.907   1.097  0.00  0.00    +0.232 C 
ATOM      3  O   UNL     1       0.044  -4.470   2.222  0.00  0.00    -0.274 OA
ATOM      4  C   UNL     1       0.373  -6.352   0.712  0.00  0.00    +0.110 C 
ATOM      5  C   UNL     1       1.796  -6.797   1.002  0.00  0.00    +0.075 C 
ATOM      6  C   UNL     1       2.148  -6.581   2.446  0.00  0.00    +0.003 A 
ATOM      7  C   UNL     1       2.288  -5.288   2.923  0.00  0.00    +0.008 A 
ATOM      8  C   UNL     1       2.563  -5.049   4.254  0.00  0.00    +0.001 A 
ATOM      9  C   UNL     1       2.723  -6.110   5.126  0.00  0.00    +0.004 A 
ATOM     10  C   UNL     1       2.633  -7.402   4.653  0.00  0.00    +0.047 A 
ATOM     11  C   UNL     1       2.372  -7.642   3.307  0.00  0.00    +0.136 A 
ATOM     12  O   UNL     1       2.380  -8.925   2.876  0.00  0.00    -0.422 OA
ATOM     13  C   UNL     1       2.248  -9.220   1.571  0.00  0.00    +0.343 C 
ATOM     14  O   UNL     1       2.393 -10.386   1.248  0.00  0.00    -0.245 OA
ATOM     15  C   UNL     1       1.964  -8.251   0.625  0.00  0.00    +0.072 C 
ATOM     16  C   UNL     1       1.780  -8.555  -0.721  0.00  0.00    +0.070 C 
ATOM     17  S   UNL     1       1.360  -7.161  -1.740  0.00  0.00    -0.097 S 
ATOM     18  C   UNL     1       0.043  -6.363  -0.787  0.00  0.00    +0.152 C 
ATOM     19  C   UNL     1      -0.036  -4.896  -1.146  0.00  0.00    +0.240 C 
ATOM     20  O   UNL     1      -0.166  -4.449  -2.265  0.00  0.00    -0.274 OA
ENDROOT
BRANCH   1  25
ATOM     21  C   UNL     1      -0.020   1.503   0.014  0.00  0.00    +0.045 C 
ATOM     22  C   UNL     1       0.001  -0.004   0.004  0.00  0.00    -0.032 A 
ATOM     23  C   UNL     1      -1.131  -0.708  -0.361  0.00  0.00    +0.006 A 
ATOM     24  C   UNL     1      -1.115  -2.089  -0.370  0.00  0.00    +0.024 A 
ATOM     25  C   UNL     1       0.040  -2.771  -0.013  0.00  0.00    +0.045 A 
ATOM     26  C   UNL     1       1.176  -2.063   0.352  0.00  0.00    +0.044 A 
ATOM     27  C   UNL     1       1.156  -0.681   0.356  0.00  0.00    +0.046 A 
ATOM     28 CL   UNL     1       2.578   0.206   0.807  0.00  0.00    -0.083 Cl
ENDBRANCH   1  25
BRANCH  16  29
ATOM     29  N   UNL     1       1.908  -9.814  -1.248  0.00  0.00    -0.352 N 
ATOM     30  H   UNL     1       2.139 -10.560  -0.673  0.00  0.00    +0.143 HD
ATOM     31  H   UNL     1       1.766  -9.960  -2.197  0.00  0.00    +0.143 HD
ENDBRANCH  16  29
TORSDOF 2
