REMARK  Name = ZINC39690750
REMARK  8 active torsions:
REMARK  status: ('A' for Active; 'I' for Inactive)
REMARK    1  A    between atoms: C_1  and  C_2
REMARK    2  A    between atoms: C_2  and  C_3
REMARK    3  A    between atoms: C_3  and  C_5
REMARK    4  A    between atoms: C_3  and  C_6
REMARK    5  A    between atoms: C_6  and  C_7
REMARK    6  A    between atoms: C_11  and  C_20
REMARK    7  A    between atoms: N_22  and  C_23
REMARK    8  A    between atoms: C_23  and  C_24
REMARK                            x       y       z     vdW  Elec       q    Type
REMARK                         _______ _______ _______ _____ _____    ______ ____
ROOT
ATOM      1  C   UNL     1       1.197  -2.547  -2.317  0.00  0.00    +0.216 C 
ATOM      2  O   UNL     1       1.654  -1.678  -3.028  0.00  0.00    -0.276 OA
ATOM      3  N   UNL     1       1.242  -3.835  -2.713  0.00  0.00    -0.300 N 
ATOM      4  C   UNL     1       0.735  -5.025  -1.991  0.00  0.00    +0.121 C 
ATOM      5  C   UNL     1       0.117  -5.916  -3.092  0.00  0.00    +0.100 C 
ATOM      6  C   UNL     1       0.828  -5.489  -4.387  0.00  0.00    -0.004 C 
ATOM      7  C   UNL     1       1.806  -4.379  -3.971  0.00  0.00    +0.115 C 
ATOM      8  C   UNL     1       1.590  -6.668  -4.985  0.00  0.00    -0.010 C 
ATOM      9  C   UNL     1       2.241  -6.234  -6.302  0.00  0.00    -0.082 C 
ATOM     10  N   UNL     1       1.205  -5.771  -7.233  0.00  0.00    +0.379 N 
ATOM     11  C   UNL     1       0.540  -4.580  -6.691  0.00  0.00    -0.082 C 
ATOM     12  C   UNL     1      -0.183  -4.944  -5.391  0.00  0.00    -0.010 C 
ATOM     13  H   UNL     1       1.629  -5.544  -8.120  0.00  0.00    -0.086 HD
ATOM     14  H   UNL     1       0.524  -6.504  -7.367  0.00  0.00    -0.086 HD
ENDROOT
BRANCH   5  15
ATOM     15  C   UNL     1      -1.365  -5.666  -3.199  0.00  0.00    +0.218 C 
ATOM     16  O   UNL     1      -1.817  -4.573  -2.929  0.00  0.00    -0.275 OA
ATOM     17  N   UNL     1      -2.189  -6.657  -3.593  0.00  0.00    -0.311 N 
ATOM     18  H   UNL     1      -1.828  -7.531  -3.808  0.00  0.00    +0.149 HD
BRANCH  17  19
ATOM     19  C   UNL     1      -3.630  -6.414  -3.696  0.00  0.00    +0.140 C 
BRANCH  19  20
ATOM     20  C   UNL     1      -4.320  -7.673  -4.154  0.00  0.00    -0.016 A 
ATOM     21  C   UNL     1      -4.678  -7.822  -5.481  0.00  0.00    +0.006 A 
ATOM     22  C   UNL     1      -5.311  -8.977  -5.901  0.00  0.00    +0.000 A 
ATOM     23  C   UNL     1      -5.586  -9.984  -4.994  0.00  0.00    +0.001 A 
ATOM     24  C   UNL     1      -5.228  -9.836  -3.667  0.00  0.00    +0.015 A 
ATOM     25  C   UNL     1      -4.590  -8.682  -3.248  0.00  0.00    +0.023 A 
ATOM     26 BR   UNL     1      -4.095  -8.482  -1.434  0.00  0.00    -0.050 Br
ENDBRANCH  19  20
ENDBRANCH  17  19
ENDBRANCH   5  15
BRANCH   1  27
ATOM     27  C   UNL     1       0.578  -2.188  -0.990  0.00  0.00    +0.099 C 
BRANCH  27  28
ATOM     28  C   UNL     1       0.655  -0.674  -0.785  0.00  0.00    -0.006 C 
ATOM     29  C   UNL     1       2.120  -0.247  -0.677  0.00  0.00    +0.008 C 
BRANCH  28  31
ATOM     30  C   UNL     1      -0.114   1.227   0.642  0.00  0.00    +0.004 C 
ATOM     31  C   UNL     1      -0.083  -0.296   0.501  0.00  0.00    +0.000 C 
ENDBRANCH  28  31
ENDBRANCH  27  28
ENDBRANCH   1  27
TORSDOF 6
