REMARK  Name = ZINC65373509
REMARK  10 active torsions:
REMARK  status: ('A' for Active; 'I' for Inactive)
REMARK    1  A    between atoms: C_1  and  C_2
REMARK    2  A    between atoms: C_4  and  C_16
REMARK    3  A    between atoms: C_6  and  N_9
REMARK    4  A    between atoms: C_10  and  C_12
REMARK    5  A    between atoms: C_12  and  C_13
REMARK    6  A    between atoms: C_12  and  C_14
REMARK    7  A    between atoms: C_12  and  C_15
REMARK    8  A    between atoms: N_18  and  C_19
REMARK    9  A    between atoms: C_19  and  C_21
REMARK   10  A    between atoms: C_19  and  C_22
REMARK                            x       y       z     vdW  Elec       q    Type
REMARK                         _______ _______ _______ _____ _____    ______ ____
ROOT
ATOM      1  C   UNL     1      -0.018   1.503   0.010  0.00  0.00    +0.051 C 
ATOM      2  C   UNL     1       0.002  -0.004   0.002  0.00  0.00    -0.019 C 
ATOM      3  C   UNL     1      -1.040  -0.813   0.002  0.00  0.00    -0.002 C 
ATOM      4  C   UNL     1      -0.832  -2.293   0.006  0.00  0.00    +0.129 C 
ATOM      5  C   UNL     1       0.611  -2.647  -0.442  0.00  0.00    +0.151 C 
ATOM      6  S   UNL     1       1.440  -1.059  -0.018  0.00  0.00    -0.107 S 
ENDROOT
BRANCH   5   7
ATOM      7  N   UNL     1       1.155  -3.766   0.331  0.00  0.00    -0.302 N 
ATOM      8  C   UNL     1       1.806  -4.766  -0.296  0.00  0.00    +0.219 C 
ATOM      9  O   UNL     1       1.942  -4.738  -1.501  0.00  0.00    -0.275 OA
ATOM     10  H   UNL     1       1.046  -3.788   1.295  0.00  0.00    +0.150 HD
BRANCH   8  11
ATOM     11  C   UNL     1       2.366  -5.916   0.499  0.00  0.00    +0.039 C 
ATOM     12  C   UNL     1       3.051  -6.905  -0.446  0.00  0.00    +0.020 C 
ATOM     13  C   UNL     1       3.385  -5.389   1.512  0.00  0.00    +0.020 C 
ATOM     14  C   UNL     1       1.230  -6.624   1.241  0.00  0.00    +0.020 C 
ENDBRANCH   8  11
ENDBRANCH   5   7
BRANCH   4  15
ATOM     15  C   UNL     1      -1.815  -2.935  -0.938  0.00  0.00    +0.223 C 
ATOM     16  O   UNL     1      -1.415  -3.562  -1.896  0.00  0.00    -0.275 OA
ATOM     17  N   UNL     1      -3.139  -2.813  -0.718  0.00  0.00    -0.305 N 
ATOM     18  H   UNL     1      -3.459  -2.311   0.048  0.00  0.00    +0.149 HD
BRANCH  17  19
ATOM     19  C   UNL     1      -4.095  -3.437  -1.636  0.00  0.00    +0.137 C 
ATOM     20  C   UNL     1      -4.312  -4.896  -1.233  0.00  0.00    +0.036 C 
BRANCH  19  21
ATOM     21  C   UNL     1      -5.407  -2.698  -1.574  0.00  0.00    +0.145 A 
ATOM     22  H   UNL     1      -6.280  -3.068  -3.421  0.00  0.00    +0.190 HD
ATOM     23  N   UNL     1      -5.845  -1.993  -0.562  0.00  0.00    -0.218 NA
ATOM     24  C   UNL     1      -7.040  -1.481  -0.851  0.00  0.00    +0.245 A 
ATOM     25  N   UNL     1      -7.381  -1.854  -2.057  0.00  0.00    -0.161 NA
ATOM     26  N   UNL     1      -6.330  -2.644  -2.550  0.00  0.00    -0.261 N 
ENDBRANCH  19  21
ENDBRANCH  17  19
ENDBRANCH   4  15
TORSDOF 5
