REMARK  Name = ZINC21364529
REMARK  14 active torsions:
REMARK  status: ('A' for Active; 'I' for Inactive)
REMARK    1  A    between atoms: C_1  and  C_2
REMARK    2  A    between atoms: C_4  and  C_31
REMARK    3  A    between atoms: C_6  and  S_9
REMARK    4  A    between atoms: C_7  and  C_8
REMARK    5  A    between atoms: S_9  and  N_12
REMARK    6  A    between atoms: N_12  and  C_13
REMARK    7  A    between atoms: C_16  and  C_19
REMARK    8  A    between atoms: C_19  and  O_21
REMARK    9  A    between atoms: O_21  and  C_22
REMARK   10  A    between atoms: C_22  and  C_24
REMARK   11  A    between atoms: C_22  and  C_25
REMARK   12  A    between atoms: C_31  and  C_32
REMARK   13  A    between atoms: C_31  and  C_33
REMARK   14  A    between atoms: C_31  and  C_34
REMARK                            x       y       z     vdW  Elec       q    Type
REMARK                         _______ _______ _______ _____ _____    ______ ____
ROOT
ATOM      1  C   UNL     1       3.979  -0.945   2.563  0.00  0.00    +0.048 A 
ATOM      2  C   UNL     1       4.774   0.169   2.821  0.00  0.00    +0.025 A 
ATOM      3  C   UNL     1       4.675   0.821   4.023  0.00  0.00    +0.017 A 
ATOM      4  C   UNL     1       3.782   0.359   4.995  0.00  0.00    +0.059 A 
ATOM      5  C   UNL     1       2.989  -0.763   4.736  0.00  0.00    +0.017 A 
ATOM      6  C   UNL     1       3.089  -1.407   3.530  0.00  0.00    +0.025 A 
ENDROOT
BRANCH   1   7
ATOM      7  N   UNL     1       4.078  -1.600   1.342  0.00  0.00    -0.216 N 
ATOM      8  H   UNL     1       4.150  -2.698   1.310  0.00  0.00    +0.174 HD
BRANCH   7   9
ATOM      9  S   UNL     1       4.088  -0.729  -0.067  0.00  0.00    +0.073 S 
ATOM     10  O   UNL     1       4.083  -1.674  -1.129  0.00  0.00    -0.150 OA
ATOM     11  O   UNL     1       5.102   0.256   0.072  0.00  0.00    -0.150 OA
BRANCH   9  17
ATOM     12  C   UNL     1      -1.125  -0.657  -0.440  0.00  0.00    +0.044 C 
ATOM     13  C   UNL     1       0.167   0.110  -0.327  0.00  0.00    -0.045 A 
ATOM     14  C   UNL     1       0.150   1.492  -0.293  0.00  0.00    +0.008 A 
ATOM     15  C   UNL     1       1.335   2.195  -0.189  0.00  0.00    -0.040 A 
ATOM     16  C   UNL     1       2.538   1.517  -0.121  0.00  0.00    +0.033 A 
ATOM     17  C   UNL     1       2.555   0.135  -0.155  0.00  0.00    +0.112 A 
ATOM     18  C   UNL     1       1.369  -0.568  -0.258  0.00  0.00    -0.021 A 
ATOM     19  C   UNL     1       1.388  -2.075  -0.296  0.00  0.00    +0.046 C 
BRANCH  15  20
ATOM     20  C   UNL     1       1.317   3.702  -0.152  0.00  0.00    -0.013 C 
ATOM     21  C   UNL     1      -0.128   4.197  -0.243  0.00  0.00    +0.015 C 
ATOM     22  C   UNL     1       1.940   4.187   1.159  0.00  0.00    +0.015 C 
ATOM     23  C   UNL     1       2.119   4.251  -1.333  0.00  0.00    +0.015 C 
ENDBRANCH  15  20
ENDBRANCH   9  17
ENDBRANCH   7   9
ENDBRANCH   1   7
BRANCH   4  24
ATOM     24  C   UNL     1       3.676   1.055   6.290  0.00  0.00    +0.340 C 
ATOM     25  O   UNL     1       2.899   0.653   7.134  0.00  0.00    -0.245 OA
BRANCH  24  26
ATOM     26  O   UNL     1       4.441   2.136   6.539  0.00  0.00    -0.449 OA
BRANCH  26  27
ATOM     27  C   UNL     1       4.284   2.771   7.836  0.00  0.00    +0.259 C 
ATOM     28  C   UNL     1       3.200   3.846   7.749  0.00  0.00    +0.062 C 
BRANCH  27  29
ATOM     29  C   UNL     1       5.589   3.404   8.246  0.00  0.00    +0.261 C 
ATOM     30  O   UNL     1       6.529   3.407   7.480  0.00  0.00    -0.271 OA
ATOM     31  N   UNL     1       5.711   3.967   9.464  0.00  0.00    -0.237 N 
ATOM     32  C   UNL     1       6.877   4.533   9.832  0.00  0.00    +0.303 C 
ATOM     33  O   UNL     1       7.819   4.537   9.064  0.00  0.00    -0.253 OA
ATOM     34  N   UNL     1       6.999   5.096  11.050  0.00  0.00    -0.313 N 
ATOM     35  H   UNL     1       4.858   3.964  10.159  0.00  0.00    +0.159 HD
ATOM     36  H   UNL     1       7.951   5.558  11.350  0.00  0.00    +0.146 HD
ATOM     37  H   UNL     1       6.146   5.093  11.745  0.00  0.00    +0.146 HD
ENDBRANCH  27  29
ENDBRANCH  26  27
ENDBRANCH  24  26
ENDBRANCH   4  24
TORSDOF 8
