REMARK  Name = ZINC24960934
REMARK  5 active torsions:
REMARK  status: ('A' for Active; 'I' for Inactive)
REMARK    1  A    between atoms: C_5  and  S_7
REMARK    2  A    between atoms: S_7  and  N_10
REMARK    3  A    between atoms: N_10  and  C_11
REMARK    4  A    between atoms: C_11  and  C_12
REMARK    5  A    between atoms: C_12  and  C_13
REMARK                            x       y       z     vdW  Elec       q    Type
REMARK                         _______ _______ _______ _____ _____    ______ ____
ROOT
ATOM      1  C   UNL     1      -3.572   6.054  -0.250  0.00  0.00    +0.217 C 
ATOM      2  O   UNL     1      -3.887   6.504   0.832  0.00  0.00    -0.276 OA
ATOM      3  N   UNL     1      -2.598   5.127  -0.337  0.00  0.00    -0.301 N 
ATOM      4  C   UNL     1      -1.909   4.652   0.871  0.00  0.00    +0.110 C 
ATOM      5  C   UNL     1      -0.398   4.828   0.676  0.00  0.00    +0.054 C 
ATOM      6  C   UNL     1       0.030   4.145  -0.618  0.00  0.00    +0.115 C 
ATOM      7  C   UNL     1      -0.695   4.750  -1.816  0.00  0.00    +0.054 C 
ATOM      8  C   UNL     1      -2.207   4.573  -1.640  0.00  0.00    +0.110 C 
ATOM      9  C   UNL     1       1.527   4.252  -0.799  0.00  0.00    +0.244 C 
ATOM     10  O   UNL     1       2.182   5.266  -0.908  0.00  0.00    -0.273 OA
ATOM     11  N   UNL     1       1.980   2.981  -0.813  0.00  0.00    -0.238 N 
ATOM     12  C   UNL     1       0.982   2.100  -0.667  0.00  0.00    +0.307 C 
ATOM     13  O   UNL     1       1.141   0.896  -0.648  0.00  0.00    -0.252 OA
ATOM     14  N   UNL     1      -0.219   2.699  -0.549  0.00  0.00    -0.285 N 
ATOM     15  H   UNL     1       3.054   2.781  -0.935  0.00  0.00    +0.159 HD
ATOM     16  H   UNL     1      -1.245   2.323  -0.423  0.00  0.00    +0.151 HD
ENDROOT
BRANCH   1  17
ATOM     17  C   UNL     1      -4.271   6.532  -1.497  0.00  0.00    +0.113 C 
BRANCH  17  18
ATOM     18  C   UNL     1      -5.325   7.576  -1.123  0.00  0.00    +0.115 C 
BRANCH  18  19
ATOM     19  N   UNL     1      -6.005   8.040  -2.335  0.00  0.00    -0.189 NA
ATOM     20  H   UNL     1      -5.492   7.987  -3.307  0.00  0.00    +0.148 HD
BRANCH  19  21
ATOM     21  S   UNL     1      -7.434   8.869  -2.218  0.00  0.00    +0.059 S 
ATOM     22  O   UNL     1      -7.816   9.208  -3.543  0.00  0.00    -0.153 OA
ATOM     23  O   UNL     1      -8.271   8.114  -1.353  0.00  0.00    -0.153 OA
BRANCH  21  28
ATOM     24  C   UNL     1      -7.383  11.829   0.498  0.00  0.00    +0.002 A 
ATOM     25  C   UNL     1      -6.551  12.765  -0.088  0.00  0.00    +0.001 A 
ATOM     26  C   UNL     1      -5.989  12.512  -1.325  0.00  0.00    +0.017 A 
ATOM     27  C   UNL     1      -6.258  11.322  -1.976  0.00  0.00    +0.044 A 
ATOM     28  C   UNL     1      -7.090  10.385  -1.389  0.00  0.00    +0.119 A 
ATOM     29  C   UNL     1      -7.656  10.642  -0.154  0.00  0.00    +0.029 A 
ATOM     30 BR   UNL     1      -5.490  10.975  -3.669  0.00  0.00    -0.048 Br
ENDBRANCH  21  28
ENDBRANCH  19  21
ENDBRANCH  18  19
ENDBRANCH  17  18
ENDBRANCH   1  17
TORSDOF 5
