REMARK  Name = ZINC01510804
REMARK  4 active torsions:
REMARK  status: ('A' for Active; 'I' for Inactive)
REMARK    1  A    between atoms: C_3  and  N_29
REMARK    2  A    between atoms: C_6  and  C_7
REMARK    3  A    between atoms: C_16  and  C_19
REMARK    4  A    between atoms: C_19  and  N_20
REMARK                            x       y       z     vdW  Elec       q    Type
REMARK                         _______ _______ _______ _____ _____    ______ ____
ROOT
ATOM      1  C   UNL     1       0.009   5.458  -1.235  0.00  0.00    -0.003 C 
ATOM      2  C   UNL     1      -1.326   6.204  -1.223  0.00  0.00    +0.015 C 
ATOM      3  C   UNL     1      -2.113   5.821   0.032  0.00  0.00    -0.009 C 
ATOM      4  C   UNL     1      -1.306   6.199   1.276  0.00  0.00    +0.007 C 
ATOM      5  C   UNL     1       0.029   5.452   1.264  0.00  0.00    -0.009 C 
ATOM      6  C   UNL     1       0.816   5.836   0.009  0.00  0.00    +0.015 C 
ATOM      7  C   UNL     1      -0.230   3.944   1.262  0.00  0.00    +0.012 C 
ATOM      8  C   UNL     1      -1.037   3.566   0.018  0.00  0.00    -0.012 C 
ATOM      9  C   UNL     1      -2.372   4.313   0.031  0.00  0.00    +0.012 C 
ATOM     10  C   UNL     1      -0.249   3.950  -1.236  0.00  0.00    +0.020 C 
ENDROOT
BRANCH   1  16
ATOM     11  C   UNL     1       1.148   4.863  -3.383  0.00  0.00    +0.006 A 
ATOM     12  C   UNL     1       1.855   5.210  -4.519  0.00  0.00    +0.033 A 
ATOM     13  C   UNL     1       2.208   6.529  -4.737  0.00  0.00    +0.126 A 
ATOM     14  C   UNL     1       1.849   7.501  -3.822  0.00  0.00    +0.033 A 
ATOM     15  C   UNL     1       1.137   7.154  -2.689  0.00  0.00    +0.006 A 
ATOM     16  C   UNL     1       0.785   5.836  -2.471  0.00  0.00    -0.041 A 
BRANCH  13  17
ATOM     17  N   UNL     1       2.970   6.900  -5.950  0.00  0.00    +0.056 N 
ATOM     18  O   UNL     1       3.281   8.062  -6.143  0.00  0.00    -0.126 OA
ATOM     19  O   UNL     1       3.287   6.043  -6.757  0.00  0.00    -0.126 OA
ENDBRANCH  13  17
ENDBRANCH   1  16
BRANCH   8  20
ATOM     20  C   UNL     1      -1.295   2.058   0.017  0.00  0.00    +0.112 C 
BRANCH  20  21
ATOM     21  N   UNL     1      -0.017   1.344   0.005  0.00  0.00    -0.299 N 
ATOM     22  C   UNL     1       0.002  -0.004   0.002  0.00  0.00    +0.302 C 
ATOM     23  O   UNL     1      -1.037  -0.627   0.104  0.00  0.00    -0.253 OA
ATOM     24  N   UNL     1       1.173  -0.661  -0.114  0.00  0.00    -0.281 N 
ATOM     25  C   UNL     1       2.452   0.066  -0.131  0.00  0.00    +0.137 C 
ATOM     26  C   UNL     1       3.388  -0.586   0.899  0.00  0.00    +0.179 C 
ATOM     27  O   UNL     1       3.454  -1.992   0.648  0.00  0.00    -0.377 OA
ATOM     28  C   UNL     1       2.206  -2.672   0.795  0.00  0.00    +0.179 C 
ATOM     29  C   UNL     1       1.210  -2.128  -0.235  0.00  0.00    +0.137 C 
ATOM     30  H   UNL     1       0.817   1.840  -0.004  0.00  0.00    +0.150 HD
ENDBRANCH  20  21
ENDBRANCH   8  20
TORSDOF 4
