REMARK  Name = ZINC40158628
REMARK  11 active torsions:
REMARK  status: ('A' for Active; 'I' for Inactive)
REMARK    1  A    between atoms: C_1  and  C_2
REMARK    2  A    between atoms: N_8  and  C_9
REMARK    3  A    between atoms: C_12  and  C_15
REMARK    4  A    between atoms: C_15  and  O_17
REMARK    5  A    between atoms: O_17  and  C_18
REMARK    6  A    between atoms: C_18  and  C_20
REMARK    7  A    between atoms: C_18  and  C_21
REMARK    8  A    between atoms: C_21  and  C_23
REMARK    9  A    between atoms: C_26  and  N_29
REMARK   10  A    between atoms: N_29  and  S_30
REMARK   11  A    between atoms: S_30  and  C_33
REMARK                            x       y       z     vdW  Elec       q    Type
REMARK                         _______ _______ _______ _____ _____    ______ ____
ROOT
ATOM      1  O   UNL     1       1.254  -0.429   7.489  0.00  0.00    -0.450 OA
ENDROOT
BRANCH   1   2
ATOM      2  C   UNL     1       1.219   0.563   6.577  0.00  0.00    +0.340 C 
ATOM      3  O   UNL     1       0.963   1.699   6.925  0.00  0.00    -0.245 OA
BRANCH   2   7
ATOM      4  C   UNL     1       2.000  -0.280   2.490  0.00  0.00    +0.051 A 
ATOM      5  C   UNL     1       1.707   1.021   2.886  0.00  0.00    +0.027 A 
ATOM      6  C   UNL     1       1.453   1.298   4.210  0.00  0.00    +0.017 A 
ATOM      7  C   UNL     1       1.490   0.270   5.157  0.00  0.00    +0.059 A 
ATOM      8  C   UNL     1       1.785  -1.036   4.755  0.00  0.00    +0.017 A 
ATOM      9  C   UNL     1       2.033  -1.306   3.429  0.00  0.00    +0.027 A 
BRANCH   4  17
ATOM     10  C   UNL     1       4.747  -1.193   1.387  0.00  0.00    +0.065 C 
ATOM     11  C   UNL     1       3.472  -0.968   0.615  0.00  0.00    +0.041 A 
ATOM     12  C   UNL     1       3.312  -1.133  -0.693  0.00  0.00    +0.109 A 
ATOM     13  N   UNL     1       1.996  -0.823  -1.004  0.00  0.00    -0.312 N 
ATOM     14  H   UNL     1       1.596  -0.855  -1.887  0.00  0.00    +0.170 HD
ATOM     15  C   UNL     1       1.369  -0.470   0.136  0.00  0.00    +0.331 A 
ATOM     16  O   UNL     1       0.203  -0.136   0.236  0.00  0.00    -0.246 OA
ATOM     17  N   UNL     1       2.257  -0.557   1.146  0.00  0.00    -0.266 N 
ENDBRANCH   4  17
ENDBRANCH   2   7
ENDBRANCH   1   2
BRANCH   1  18
ATOM     18  C   UNL     1       0.982  -0.073   8.845  0.00  0.00    +0.244 C 
ATOM     19  C   UNL     1      -0.519  -0.196   9.113  0.00  0.00    +0.061 C 
BRANCH  18  20
ATOM     20  C   UNL     1       1.734  -0.998   9.768  0.00  0.00    +0.203 C 
ATOM     21  O   UNL     1       2.209  -2.028   9.339  0.00  0.00    -0.288 OA
BRANCH  20  22
ATOM     22  C   UNL     1       1.891  -0.651  11.185  0.00  0.00    +0.021 A 
ATOM     23  C   UNL     1       1.338   0.535  11.684  0.00  0.00    +0.013 A 
ATOM     24  C   UNL     1       1.487   0.853  13.004  0.00  0.00    +0.025 A 
ATOM     25  C   UNL     1       2.187  -0.000  13.854  0.00  0.00    +0.048 A 
ATOM     26  C   UNL     1       2.739  -1.181  13.361  0.00  0.00    +0.025 A 
ATOM     27  C   UNL     1       2.590  -1.510  12.044  0.00  0.00    +0.013 A 
BRANCH  25  28
ATOM     28  N   UNL     1       2.336   0.327  15.195  0.00  0.00    -0.221 N 
ATOM     29  H   UNL     1       3.189   0.652  15.523  0.00  0.00    +0.173 HD
BRANCH  28  30
ATOM     30  S   UNL     1       1.058   0.163  16.234  0.00  0.00    +0.040 S 
ATOM     31  O   UNL     1       1.560   0.581  17.496  0.00  0.00    -0.155 OA
ATOM     32  O   UNL     1      -0.009   0.866  15.611  0.00  0.00    -0.155 OA
ATOM     33  C   UNL     1       0.703  -1.615  16.261  0.00  0.00    +0.218 C 
ENDBRANCH  28  30
ENDBRANCH  25  28
ENDBRANCH  20  22
ENDBRANCH  18  20
ENDBRANCH   1  18
TORSDOF 8
