REMARK  Name = ZINC27299516
REMARK  9 active torsions:
REMARK  status: ('A' for Active; 'I' for Inactive)
REMARK    1  A    between atoms: C_1  and  C_2
REMARK    2  A    between atoms: C_2  and  O_3
REMARK    3  A    between atoms: O_3  and  C_4
REMARK    4  A    between atoms: C_7  and  C_10
REMARK    5  A    between atoms: C_11  and  C_25
REMARK    6  A    between atoms: N_14  and  C_15
REMARK    7  A    between atoms: N_21  and  C_22
REMARK    8  A    between atoms: C_22  and  C_23
REMARK    9  A    between atoms: C_23  and  O_24
REMARK                            x       y       z     vdW  Elec       q    Type
REMARK                         _______ _______ _______ _____ _____    ______ ____
ROOT
ATOM      1  C   UNL     1       3.664   2.144  -0.022  0.00  0.00    +0.061 A 
ATOM      2  C   UNL     1       4.847   1.502   0.073  0.00  0.00    +0.014 A 
ATOM      3  S   UNL     1       6.012   2.853   0.009  0.00  0.00    -0.056 S 
ATOM      4  C   UNL     1       4.835   4.189  -0.132  0.00  0.00    +0.152 A 
ATOM      5  N   UNL     1       5.054   5.488  -0.220  0.00  0.00    -0.336 N 
ATOM      6  N   UNL     1       3.641   3.508  -0.124  0.00  0.00    -0.318 N 
ATOM      7  C   UNL     1       5.115   0.024   0.198  0.00  0.00    +0.054 C 
ATOM      8  H   UNL     1       4.207   6.190  -0.218  0.00  0.00    +0.168 HD
ENDROOT
BRANCH   1  12
ATOM      9  C   UNL     1       0.029  -0.058   0.014  0.00  0.00    +0.121 A 
ATOM     10  C   UNL     1       0.953  -0.231   1.035  0.00  0.00    +0.046 A 
ATOM     11  C   UNL     1       2.134   0.481   1.027  0.00  0.00    +0.013 A 
ATOM     12  C   UNL     1       2.399   1.377  -0.010  0.00  0.00    -0.000 A 
ATOM     13  C   UNL     1       1.468   1.548  -1.035  0.00  0.00    +0.013 A 
ATOM     14  C   UNL     1       0.289   0.832  -1.019  0.00  0.00    +0.046 A 
BRANCH   9  15
ATOM     15  O   UNL     1      -1.134  -0.762   0.025  0.00  0.00    -0.492 OA
BRANCH  15  17
ATOM     16  C   UNL     1      -3.282  -1.409  -0.872  0.00  0.00    +0.048 C 
ATOM     17  C   UNL     1      -2.040  -0.535  -1.056  0.00  0.00    +0.225 C 
ENDBRANCH  15  17
ENDBRANCH   9  15
ENDBRANCH   1  12
BRANCH   5  18
ATOM     18  C   UNL     1       6.333   5.960  -0.313  0.00  0.00    +0.041 A 
ATOM     19  C   UNL     1       7.085   6.184   0.843  0.00  0.00    +0.025 A 
ATOM     20  C   UNL     1       8.377   6.656   0.741  0.00  0.00    +0.002 A 
ATOM     21  C   UNL     1       8.925   6.919  -0.502  0.00  0.00    +0.000 A 
ATOM     22  C   UNL     1       8.185   6.705  -1.651  0.00  0.00    +0.002 A 
ATOM     23  C   UNL     1       6.894   6.228  -1.565  0.00  0.00    +0.025 A 
ENDBRANCH   5  18
BRANCH   6  24
ATOM     24  C   UNL     1       2.369   4.228  -0.223  0.00  0.00    +0.152 C 
BRANCH  24  25
ATOM     25  C   UNL     1       1.932   4.685   1.171  0.00  0.00    +0.177 C 
BRANCH  25  26
ATOM     26  O   UNL     1       0.692   5.388   1.074  0.00  0.00    -0.393 OA
ATOM     27  H   UNL     1       0.218   5.795   1.980  0.00  0.00    +0.209 HD
ENDBRANCH  25  26
ENDBRANCH  24  25
ENDBRANCH   6  24
TORSDOF 7
