REMARK  Name = ZINC39628386
REMARK  8 active torsions:
REMARK  status: ('A' for Active; 'I' for Inactive)
REMARK    1  A    between atoms: C_1  and  C_2
REMARK    2  A    between atoms: N_8  and  C_9
REMARK    3  A    between atoms: C_9  and  C_10
REMARK    4  A    between atoms: C_10  and  C_11
REMARK    5  A    between atoms: C_11  and  N_12
REMARK    6  A    between atoms: C_13  and  C_15
REMARK    7  A    between atoms: C_26  and  C_28
REMARK    8  A    between atoms: C_31  and  C_35
REMARK                            x       y       z     vdW  Elec       q    Type
REMARK                         _______ _______ _______ _____ _____    ______ ____
ROOT
ATOM      1  C   UNL     1       1.846   0.079   8.783  0.00  0.00    +0.100 C 
ATOM      2  C   UNL     1       1.625  -1.450   8.829  0.00  0.00    +0.121 C 
ATOM      3  N   UNL     1       1.387  -1.750  10.261  0.00  0.00    -0.296 N 
ATOM      4  C   UNL     1       0.553  -0.622  10.741  0.00  0.00    +0.115 C 
ATOM      5  C   UNL     1       1.141   0.619  10.038  0.00  0.00    -0.004 C 
ATOM      6  C   UNL     1       0.023   1.580   9.645  0.00  0.00    -0.010 C 
ATOM      7  C   UNL     1      -0.625   2.148  10.910  0.00  0.00    -0.082 C 
ATOM      8  N   UNL     1       0.389   2.846  11.710  0.00  0.00    +0.379 N 
ATOM      9  C   UNL     1       1.411   1.895  12.163  0.00  0.00    -0.082 C 
ATOM     10  C   UNL     1       2.145   1.316  10.950  0.00  0.00    -0.010 C 
ATOM     11  C   UNL     1       1.829  -2.809  10.967  0.00  0.00    +0.249 C 
ATOM     12  O   UNL     1       1.471  -2.965  12.118  0.00  0.00    -0.270 OA
ATOM     13  H   UNL     1       0.823   3.563  11.149  0.00  0.00    -0.086 HD
ATOM     14  H   UNL     1      -0.052   3.271  12.512  0.00  0.00    -0.086 HD
ENDROOT
BRANCH  11  15
ATOM     15  C   UNL     1       2.750  -3.781  10.343  0.00  0.00    +0.072 A 
ATOM     16  C   UNL     1       2.627  -4.093   8.987  0.00  0.00    +0.016 A 
ATOM     17  C   UNL     1       3.490  -5.000   8.410  0.00  0.00    +0.013 A 
ATOM     18  C   UNL     1       4.477  -5.604   9.170  0.00  0.00    +0.058 A 
ATOM     19  C   UNL     1       4.606  -5.302  10.513  0.00  0.00    +0.051 A 
ATOM     20  C   UNL     1       3.752  -4.389  11.105  0.00  0.00    +0.136 A 
ATOM     21  F   UNL     1       3.882  -4.090  12.416  0.00  0.00    -0.205 F 
BRANCH  18  22
ATOM     22  C   UNL     1       5.415  -6.595   8.531  0.00  0.00    +0.418 C 
ATOM     23  F   UNL     1       6.536  -5.922   8.033  0.00  0.00    -0.166 F 
ATOM     24  F   UNL     1       5.821  -7.535   9.484  0.00  0.00    -0.166 F 
ATOM     25  F   UNL     1       4.759  -7.248   7.482  0.00  0.00    -0.166 F 
ENDBRANCH  18  22
ENDBRANCH  11  15
BRANCH   1  27
ATOM     26  N   UNL     1       1.741   1.776   6.986  0.00  0.00    -0.315 N 
ATOM     27  C   UNL     1       1.224   0.661   7.540  0.00  0.00    +0.218 C 
ATOM     28  O   UNL     1       0.257   0.128   7.038  0.00  0.00    -0.275 OA
ATOM     29  H   UNL     1       2.514   2.203   7.387  0.00  0.00    +0.149 HD
BRANCH  26  30
ATOM     30  C   UNL     1       1.136   2.342   5.777  0.00  0.00    +0.102 C 
BRANCH  30  31
ATOM     31  C   UNL     1       1.909   3.594   5.359  0.00  0.00    +0.000 C 
BRANCH  31  32
ATOM     32  C   UNL     1       1.277   4.185   4.097  0.00  0.00    -0.077 C 
BRANCH  32  39
ATOM     33  C   UNL     1      -0.106   6.336   2.937  0.00  0.00    -0.013 C 
ATOM     34  C   UNL     1       1.343   6.021   2.557  0.00  0.00    -0.072 C 
ATOM     35  C   UNL     1       2.066   7.317   2.186  0.00  0.00    -0.016 C 
ATOM     36  C   UNL     1       3.514   6.997   1.807  0.00  0.00    -0.003 C 
ATOM     37  C   UNL     1       4.189   6.269   2.974  0.00  0.00    -0.019 C 
ATOM     38  C   UNL     1       3.387   5.012   3.315  0.00  0.00    -0.078 C 
ATOM     39  N   UNL     1       2.019   5.388   3.695  0.00  0.00    +0.381 N 
ATOM     40  H   UNL     1       2.052   6.035   4.468  0.00  0.00    -0.081 HD
ENDBRANCH  32  39
ENDBRANCH  31  32
ENDBRANCH  30  31
ENDBRANCH  26  30
ENDBRANCH   1  27
TORSDOF 7
