REMARK  Name = ZINC06863676
REMARK  3 active torsions:
REMARK  status: ('A' for Active; 'I' for Inactive)
REMARK    1  A    between atoms: C_5  and  C_7
REMARK    2  A    between atoms: N_8  and  N_9
REMARK    3  A    between atoms: C_10  and  C_12
REMARK                            x       y       z     vdW  Elec       q    Type
REMARK                         _______ _______ _______ _____ _____    ______ ____
ROOT
ATOM      1  N   UNL     1      -3.710   0.016   0.020  0.00  0.00    -0.200 N 
ATOM      2  C   UNL     1      -3.697  -1.332   0.012  0.00  0.00    +0.302 C 
ATOM      3  O   UNL     1      -2.639  -1.930   0.004  0.00  0.00    -0.265 OA
ATOM      4  H   UNL     1      -4.667   0.557   0.027  0.00  0.00    +0.178 HD
ENDROOT
BRANCH   2   5
ATOM      5  C   UNL     1      -4.970  -2.083   0.014  0.00  0.00    +0.238 A 
ATOM      6  N   UNL     1      -6.205  -1.548   0.029  0.00  0.00    -0.211 NA
ATOM      7  C   UNL     1      -7.058  -2.540   0.022  0.00  0.00    +0.216 A 
ATOM      8  N   UNL     1      -6.351  -3.685   0.012  0.00  0.00    -0.265 N 
ATOM      9  H   UNL     1      -6.873  -4.654   0.010  0.00  0.00    +0.190 HD
ATOM     10  N   UNL     1      -5.097  -3.392   0.007  0.00  0.00    -0.148 NA
ENDBRANCH   2   5
BRANCH   1  12
ATOM     11  C   UNL     1      -2.515   2.026   0.025  0.00  0.00    +0.139 C 
ATOM     12  N   UNL     1      -2.503   0.728   0.018  0.00  0.00    -0.187 NA
BRANCH  11  17
ATOM     13  C   UNL     1      -0.062   4.866   0.029  0.00  0.00    +0.001 A 
ATOM     14  C   UNL     1       1.141   4.182   0.014  0.00  0.00    +0.001 A 
ATOM     15  C   UNL     1       1.158   2.799   0.006  0.00  0.00    +0.015 A 
ATOM     16  C   UNL     1      -0.026   2.091   0.013  0.00  0.00    +0.022 A 
ATOM     17  C   UNL     1      -1.245   2.775   0.023  0.00  0.00    +0.008 A 
ATOM     18  C   UNL     1      -1.254   4.172   0.036  0.00  0.00    +0.010 A 
ATOM     19  I   UNL     1       0.002  -0.004   0.002  0.00  0.00    -0.043 I 
ENDBRANCH  11  17
ENDBRANCH   1  12
TORSDOF 3
