REMARK  Name = ZINC16681257
REMARK  11 active torsions:
REMARK  status: ('A' for Active; 'I' for Inactive)
REMARK    1  A    between atoms: C_1  and  C_2
REMARK    2  A    between atoms: C_2  and  C_3
REMARK    3  A    between atoms: C_3  and  C_4
REMARK    4  A    between atoms: C_10  and  S_12
REMARK    5  A    between atoms: S_12  and  C_13
REMARK    6  A    between atoms: C_13  and  C_14
REMARK    7  A    between atoms: C_14  and  C_16
REMARK    8  A    between atoms: C_17  and  N_32
REMARK    9  A    between atoms: N_18  and  C_25
REMARK   10  A    between atoms: N_21  and  C_24
REMARK   11  A    between atoms: C_25  and  C_26
REMARK                            x       y       z     vdW  Elec       q    Type
REMARK                         _______ _______ _______ _____ _____    ______ ____
ROOT
ATOM      1  C   UNL     1       2.038   7.342   1.684  0.00  0.00    +0.120 A 
ATOM      2  C   UNL     1       2.450   8.667   1.910  0.00  0.00    +0.116 A 
ATOM      3  N   UNL     1       3.403   9.210   1.096  0.00  0.00    -0.277 N 
ATOM      4  C   UNL     1       3.947   8.505   0.092  0.00  0.00    +0.333 A 
ATOM      5  O   UNL     1       4.792   9.034  -0.604  0.00  0.00    -0.246 OA
ATOM      6  N   UNL     1       3.593   7.237  -0.171  0.00  0.00    -0.263 N 
ATOM      7  C   UNL     1       2.665   6.607   0.578  0.00  0.00    +0.269 A 
ATOM      8  O   UNL     1       2.350   5.456   0.340  0.00  0.00    -0.267 OA
ATOM      9  C   UNL     1       4.229   6.525  -1.283  0.00  0.00    +0.157 C 
ENDROOT
BRANCH   2  10
ATOM     10  N   UNL     1       1.908   9.397   2.922  0.00  0.00    -0.344 N 
ATOM     11  H   UNL     1       2.237  10.433   3.091  0.00  0.00    +0.144 HD
ATOM     12  H   UNL     1       1.141   8.951   3.572  0.00  0.00    +0.144 HD
ENDBRANCH   2  10
BRANCH   1  13
ATOM     13  C   UNL     1       1.057   6.736   2.498  0.00  0.00    +0.182 C 
ATOM     14  O   UNL     1       0.632   7.320   3.474  0.00  0.00    -0.291 OA
BRANCH  13  15
ATOM     15  C   UNL     1       0.536   5.364   2.155  0.00  0.00    +0.157 C 
BRANCH  15  16
ATOM     16  S   UNL     1      -0.702   4.865   3.378  0.00  0.00    -0.080 S 
BRANCH  16  23
ATOM     17  C   UNL     1      -0.828   1.633   1.154  0.00  0.00    +0.049 A 
ATOM     18  C   UNL     1      -1.762   0.842   1.760  0.00  0.00    +0.093 A 
ATOM     19  C   UNL     1      -2.394   1.308   2.926  0.00  0.00    +0.252 A 
ATOM     20  O   UNL     1      -3.229   0.625   3.495  0.00  0.00    -0.268 OA
ATOM     21  N   UNL     1      -2.062   2.527   3.401  0.00  0.00    -0.302 N 
ATOM     22  H   UNL     1      -2.547   2.914   4.310  0.00  0.00    +0.171 HD
ATOM     23  C   UNL     1      -1.127   3.275   2.751  0.00  0.00    +0.170 A 
ATOM     24  N   UNL     1      -0.535   2.828   1.660  0.00  0.00    -0.228 NA
BRANCH  17  25
ATOM     25  C   UNL     1      -0.133   1.154  -0.094  0.00  0.00    +0.055 C 
BRANCH  25  27
ATOM     26  C   UNL     1      -0.158   1.206  -2.592  0.00  0.00    +0.004 C 
ATOM     27  C   UNL     1      -0.865   1.692  -1.325  0.00  0.00    +0.003 C 
ENDBRANCH  25  27
ENDBRANCH  17  25
ENDBRANCH  16  23
ENDBRANCH  15  16
ENDBRANCH  13  15
ENDBRANCH   1  13
BRANCH   3  28
ATOM     28  C   UNL     1       3.839  10.590   1.323  0.00  0.00    +0.163 C 
BRANCH  28  29
ATOM     29  C   UNL     1       5.004  10.598   2.279  0.00  0.00    -0.028 A 
ATOM     30  C   UNL     1       4.780  10.696   3.639  0.00  0.00    +0.005 A 
ATOM     31  C   UNL     1       5.849  10.698   4.517  0.00  0.00    +0.000 A 
ATOM     32  C   UNL     1       7.141  10.614   4.032  0.00  0.00    +0.000 A 
ATOM     33  C   UNL     1       7.364  10.522   2.671  0.00  0.00    +0.000 A 
ATOM     34  C   UNL     1       6.296  10.514   1.794  0.00  0.00    +0.005 A 
ENDBRANCH  28  29
ENDBRANCH   3  28
TORSDOF 9
