REMARK  Name = ZINC40516622
REMARK  6 active torsions:
REMARK  status: ('A' for Active; 'I' for Inactive)
REMARK    1  A    between atoms: C_1  and  C_2
REMARK    2  A    between atoms: C_4  and  C_18
REMARK    3  A    between atoms: C_7  and  C_8
REMARK    4  A    between atoms: C_11  and  C_17
REMARK    5  A    between atoms: C_12  and  N_16
REMARK    6  A    between atoms: C_13  and  C_15
REMARK                            x       y       z     vdW  Elec       q    Type
REMARK                         _______ _______ _______ _____ _____    ______ ____
ROOT
ATOM      1  C   UNL     1      -0.018   1.503   0.010  0.00  0.00    +0.045 C 
ATOM      2  C   UNL     1       0.002  -0.004   0.002  0.00  0.00    -0.028 A 
ATOM      3  C   UNL     1       0.006  -0.707  -1.190  0.00  0.00    +0.027 A 
ATOM      4  C   UNL     1       0.026  -2.090  -1.165  0.00  0.00    +0.041 A 
ATOM      5  N   UNL     1       0.040  -2.752  -0.025  0.00  0.00    -0.232 NA
ATOM      6  C   UNL     1       0.037  -2.130   1.142  0.00  0.00    +0.172 A 
ATOM      7  C   UNL     1       0.023  -0.728   1.200  0.00  0.00    +0.099 A 
ATOM      8  N   UNL     1       0.053  -2.872   2.322  0.00  0.00    -0.216 N 
ATOM      9  C   UNL     1       0.078  -4.232   2.416  0.00  0.00    +0.064 A 
ATOM     10  C   UNL     1       0.087  -4.550   3.735  0.00  0.00    +0.069 A 
ATOM     11  C   UNL     1       0.067  -3.352   4.467  0.00  0.00    +0.081 A 
ATOM     12  N   UNL     1       0.053  -2.352   3.623  0.00  0.00    -0.168 NA
ATOM     13  C   UNL     1       0.068  -3.238   5.969  0.00  0.00    +0.069 C 
ATOM     14  C   UNL     1       0.093  -5.204   1.265  0.00  0.00    +0.068 C 
ATOM     15  C   UNL     1       0.029  -2.853  -2.464  0.00  0.00    +0.065 C 
ENDROOT
BRANCH  10  16
ATOM     16  N   UNL     1       0.112  -5.850   4.273  0.00  0.00    -0.355 N 
ATOM     17  H   UNL     1       0.124  -6.619   3.683  0.00  0.00    +0.142 HD
ATOM     18  H   UNL     1       0.117  -5.976   5.235  0.00  0.00    +0.142 HD
ENDBRANCH  10  16
BRANCH   7  19
ATOM     19  C   UNL     1       0.025  -0.050   2.461  0.00  0.00    +0.103 C 
ATOM     20  N   UNL     1       0.027   0.488   3.462  0.00  0.00    -0.191 NA
ENDBRANCH   7  19
TORSDOF 2
