REMARK  Name = ZINC36537487
REMARK  8 active torsions:
REMARK  status: ('A' for Active; 'I' for Inactive)
REMARK    1  A    between atoms: C_1  and  N_2
REMARK    2  A    between atoms: N_2  and  C_3
REMARK    3  A    between atoms: C_3  and  C_5
REMARK    4  A    between atoms: C_3  and  C_12
REMARK    5  A    between atoms: C_9  and  O_11
REMARK    6  A    between atoms: N_14  and  C_15
REMARK    7  A    between atoms: C_21  and  C_23
REMARK    8  A    between atoms: C_27  and  N_29
REMARK                            x       y       z     vdW  Elec       q    Type
REMARK                         _______ _______ _______ _____ _____    ______ ____
ROOT
ATOM      1  C   UNL     1       0.163  -0.676   1.281  0.00  0.00    +0.192 C 
ENDROOT
BRANCH   1   2
ATOM      2  C   UNL     1      -1.027  -0.405   2.166  0.00  0.00    -0.015 A 
ATOM      3  C   UNL     1      -0.983   0.627   3.086  0.00  0.00    +0.006 A 
ATOM      4  C   UNL     1      -2.072   0.879   3.898  0.00  0.00    +0.004 A 
ATOM      5  C   UNL     1      -3.208   0.100   3.793  0.00  0.00    +0.045 A 
ATOM      6  C   UNL     1      -3.256  -0.935   2.871  0.00  0.00    +0.117 A 
ATOM      7  C   UNL     1      -2.163  -1.182   2.053  0.00  0.00    +0.051 A 
BRANCH   6   8
ATOM      8  O   UNL     1      -4.372  -1.703   2.766  0.00  0.00    -0.507 OA
ATOM      9  H   UNL     1      -5.020  -1.370   2.129  0.00  0.00    +0.292 HD
ENDBRANCH   6   8
ENDBRANCH   1   2
BRANCH   1  11
ATOM     10  C   UNL     1      -0.044   1.480  -0.040  0.00  0.00    +0.133 C 
ATOM     11  N   UNL     1      -0.011   0.016   0.002  0.00  0.00    -0.285 N 
ATOM     12  C   UNL     1      -0.141  -0.694  -1.136  0.00  0.00    +0.247 C 
ATOM     13  O   UNL     1      -0.222  -1.906  -1.091  0.00  0.00    -0.270 OA
BRANCH  12  14
ATOM     14  C   UNL     1      -0.186   0.002  -2.440  0.00  0.00    +0.039 A 
ATOM     15  C   UNL     1       0.578   1.152  -2.647  0.00  0.00    +0.013 A 
ATOM     16  C   UNL     1       0.532   1.796  -3.866  0.00  0.00    +0.003 A 
ATOM     17  C   UNL     1      -0.268   1.305  -4.882  0.00  0.00    +0.033 A 
ATOM     18  C   UNL     1      -1.028   0.166  -4.684  0.00  0.00    +0.127 A 
ATOM     19  C   UNL     1      -0.987  -0.491  -3.471  0.00  0.00    +0.045 A 
BRANCH  18  20
ATOM     20  N   UNL     1      -1.882  -0.353  -5.776  0.00  0.00    +0.056 N 
ATOM     21  O   UNL     1      -1.915   0.219  -6.840  0.00  0.00    -0.126 OA
ATOM     22  O   UNL     1      -2.546  -1.348  -5.603  0.00  0.00    -0.126 OA
ENDBRANCH  18  20
ENDBRANCH  12  14
ENDBRANCH   1  11
BRANCH   1  23
ATOM     23  C   UNL     1       1.414  -0.178   1.956  0.00  0.00    +0.238 C 
ATOM     24  O   UNL     1       2.094   0.672   1.421  0.00  0.00    -0.273 OA
ATOM     25  N   UNL     1       1.778  -0.677   3.154  0.00  0.00    -0.311 N 
ATOM     26  H   UNL     1       1.235  -1.357   3.582  0.00  0.00    +0.149 HD
BRANCH  25  27
ATOM     27  C   UNL     1       2.995  -0.193   3.810  0.00  0.00    +0.073 C 
ATOM     28  C   UNL     1       4.203  -0.971   3.283  0.00  0.00    +0.022 C 
ATOM     29  C   UNL     1       5.474  -0.465   3.969  0.00  0.00    +0.002 C 
ATOM     30  C   UNL     1       5.355  -0.670   5.480  0.00  0.00    +0.000 C 
ATOM     31  C   UNL     1       4.147   0.108   6.007  0.00  0.00    +0.002 C 
ATOM     32  C   UNL     1       2.876  -0.398   5.322  0.00  0.00    +0.022 C 
ENDBRANCH  25  27
ENDBRANCH   1  23
TORSDOF 7
