REMARK  Name = ZINC12925032
REMARK  6 active torsions:
REMARK  status: ('A' for Active; 'I' for Inactive)
REMARK    1  A    between atoms: C_1  and  C_2
REMARK    2  A    between atoms: N_10  and  C_11
REMARK    3  A    between atoms: N_10  and  C_12
REMARK    4  A    between atoms: C_12  and  C_14
REMARK    5  A    between atoms: C_12  and  C_15
REMARK    6  A    between atoms: C_19  and  N_21
REMARK                            x       y       z     vdW  Elec       q    Type
REMARK                         _______ _______ _______ _____ _____    ______ ____
ROOT
ATOM      1  C   UNL     1       1.088   9.703  -6.115  0.00  0.00    +0.089 C 
ATOM      2  C   UNL     1      -0.016   9.082  -5.299  0.00  0.00    +0.136 A 
ATOM      3  C   UNL     1       0.129   8.312  -4.197  0.00  0.00    +0.091 A 
ATOM      4  C   UNL     1      -1.204   7.992  -3.824  0.00  0.00    +0.169 A 
ATOM      5  N   UNL     1      -1.978   8.572  -4.704  0.00  0.00    -0.063 NA
ATOM      6  O   UNL     1      -1.334   9.184  -5.525  0.00  0.00    -0.358 OA
ATOM      7  N   UNL     1      -1.606   7.212  -2.740  0.00  0.00    -0.251 N 
ATOM      8  C   UNL     1      -0.684   6.673  -1.919  0.00  0.00    +0.308 C 
ATOM      9  O   UNL     1       0.499   6.867  -2.122  0.00  0.00    -0.252 OA
ATOM     10  N   UNL     1      -1.073   5.919  -0.872  0.00  0.00    -0.282 N 
ATOM     11  C   UNL     1      -2.498   5.685  -0.626  0.00  0.00    +0.134 C 
ATOM     12  H   UNL     1      -2.550   7.057  -2.578  0.00  0.00    +0.158 HD
ENDROOT
BRANCH  10  13
ATOM     13  C   UNL     1      -0.070   5.333   0.022  0.00  0.00    +0.104 C 
ATOM     14  C   UNL     1      -0.556   5.432   1.469  0.00  0.00    +0.033 C 
BRANCH  13  15
ATOM     15  C   UNL     1       0.141   3.886  -0.340  0.00  0.00    -0.025 A 
ATOM     16  C   UNL     1      -0.908   3.141  -0.848  0.00  0.00    +0.005 A 
ATOM     17  C   UNL     1      -0.713   1.814  -1.184  0.00  0.00    +0.003 A 
ATOM     18  C   UNL     1       0.526   1.230  -1.003  0.00  0.00    +0.033 A 
ATOM     19  C   UNL     1       1.574   1.975  -0.496  0.00  0.00    +0.127 A 
ATOM     20  C   UNL     1       1.381   3.303  -0.165  0.00  0.00    +0.038 A 
BRANCH  19  21
ATOM     21  N   UNL     1       2.903   1.350  -0.308  0.00  0.00    +0.056 N 
ATOM     22  O   UNL     1       3.073   0.180  -0.601  0.00  0.00    -0.126 OA
ATOM     23  O   UNL     1       3.827   2.007   0.139  0.00  0.00    -0.126 OA
ENDBRANCH  19  21
ENDBRANCH  13  15
ENDBRANCH  10  13
TORSDOF 3
