REMARK  Name = ZINC04738938
REMARK  7 active torsions:
REMARK  status: ('A' for Active; 'I' for Inactive)
REMARK    1  A    between atoms: C_1  and  C_2
REMARK    2  A    between atoms: C_3  and  C_12
REMARK    3  A    between atoms: N_10  and  C_11
REMARK    4  A    between atoms: N_22  and  C_23
REMARK    5  A    between atoms: C_23  and  C_24
REMARK    6  A    between atoms: N_26  and  C_27
REMARK    7  A    between atoms: C_27  and  C_28
REMARK                            x       y       z     vdW  Elec       q    Type
REMARK                         _______ _______ _______ _____ _____    ______ ____
ROOT
ATOM      1  C   UNL     1       1.719  -1.883  -0.025  0.00  0.00    +0.140 C 
ATOM      2  C   UNL     1       2.244  -2.251  -1.390  0.00  0.00    -0.010 A 
ATOM      3  C   UNL     1       1.675  -2.276  -2.642  0.00  0.00    +0.006 A 
ATOM      4  C   UNL     1       2.429  -2.669  -3.736  0.00  0.00    +0.000 A 
ATOM      5  C   UNL     1       3.752  -3.038  -3.573  0.00  0.00    +0.001 A 
ATOM      6  C   UNL     1       4.332  -3.016  -2.321  0.00  0.00    +0.013 A 
ATOM      7  C   UNL     1       3.579  -2.620  -1.214  0.00  0.00    +0.042 A 
ATOM      8  C   UNL     1       3.909  -2.496   0.219  0.00  0.00    +0.248 C 
ATOM      9  O   UNL     1       4.995  -2.743   0.706  0.00  0.00    -0.270 OA
ATOM     10  N   UNL     1       2.836  -2.070   0.909  0.00  0.00    -0.278 N 
ENDROOT
BRANCH   1  13
ATOM     11  C   UNL     1      -1.220  -0.886   0.009  0.00  0.00    +0.064 C 
ATOM     12  C   UNL     1       0.002  -0.004   0.002  0.00  0.00    +0.022 A 
ATOM     13  C   UNL     1       1.270  -0.444  -0.012  0.00  0.00    +0.006 A 
ATOM     14  C   UNL     1       2.134   0.739  -0.014  0.00  0.00    +0.005 A 
ATOM     15  C   UNL     1       3.517   0.930  -0.026  0.00  0.00    +0.010 A 
ATOM     16  C   UNL     1       4.026   2.198  -0.025  0.00  0.00    +0.001 A 
ATOM     17  C   UNL     1       3.179   3.298  -0.011  0.00  0.00    +0.002 A 
ATOM     18  C   UNL     1       1.812   3.132   0.001  0.00  0.00    +0.026 A 
ATOM     19  C   UNL     1       1.272   1.850  -0.000  0.00  0.00    +0.049 A 
ATOM     20  N   UNL     1      -0.017   1.364   0.009  0.00  0.00    -0.347 N 
ATOM     21  C   UNL     1      -1.227   2.189   0.020  0.00  0.00    +0.149 C 
ENDBRANCH   1  13
BRANCH  10  22
ATOM     22  C   UNL     1       2.790  -1.832   2.353  0.00  0.00    +0.204 C 
BRANCH  22  23
ATOM     23  C   UNL     1       2.374  -3.098   3.058  0.00  0.00    +0.231 C 
ATOM     24  O   UNL     1       2.139  -4.100   2.416  0.00  0.00    -0.274 OA
ATOM     25  N   UNL     1       2.263  -3.116   4.401  0.00  0.00    -0.305 N 
ATOM     26  H   UNL     1       2.451  -2.315   4.914  0.00  0.00    +0.149 HD
BRANCH  25  27
ATOM     27  C   UNL     1       1.859  -4.346   5.086  0.00  0.00    +0.199 C 
BRANCH  27  28
ATOM     28  C   UNL     1       1.811  -4.102   6.572  0.00  0.00    +0.228 C 
ATOM     29  O   UNL     1       2.088  -3.007   7.016  0.00  0.00    -0.274 OA
ATOM     30  N   UNL     1       1.461  -5.099   7.408  0.00  0.00    -0.328 N 
ATOM     31  H   UNL     1       1.240  -5.974   7.054  0.00  0.00    +0.145 HD
ATOM     32  H   UNL     1       1.431  -4.941   8.365  0.00  0.00    +0.145 HD
ENDBRANCH  27  28
ENDBRANCH  25  27
ENDBRANCH  22  23
ENDBRANCH  10  22
TORSDOF 5
