REMARK  Name = ZINC39664489
REMARK  8 active torsions:
REMARK  status: ('A' for Active; 'I' for Inactive)
REMARK    1  A    between atoms: C_1  and  C_2
REMARK    2  A    between atoms: C_7  and  C_8
REMARK    3  A    between atoms: C_8  and  C_9
REMARK    4  A    between atoms: C_13  and  C_22
REMARK    5  A    between atoms: N_24  and  C_25
REMARK    6  A    between atoms: C_25  and  C_26
REMARK    7  A    between atoms: C_26  and  C_28
REMARK    8  A    between atoms: C_26  and  N_34
REMARK                            x       y       z     vdW  Elec       q    Type
REMARK                         _______ _______ _______ _____ _____    ______ ____
ROOT
ATOM      1  C   UNL     1      -2.211   0.464   3.014  0.00  0.00    +0.220 C 
ATOM      2  O   UNL     1      -3.198   0.237   2.348  0.00  0.00    -0.275 OA
ATOM      3  N   UNL     1      -2.316   1.171   4.156  0.00  0.00    -0.300 N 
ATOM      4  C   UNL     1      -1.232   1.552   5.092  0.00  0.00    +0.121 C 
ATOM      5  C   UNL     1      -1.581   2.993   5.528  0.00  0.00    +0.100 C 
ATOM      6  C   UNL     1      -3.098   3.112   5.310  0.00  0.00    -0.004 C 
ATOM      7  C   UNL     1      -3.542   1.750   4.757  0.00  0.00    +0.115 C 
ATOM      8  C   UNL     1      -3.401   4.211   4.295  0.00  0.00    -0.010 C 
ATOM      9  C   UNL     1      -4.918   4.349   4.138  0.00  0.00    -0.082 C 
ATOM     10  N   UNL     1      -5.519   4.676   5.437  0.00  0.00    +0.379 N 
ATOM     11  C   UNL     1      -5.302   3.572   6.380  0.00  0.00    -0.082 C 
ATOM     12  C   UNL     1      -3.802   3.401   6.633  0.00  0.00    -0.010 C 
ATOM     13  H   UNL     1      -5.094   5.516   5.800  0.00  0.00    -0.086 HD
ATOM     14  H   UNL     1      -6.509   4.827   5.319  0.00  0.00    -0.086 HD
ENDROOT
BRANCH   5  15
ATOM     15  C   UNL     1      -1.239   3.198   6.982  0.00  0.00    +0.218 C 
ATOM     16  O   UNL     1      -1.304   2.267   7.757  0.00  0.00    -0.275 OA
ATOM     17  N   UNL     1      -0.863   4.415   7.420  0.00  0.00    -0.313 N 
ATOM     18  H   UNL     1      -0.811   5.159   6.800  0.00  0.00    +0.149 HD
BRANCH  17  19
ATOM     19  C   UNL     1      -0.531   4.614   8.833  0.00  0.00    +0.127 C 
BRANCH  19  20
ATOM     20  C   UNL     1      -0.236   6.095   9.084  0.00  0.00    +0.104 C 
BRANCH  20  21
ATOM     21  C   UNL     1       0.987   6.503   8.304  0.00  0.00    -0.029 A 
ATOM     22  C   UNL     1       2.247   6.200   8.787  0.00  0.00    +0.005 A 
ATOM     23  C   UNL     1       3.369   6.574   8.071  0.00  0.00    +0.000 A 
ATOM     24  C   UNL     1       3.231   7.250   6.873  0.00  0.00    +0.000 A 
ATOM     25  C   UNL     1       1.971   7.552   6.391  0.00  0.00    +0.000 A 
ATOM     26  C   UNL     1       0.849   7.174   7.104  0.00  0.00    +0.005 A 
ENDBRANCH  20  21
BRANCH  20  27
ATOM     27  N   UNL     1       0.002   6.311  10.518  0.00  0.00    -0.290 NA
ATOM     28  C   UNL     1      -1.143   5.852  11.317  0.00  0.00    +0.113 C 
ATOM     29  C   UNL     1      -0.829   6.040  12.804  0.00  0.00    +0.175 C 
ATOM     30  O   UNL     1      -0.512   7.413  13.049  0.00  0.00    -0.377 OA
ATOM     31  C   UNL     1       0.599   7.893  12.287  0.00  0.00    +0.175 C 
ATOM     32  C   UNL     1       0.299   7.723  10.795  0.00  0.00    +0.113 C 
ENDBRANCH  20  27
ENDBRANCH  19  20
ENDBRANCH  17  19
ENDBRANCH   5  15
BRANCH   1  33
ATOM     33  C   UNL     1      -0.865  -0.045   2.564  0.00  0.00    +0.131 C 
BRANCH  33  40
ATOM     34  C   UNL     1      -0.856   1.382   0.052  0.00  0.00    +0.044 C 
ATOM     35  C   UNL     1      -1.016  -0.116   0.067  0.00  0.00    -0.047 A 
ATOM     36  C   UNL     1      -1.153  -0.808  -1.122  0.00  0.00    +0.003 A 
ATOM     37  C   UNL     1      -1.301  -2.183  -1.109  0.00  0.00    +0.000 A 
ATOM     38  C   UNL     1      -1.310  -2.865   0.094  0.00  0.00    +0.000 A 
ATOM     39  C   UNL     1      -1.172  -2.173   1.282  0.00  0.00    +0.004 A 
ATOM     40  C   UNL     1      -1.021  -0.799   1.268  0.00  0.00    -0.036 A 
ENDBRANCH  33  40
ENDBRANCH   1  33
TORSDOF 7
