REMARK  Name = ZINC44784294
REMARK  6 active torsions:
REMARK  status: ('A' for Active; 'I' for Inactive)
REMARK    1  A    between atoms: C_1  and  C_2
REMARK    2  A    between atoms: C_7  and  N_12
REMARK    3  A    between atoms: C_9  and  C_11
REMARK    4  A    between atoms: C_13  and  C_15
REMARK    5  A    between atoms: C_15  and  C_21
REMARK    6  A    between atoms: N_22  and  O_23
REMARK                            x       y       z     vdW  Elec       q    Type
REMARK                         _______ _______ _______ _____ _____    ______ ____
ROOT
ATOM      1  C   UNL     1       1.269  -0.393   6.097  0.00  0.00    +0.105 C 
ATOM      2  C   UNL     1       0.905   0.490   7.292  0.00  0.00    +0.024 C 
ATOM      3  C   UNL     1       1.415   1.912   7.050  0.00  0.00    +0.001 C 
ATOM      4  C   UNL     1       2.935   1.886   6.879  0.00  0.00    +0.000 C 
ATOM      5  C   UNL     1       3.299   1.004   5.684  0.00  0.00    +0.001 C 
ATOM      6  C   UNL     1       2.789  -0.418   5.926  0.00  0.00    +0.024 C 
ENDROOT
BRANCH   1   7
ATOM      7  C   UNL     1       0.767  -1.794   6.335  0.00  0.00    +0.147 C 
ATOM      8  N   UNL     1       1.606  -2.767   6.465  0.00  0.00    -0.076 NA
ATOM      9  N   UNL     1      -0.587  -2.036   6.414  0.00  0.00    -0.343 N 
ATOM     10  H   UNL     1      -1.214  -1.296   6.391  0.00  0.00    +0.144 HD
ATOM     11  H   UNL     1      -0.913  -2.946   6.493  0.00  0.00    +0.144 HD
BRANCH   8  12
ATOM     12  O   UNL     1       1.134  -4.083   6.689  0.00  0.00    -0.408 OA
ATOM     13  H   UNL     1       1.835  -4.744   6.773  0.00  0.00    +0.328 HD
ENDBRANCH   8  12
ENDBRANCH   1   7
BRANCH   1  15
ATOM     14  N   UNL     1       0.932  -0.366   3.646  0.00  0.00    -0.311 N 
ATOM     15  C   UNL     1       0.633   0.163   4.849  0.00  0.00    +0.227 C 
ATOM     16  O   UNL     1      -0.148   1.088   4.927  0.00  0.00    -0.275 OA
ATOM     17  H   UNL     1       1.610  -1.056   3.575  0.00  0.00    +0.149 HD
BRANCH  14  23
ATOM     18  C   UNL     1       0.086   1.838   0.093  0.00  0.00    +0.008 C 
ATOM     19  C   UNL     1       0.379   0.342  -0.036  0.00  0.00    -0.009 C 
ATOM     20  C   UNL     1      -0.936  -0.425  -0.189  0.00  0.00    +0.003 C 
ATOM     21  C   UNL     1      -1.814  -0.181   1.040  0.00  0.00    +0.002 C 
ATOM     22  C   UNL     1      -1.083  -0.668   2.293  0.00  0.00    +0.022 C 
ATOM     23  C   UNL     1       0.232   0.099   2.446  0.00  0.00    +0.076 C 
ATOM     24  C   UNL     1       1.110  -0.144   1.217  0.00  0.00    +0.009 C 
ATOM     25  C   UNL     1       2.425   0.623   1.370  0.00  0.00    +0.009 C 
ENDBRANCH  14  23
ENDBRANCH   1  15
TORSDOF 4
