REMARK  Name = ZINC49282546
REMARK  5 active torsions:
REMARK  status: ('A' for Active; 'I' for Inactive)
REMARK    1  A    between atoms: C_4  and  S_10
REMARK    2  A    between atoms: C_5  and  N_7
REMARK    3  A    between atoms: S_10  and  N_13
REMARK    4  A    between atoms: N_13  and  C_14
REMARK    5  A    between atoms: C_14  and  C_15
REMARK                            x       y       z     vdW  Elec       q    Type
REMARK                         _______ _______ _______ _____ _____    ______ ____
ROOT
ATOM      1  S   UNL     1       4.307  -0.251  -0.042  0.00  0.00    +0.061 S 
ATOM      2  O   UNL     1       4.533  -0.968  -1.248  0.00  0.00    -0.153 OA
ATOM      3  O   UNL     1       5.038   0.919   0.296  0.00  0.00    -0.153 OA
ENDROOT
BRANCH   1   7
ATOM      4  C   UNL     1      -0.070   0.907  -0.026  0.00  0.00    +0.002 A 
ATOM      5  C   UNL     1       0.473   0.271  -1.127  0.00  0.00    +0.002 A 
ATOM      6  C   UNL     1       1.810  -0.082  -1.133  0.00  0.00    +0.031 A 
ATOM      7  C   UNL     1       2.603   0.201  -0.036  0.00  0.00    +0.135 A 
ATOM      8  C   UNL     1       2.061   0.837   1.064  0.00  0.00    +0.152 A 
ATOM      9  C   UNL     1       0.724   1.189   1.070  0.00  0.00    +0.035 A 
BRANCH   8  10
ATOM     10  N   UNL     1       2.911   1.139   2.238  0.00  0.00    +0.058 N 
ATOM     11  O   UNL     1       2.471   1.802   3.148  0.00  0.00    -0.126 OA
ATOM     12  O   UNL     1       4.044   0.722   2.287  0.00  0.00    -0.126 OA
ENDBRANCH   8  10
ENDBRANCH   1   7
BRANCH   1  13
ATOM     13  N   UNL     1       4.533  -1.326   1.197  0.00  0.00    -0.190 NA
ATOM     14  H   UNL     1       5.125  -1.101   1.932  0.00  0.00    +0.148 HD
BRANCH  13  15
ATOM     15  C   UNL     1       3.838  -2.615   1.184  0.00  0.00    +0.109 C 
BRANCH  15  16
ATOM     16  C   UNL     1       4.475  -3.548   2.216  0.00  0.00    +0.009 C 
ATOM     17  C   UNL     1       3.680  -4.858   2.287  0.00  0.00    +0.009 C 
ATOM     18  C   UNL     1       4.228  -5.695   3.445  0.00  0.00    +0.027 C 
ATOM     19  C   UNL     1       5.723  -5.781   3.358  0.00  0.00    -0.031 C 
ATOM     20  C   UNL     1       6.455  -4.987   2.645  0.00  0.00    -0.031 C 
ATOM     21  C   UNL     1       5.912  -3.871   1.800  0.00  0.00    +0.031 C 
ENDBRANCH  15  16
ENDBRANCH  13  15
ENDBRANCH   1  13
TORSDOF 5
