REMARK  Name = ZINC40112901
REMARK  9 active torsions:
REMARK  status: ('A' for Active; 'I' for Inactive)
REMARK    1  A    between atoms: C_1  and  C_2
REMARK    2  A    between atoms: C_2  and  C_27
REMARK    3  A    between atoms: C_3  and  C_4
REMARK    4  A    between atoms: C_6  and  C_11
REMARK    5  A    between atoms: C_8  and  C_9
REMARK    6  A    between atoms: C_8  and  C_10
REMARK    7  A    between atoms: C_13  and  C_25
REMARK    8  A    between atoms: C_14  and  N_16
REMARK    9  A    between atoms: C_19  and  C_22
REMARK                            x       y       z     vdW  Elec       q    Type
REMARK                         _______ _______ _______ _____ _____    ______ ____
ROOT
ATOM      1  C   UNL     1       0.984  -0.060   4.856  0.00  0.00    +0.203 A 
ATOM      2  N   UNL     1       1.424   1.160   4.836  0.00  0.00    -0.200 NA
ATOM      3  C   UNL     1       2.144   1.383   5.972  0.00  0.00    +0.201 A 
ATOM      4  C   UNL     1       2.116   0.205   6.699  0.00  0.00    +0.227 A 
ATOM      5  O   UNL     1       1.385  -0.669   5.984  0.00  0.00    -0.424 OA
ENDROOT
BRANCH   4   6
ATOM      6  N   UNL     1       2.716  -0.026   7.919  0.00  0.00    -0.299 N 
ATOM      7  C   UNL     1       1.992   0.235   9.171  0.00  0.00    +0.109 C 
ATOM      8  C   UNL     1       2.028  -1.029  10.035  0.00  0.00    +0.032 C 
ATOM      9  C   UNL     1       3.481  -1.468  10.229  0.00  0.00    +0.078 C 
ATOM     10  C   UNL     1       4.104  -1.794   8.870  0.00  0.00    +0.032 C 
ATOM     11  C   UNL     1       4.089  -0.544   7.993  0.00  0.00    +0.109 C 
BRANCH   9  12
ATOM     12  C   UNL     1       3.523  -2.692  11.107  0.00  0.00    +0.214 C 
ATOM     13  O   UNL     1       2.492  -3.167  11.535  0.00  0.00    -0.276 OA
ATOM     14  N   UNL     1       4.706  -3.260  11.417  0.00  0.00    -0.329 N 
ATOM     15  H   UNL     1       5.530  -2.880  11.075  0.00  0.00    +0.145 HD
ATOM     16  H   UNL     1       4.733  -4.048  11.982  0.00  0.00    +0.145 HD
ENDBRANCH   9  12
ENDBRANCH   4   6
BRANCH   1  18
ATOM     17  C   UNL     1      -0.044   0.084   2.476  0.00  0.00    +0.031 C 
ATOM     18  C   UNL     1       0.144  -0.697   3.778  0.00  0.00    +0.089 C 
ATOM     19  C   UNL     1      -1.207  -0.051   3.462  0.00  0.00    -0.016 C 
ATOM     20  C   UNL     1      -1.602   1.191   4.263  0.00  0.00    +0.012 C 
ATOM     21  C   UNL     1      -2.360  -0.979   3.071  0.00  0.00    +0.012 C 
BRANCH  17  24
ATOM     22  C   UNL     1      -0.019   1.417  -0.005  0.00  0.00    +0.038 C 
ATOM     23  C   UNL     1      -0.110  -0.087   0.042  0.00  0.00    -0.079 C 
ATOM     24  C   UNL     1      -0.122  -0.706   1.196  0.00  0.00    -0.023 C 
ATOM     25  C   UNL     1      -0.188  -0.877  -1.239  0.00  0.00    +0.038 C 
ENDBRANCH  17  24
ENDBRANCH   1  18
BRANCH   3  26
ATOM     26  C   UNL     1       2.802   2.599   6.342  0.00  0.00    +0.124 C 
ATOM     27  N   UNL     1       3.324   3.565   6.636  0.00  0.00    -0.189 NA
ENDBRANCH   3  26
TORSDOF 5
