REMARK  Name = ZINC16890297
REMARK  6 active torsions:
REMARK  status: ('A' for Active; 'I' for Inactive)
REMARK    1  A    between atoms: C_2  and  C_3
REMARK    2  A    between atoms: C_3  and  N_4
REMARK    3  A    between atoms: C_18  and  S_19
REMARK    4  A    between atoms: S_19  and  C_20
REMARK    5  A    between atoms: C_20  and  C_21
REMARK    6  A    between atoms: C_22  and  C_23
REMARK                            x       y       z     vdW  Elec       q    Type
REMARK                         _______ _______ _______ _____ _____    ______ ____
ROOT
ATOM      1  N   UNL     1       2.122   6.854   2.270  0.00  0.00    -0.282 N 
ATOM      2  C   UNL     1       2.024   8.190   2.100  0.00  0.00    +0.279 A 
ATOM      3  O   UNL     1       2.422   8.959   2.960  0.00  0.00    -0.265 OA
ATOM      4  C   UNL     1       1.447   8.679   0.909  0.00  0.00    +0.131 A 
ATOM      5  C   UNL     1       1.008   7.760  -0.042  0.00  0.00    +0.104 A 
ATOM      6  C   UNL     1       0.461   8.544  -1.159  0.00  0.00    +0.026 A 
ATOM      7  C   UNL     1      -0.117   8.201  -2.381  0.00  0.00    +0.012 A 
ATOM      8  C   UNL     1      -0.542   9.181  -3.233  0.00  0.00    +0.001 A 
ATOM      9  C   UNL     1      -0.402  10.519  -2.891  0.00  0.00    +0.002 A 
ATOM     10  C   UNL     1       0.167  10.880  -1.690  0.00  0.00    +0.026 A 
ATOM     11  C   UNL     1       0.607   9.897  -0.806  0.00  0.00    +0.049 A 
ATOM     12  N   UNL     1       1.200   9.958   0.436  0.00  0.00    -0.349 N 
ATOM     13  H   UNL     1       1.413  10.777   0.911  0.00  0.00    +0.166 HD
ATOM     14  N   UNL     1       1.140   6.444   0.189  0.00  0.00    -0.221 NA
ATOM     15  C   UNL     1       1.680   6.001   1.302  0.00  0.00    +0.173 A 
ENDROOT
BRANCH   1  16
ATOM     16  C   UNL     1       2.712   6.318   3.499  0.00  0.00    +0.154 C 
BRANCH  16  18
ATOM     17  C   UNL     1       5.029   6.723   4.154  0.00  0.00    +0.005 C 
ATOM     18  C   UNL     1       4.199   6.157   3.314  0.00  0.00    -0.013 C 
ENDBRANCH  16  18
ENDBRANCH   1  16
BRANCH  15  19
ATOM     19  S   UNL     1       1.828   4.264   1.554  0.00  0.00    -0.083 S 
BRANCH  19  20
ATOM     20  C   UNL     1       1.101   3.659   0.011  0.00  0.00    +0.104 C 
BRANCH  20  21
ATOM     21  C   UNL     1       1.121   2.152   0.003  0.00  0.00    -0.015 C 
ATOM     22  C   UNL     1      -0.018   1.474   0.010  0.00  0.00    +0.004 C 
BRANCH  22  23
ATOM     23  C   UNL     1       0.002  -0.004   0.002  0.00  0.00    -0.025 A 
ATOM     24  C   UNL     1       1.218  -0.688  -0.019  0.00  0.00    +0.008 A 
ATOM     25  C   UNL     1       1.230  -2.068  -0.022  0.00  0.00    +0.001 A 
ATOM     26  C   UNL     1       0.040  -2.773  -0.014  0.00  0.00    +0.000 A 
ATOM     27  C   UNL     1      -1.169  -2.100   0.002  0.00  0.00    +0.001 A 
ATOM     28  C   UNL     1      -1.195  -0.721   0.010  0.00  0.00    +0.008 A 
ENDBRANCH  22  23
ENDBRANCH  20  21
ENDBRANCH  19  20
ENDBRANCH  15  19
TORSDOF 6
