REMARK  Name = ZINC38588144
REMARK  8 active torsions:
REMARK  status: ('A' for Active; 'I' for Inactive)
REMARK    1  A    between atoms: C_1  and  C_2
REMARK    2  A    between atoms: C_2  and  N_3
REMARK    3  A    between atoms: C_4  and  C_27
REMARK    4  A    between atoms: C_6  and  C_10
REMARK    5  A    between atoms: C_7  and  C_9
REMARK    6  A    between atoms: C_10  and  N_11
REMARK    7  A    between atoms: C_12  and  C_14
REMARK    8  A    between atoms: N_16  and  C_17
REMARK                            x       y       z     vdW  Elec       q    Type
REMARK                         _______ _______ _______ _____ _____    ______ ____
ROOT
ATOM      1  N   UNL     1      -3.614  -4.307   0.914  0.00  0.00    -0.304 N 
ATOM      2  C   UNL     1      -4.106  -5.528   1.200  0.00  0.00    +0.300 C 
ATOM      3  O   UNL     1      -3.518  -6.253   1.976  0.00  0.00    -0.265 OA
ATOM      4  H   UNL     1      -4.083  -3.728   0.293  0.00  0.00    +0.149 HD
ENDROOT
BRANCH   2   5
ATOM      5  C   UNL     1      -5.374  -5.991   0.561  0.00  0.00    +0.303 C 
ATOM      6  O   UNL     1      -5.962  -5.266  -0.216  0.00  0.00    -0.265 OA
ATOM      7  N   UNL     1      -5.866  -7.212   0.847  0.00  0.00    -0.278 N 
ATOM      8  H   UNL     1      -5.361  -7.819   1.411  0.00  0.00    +0.155 HD
BRANCH   7   9
ATOM      9  C   UNL     1      -7.105  -7.605   0.331  0.00  0.00    +0.032 C 
ATOM     10  C   UNL     1      -8.070  -7.978   1.190  0.00  0.00    +0.027 C 
ATOM     11  C   UNL     1      -9.384  -8.454   0.645  0.00  0.00    +0.160 C 
ATOM     12  C   UNL     1      -9.591  -7.789  -0.703  0.00  0.00    -0.018 C 
ATOM     13  C   UNL     1     -10.838  -7.287  -0.669  0.00  0.00    +0.025 C 
ATOM     14  C   UNL     1     -11.367  -7.435   0.633  0.00  0.00    +0.106 C 
ATOM     15  N   UNL     1     -10.550  -8.068   1.428  0.00  0.00    -0.279 NA
ATOM     16  C   UNL     1      -8.553  -7.656  -1.647  0.00  0.00    +0.008 C 
ATOM     17  C   UNL     1      -7.297  -7.587  -1.120  0.00  0.00    +0.023 C 
ENDBRANCH   7   9
ENDBRANCH   2   5
BRANCH   1  18
ATOM     18  C   UNL     1      -2.370  -3.853   1.541  0.00  0.00    +0.138 C 
BRANCH  18  21
ATOM     19  N   UNL     1      -1.252  -0.627  -0.199  0.00  0.00    -0.223 NA
ATOM     20  C   UNL     1      -1.297  -2.103  -0.211  0.00  0.00    +0.102 C 
ATOM     21  C   UNL     1      -2.041  -2.464   1.057  0.00  0.00    -0.017 C 
ATOM     22  C   UNL     1      -2.346  -1.331   1.655  0.00  0.00    +0.018 C 
ATOM     23  N   UNL     1      -1.895  -0.238   0.941  0.00  0.00    -0.281 N 
ATOM     24  C   UNL     1      -3.095  -1.239   2.960  0.00  0.00    +0.062 C 
ATOM     25  C   UNL     1      -2.056  -2.605  -1.442  0.00  0.00    +0.031 C 
ATOM     26  H   UNL     1      -2.019   0.684   1.214  0.00  0.00    +0.166 HD
BRANCH  19  28
ATOM     27  C   UNL     1       0.140   1.386  -0.265  0.00  0.00    +0.022 C 
ATOM     28  C   UNL     1       0.135  -0.143  -0.212  0.00  0.00    +0.103 C 
ENDBRANCH  19  28
ENDBRANCH  18  21
ENDBRANCH   1  18
TORSDOF 5
