REMARK  Name = ZINC40569627
REMARK  9 active torsions:
REMARK  status: ('A' for Active; 'I' for Inactive)
REMARK    1  A    between atoms: C_1  and  C_2
REMARK    2  A    between atoms: C_2  and  C_3
REMARK    3  A    between atoms: C_3  and  C_4
REMARK    4  A    between atoms: N_10  and  C_11
REMARK    5  A    between atoms: C_12  and  C_22
REMARK    6  A    between atoms: C_14  and  C_18
REMARK    7  A    between atoms: C_15  and  N_17
REMARK    8  A    between atoms: C_18  and  O_20
REMARK    9  A    between atoms: O_20  and  C_21
REMARK                            x       y       z     vdW  Elec       q    Type
REMARK                         _______ _______ _______ _____ _____    ______ ____
ROOT
ATOM      1  C   UNL     1      -1.214  -2.156  -0.295  0.00  0.00    +0.025 A 
ATOM      2  C   UNL     1      -1.345  -2.695   0.936  0.00  0.00    +0.068 A 
ATOM      3  C   UNL     1      -1.432  -4.095   1.083  0.00  0.00    +0.141 A 
ATOM      4  C   UNL     1      -1.381  -4.888  -0.044  0.00  0.00    +0.071 A 
ATOM      5  C   UNL     1      -1.245  -4.284  -1.301  0.00  0.00    +0.259 A 
ATOM      6  O   UNL     1      -1.199  -4.975  -2.307  0.00  0.00    -0.267 OA
ATOM      7  N   UNL     1      -1.171  -2.944  -1.401  0.00  0.00    -0.315 N 
ATOM      8  C   UNL     1      -1.034  -2.326  -2.722  0.00  0.00    +0.152 C 
ATOM      9  C   UNL     1      -1.469  -6.386   0.066  0.00  0.00    +0.101 C 
ATOM     10  C   UNL     1      -2.001  -6.776   1.417  0.00  0.00    +0.105 C 
ATOM     11  C   UNL     1      -2.018  -5.892   2.447  0.00  0.00    +0.195 C 
ATOM     12  O   UNL     1      -1.563  -4.636   2.313  0.00  0.00    -0.441 OA
ENDROOT
BRANCH   9  13
ATOM     13  C   UNL     1      -0.097  -6.981  -0.119  0.00  0.00    -0.017 A 
ATOM     14  C   UNL     1       0.925  -6.645   0.749  0.00  0.00    +0.007 A 
ATOM     15  C   UNL     1       2.183  -7.191   0.580  0.00  0.00    +0.020 A 
ATOM     16  C   UNL     1       2.421  -8.074  -0.458  0.00  0.00    +0.042 A 
ATOM     17  C   UNL     1       1.399  -8.411  -1.327  0.00  0.00    +0.040 A 
ATOM     18  C   UNL     1       0.138  -7.868  -1.154  0.00  0.00    +0.046 A 
ATOM     19 CL   UNL     1      -1.147  -8.295  -2.240  0.00  0.00    -0.083 Cl
ATOM     20 CL   UNL     1       4.002  -8.759  -0.671  0.00  0.00    -0.083 Cl
ENDBRANCH   9  13
BRANCH  11  21
ATOM     21  N   UNL     1      -2.512  -6.294   3.659  0.00  0.00    -0.329 N 
ATOM     22  H   UNL     1      -2.932  -7.164   3.747  0.00  0.00    +0.145 HD
ATOM     23  H   UNL     1      -2.443  -5.709   4.429  0.00  0.00    +0.145 HD
ENDBRANCH  11  21
BRANCH  10  24
ATOM     24  C   UNL     1      -2.488  -8.076   1.616  0.00  0.00    +0.341 C 
ATOM     25  O   UNL     1      -3.611  -8.368   1.246  0.00  0.00    -0.245 OA
BRANCH  24  26
ATOM     26  O   UNL     1      -1.712  -9.003   2.218  0.00  0.00    -0.465 OA
ATOM     27  C   UNL     1      -2.273 -10.306   2.388  0.00  0.00    +0.280 C 
ENDBRANCH  24  26
ENDBRANCH  10  24
BRANCH   1  28
ATOM     28  C   UNL     1      -1.121  -0.659  -0.445  0.00  0.00    +0.053 C 
BRANCH  28  30
ATOM     29  C   UNL     1      -2.424   1.437  -0.834  0.00  0.00    +0.004 C 
ATOM     30  C   UNL     1      -2.519  -0.082  -0.681  0.00  0.00    +0.003 C 
ENDBRANCH  28  30
ENDBRANCH   1  28
TORSDOF 6
