REMARK  Name = ZINC09683261
REMARK  7 active torsions:
REMARK  status: ('A' for Active; 'I' for Inactive)
REMARK    1  A    between atoms: C_1  and  C_2
REMARK    2  A    between atoms: C_5  and  C_8
REMARK    3  A    between atoms: C_8  and  N_47
REMARK    4  A    between atoms: C_9  and  C_11
REMARK    5  A    between atoms: C_9  and  C_17
REMARK    6  A    between atoms: C_9  and  N_47
REMARK    7  A    between atoms: C_20  and  C_22
REMARK                            x       y       z     vdW  Elec       q    Type
REMARK                         _______ _______ _______ _____ _____    ______ ____
ROOT
ATOM      1  C   UNL     1       4.510   6.897  -0.004  0.00  0.00    +0.049 C 
ENDROOT
BRANCH   1   2
ATOM      2  C   UNL     1       5.069   7.188   1.365  0.00  0.00    -0.053 A 
ATOM      3  C   UNL     1       6.284   6.648   1.745  0.00  0.00    +0.002 A 
ATOM      4  C   UNL     1       6.798   6.918   2.999  0.00  0.00    +0.000 A 
ATOM      5  C   UNL     1       6.094   7.721   3.876  0.00  0.00    +0.000 A 
ATOM      6  C   UNL     1       4.878   8.258   3.498  0.00  0.00    +0.000 A 
ATOM      7  C   UNL     1       4.365   7.991   2.242  0.00  0.00    +0.002 A 
ENDBRANCH   1   2
BRANCH   1   8
ATOM      8  C   UNL     1       3.868   5.534  -0.005  0.00  0.00    +0.208 A 
ATOM      9  N   UNL     1       4.491   4.389  -0.016  0.00  0.00    -0.113 NA
ATOM     10  N   UNL     1       3.632   3.431  -0.008  0.00  0.00    -0.107 NA
ATOM     11  C   UNL     1       2.421   3.936   0.000  0.00  0.00    +0.250 A 
ATOM     12  O   UNL     1       2.548   5.278   0.006  0.00  0.00    -0.422 OA
BRANCH  11  13
ATOM     13  C   UNL     1       1.153   3.175   0.008  0.00  0.00    +0.057 A 
ATOM     14  C   UNL     1       1.173   1.780   0.000  0.00  0.00    +0.015 A 
ATOM     15  C   UNL     1      -0.013   1.076   0.008  0.00  0.00    +0.001 A 
ATOM     16  C   UNL     1      -1.221   1.750   0.017  0.00  0.00    +0.001 A 
ATOM     17  C   UNL     1      -1.250   3.132   0.030  0.00  0.00    +0.021 A 
ATOM     18  C   UNL     1      -0.069   3.850   0.022  0.00  0.00    +0.053 A 
ATOM     19 CL   UNL     1      -0.106   5.585   0.031  0.00  0.00    -0.083 Cl
ENDBRANCH  11  13
ENDBRANCH   1   8
BRANCH   1  20
ATOM     20  N   UNL     1       5.601   6.918  -0.997  0.00  0.00    +0.392 N 
ATOM     21  H   UNL     1       6.457   6.546  -0.567  0.00  0.00    -0.084 HD
ATOM     22  H   UNL     1       5.340   6.335  -1.800  0.00  0.00    -0.084 HD
BRANCH  20  23
ATOM     23  C   UNL     1       5.848   8.298  -1.457  0.00  0.00    -0.045 C 
BRANCH  23  28
ATOM     24  C   UNL     1      10.133   8.264  -5.333  0.00  0.00    +0.044 C 
ATOM     25  C   UNL     1       9.016   8.273  -4.322  0.00  0.00    -0.050 A 
ATOM     26  C   UNL     1       7.706   8.125  -4.739  0.00  0.00    +0.003 A 
ATOM     27  C   UNL     1       6.681   8.133  -3.811  0.00  0.00    +0.002 A 
ATOM     28  C   UNL     1       6.966   8.289  -2.468  0.00  0.00    -0.064 A 
ATOM     29  C   UNL     1       8.275   8.441  -2.052  0.00  0.00    +0.002 A 
ATOM     30  C   UNL     1       9.301   8.428  -2.979  0.00  0.00    +0.003 A 
ENDBRANCH  23  28
ENDBRANCH  20  23
ENDBRANCH   1  20
TORSDOF 6
