REMARK  Name = ZINC06105086
REMARK  9 active torsions:
REMARK  status: ('A' for Active; 'I' for Inactive)
REMARK    1  A    between atoms: C_1  and  C_2
REMARK    2  A    between atoms: C_5  and  N_9
REMARK    3  A    between atoms: C_6  and  C_8
REMARK    4  A    between atoms: C_13  and  S_14
REMARK    5  A    between atoms: S_14  and  C_15
REMARK    6  A    between atoms: C_15  and  C_16
REMARK    7  A    between atoms: N_21  and  C_22
REMARK    8  A    between atoms: C_22  and  C_23
REMARK    9  A    between atoms: C_22  and  C_24
REMARK                            x       y       z     vdW  Elec       q    Type
REMARK                         _______ _______ _______ _____ _____    ______ ____
ROOT
ATOM      1  N   UNL     1       1.315  -0.393  -0.013  0.00  0.00    -0.277 N 
ATOM      2  C   UNL     1       0.002  -0.004   0.002  0.00  0.00    +0.230 A 
ATOM      3  N   UNL     1      -0.016   1.299   0.009  0.00  0.00    -0.137 NA
ATOM      4  N   UNL     1       1.185   1.758   0.000  0.00  0.00    -0.122 NA
ATOM      5  C   UNL     1       2.043   0.765  -0.013  0.00  0.00    +0.196 A 
ENDROOT
BRANCH   1  10
ATOM      6  C   UNL     1       3.320  -5.704  -0.064  0.00  0.00    +0.044 C 
ATOM      7  C   UNL     1       2.787  -4.294  -0.050  0.00  0.00    -0.050 A 
ATOM      8  C   UNL     1       2.059  -3.821  -1.126  0.00  0.00    +0.005 A 
ATOM      9  C   UNL     1       1.570  -2.529  -1.117  0.00  0.00    +0.027 A 
ATOM     10  C   UNL     1       1.810  -1.706  -0.025  0.00  0.00    +0.053 A 
ATOM     11  C   UNL     1       2.546  -2.181   1.051  0.00  0.00    -0.026 A 
ATOM     12  C   UNL     1       3.028  -3.476   1.038  0.00  0.00    +0.008 A 
ATOM     13  C   UNL     1       2.814  -1.288   2.235  0.00  0.00    +0.046 C 
ENDBRANCH   1  10
BRANCH   5  14
ATOM     14  S   UNL     1       3.800   0.898  -0.029  0.00  0.00    -0.076 S 
BRANCH  14  15
ATOM     15  C   UNL     1       3.979   2.700  -0.021  0.00  0.00    +0.173 C 
BRANCH  15  16
ATOM     16  C   UNL     1       5.442   3.059  -0.034  0.00  0.00    +0.231 C 
ATOM     17  O   UNL     1       6.281   2.185  -0.046  0.00  0.00    -0.274 OA
ATOM     18  N   UNL     1       5.818   4.354  -0.030  0.00  0.00    -0.239 N 
ATOM     19  C   UNL     1       7.126   4.676  -0.041  0.00  0.00    +0.306 C 
ATOM     20  O   UNL     1       7.968   3.799  -0.054  0.00  0.00    -0.252 OA
ATOM     21  N   UNL     1       7.502   5.970  -0.037  0.00  0.00    -0.297 N 
ATOM     22  H   UNL     1       5.146   5.054  -0.020  0.00  0.00    +0.159 HD
ATOM     23  H   UNL     1       6.830   6.670  -0.027  0.00  0.00    +0.151 HD
BRANCH  21  24
ATOM     24  C   UNL     1       8.925   6.320  -0.049  0.00  0.00    +0.068 C 
ATOM     25  C   UNL     1       9.102   7.715  -0.653  0.00  0.00    +0.027 C 
ATOM     26  C   UNL     1       9.463   6.312   1.383  0.00  0.00    +0.027 C 
ENDBRANCH  21  24
ENDBRANCH  15  16
ENDBRANCH  14  15
ENDBRANCH   5  14
TORSDOF 5
