REMARK  Name = ZINC35877900
REMARK  12 active torsions:
REMARK  status: ('A' for Active; 'I' for Inactive)
REMARK    1  A    between atoms: C_1  and  C_2
REMARK    2  A    between atoms: C_5  and  C_8
REMARK    3  A    between atoms: C_8  and  C_9
REMARK    4  A    between atoms: C_8  and  C_16
REMARK    5  A    between atoms: C_8  and  O_23
REMARK    6  A    between atoms: C_12  and  C_15
REMARK    7  A    between atoms: C_19  and  C_22
REMARK    8  A    between atoms: O_23  and  C_24
REMARK    9  A    between atoms: C_24  and  C_25
REMARK   10  A    between atoms: C_27  and  O_43
REMARK   11  A    between atoms: C_29  and  O_42
REMARK   12  A    between atoms: C_31  and  N_34
REMARK                            x       y       z     vdW  Elec       q    Type
REMARK                         _______ _______ _______ _____ _____    ______ ____
ROOT
ATOM      1  C   UNL     1       0.059  -4.275  -0.021  0.00  0.00    +0.144 C 
ENDROOT
BRANCH   1   6
ATOM      2  C   UNL     1      -1.454   1.222   0.917  0.00  0.00    +0.044 C 
ATOM      3  C   UNL     1      -1.059  -0.211   0.672  0.00  0.00    -0.050 A 
ATOM      4  C   UNL     1      -0.848  -0.659  -0.618  0.00  0.00    +0.004 A 
ATOM      5  C   UNL     1      -0.486  -1.975  -0.843  0.00  0.00    +0.007 A 
ATOM      6  C   UNL     1      -0.334  -2.841   0.223  0.00  0.00    -0.007 A 
ATOM      7  C   UNL     1      -0.544  -2.393   1.514  0.00  0.00    +0.007 A 
ATOM      8  C   UNL     1      -0.902  -1.077   1.739  0.00  0.00    +0.004 A 
ENDBRANCH   1   6
BRANCH   1   9
ATOM      9  C   UNL     1       0.887  -4.773   1.135  0.00  0.00    -0.007 A 
ATOM     10  C   UNL     1       0.662  -6.035   1.654  0.00  0.00    +0.007 A 
ATOM     11  C   UNL     1       1.421  -6.492   2.715  0.00  0.00    +0.004 A 
ATOM     12  C   UNL     1       2.406  -5.687   3.257  0.00  0.00    -0.050 A 
ATOM     13  C   UNL     1       2.632  -4.426   2.738  0.00  0.00    +0.004 A 
ATOM     14  C   UNL     1       1.876  -3.971   1.674  0.00  0.00    +0.007 A 
ATOM     15  C   UNL     1       3.233  -6.185   4.414  0.00  0.00    +0.044 C 
ENDBRANCH   1   9
BRANCH   1  16
ATOM     16  C   UNL     1      -1.181  -5.121  -0.153  0.00  0.00    -0.007 A 
ATOM     17  C   UNL     1      -2.335  -4.765   0.519  0.00  0.00    +0.007 A 
ATOM     18  C   UNL     1      -3.472  -5.541   0.399  0.00  0.00    +0.004 A 
ATOM     19  C   UNL     1      -3.456  -6.673  -0.394  0.00  0.00    -0.050 A 
ATOM     20  C   UNL     1      -2.302  -7.029  -1.067  0.00  0.00    +0.004 A 
ATOM     21  C   UNL     1      -1.166  -6.251  -0.950  0.00  0.00    +0.007 A 
ATOM     22  C   UNL     1      -4.696  -7.520  -0.524  0.00  0.00    +0.044 C 
ENDBRANCH   1  16
BRANCH   1  23
ATOM     23  O   UNL     1       0.824  -4.361  -1.226  0.00  0.00    -0.357 OA
BRANCH  23  24
ATOM     24  C   UNL     1       2.027  -3.590  -1.206  0.00  0.00    +0.196 C 
BRANCH  24  25
ATOM     25  C   UNL     1       2.761  -3.756  -2.539  0.00  0.00    +0.178 C 
ATOM     26  C   UNL     1       4.023  -2.857  -2.573  0.00  0.00    +0.178 C 
ATOM     27  C   UNL     1       4.897  -3.617  -3.608  0.00  0.00    +0.197 C 
ATOM     28  C   UNL     1       4.524  -5.090  -3.333  0.00  0.00    +0.273 C 
ATOM     29  O   UNL     1       3.250  -5.099  -2.675  0.00  0.00    -0.344 OA
BRANCH  28  30
ATOM     30  N   UNL     1       4.435  -5.824  -4.598  0.00  0.00    -0.181 N 
ATOM     31  C   UNL     1       5.000  -7.041  -4.693  0.00  0.00    +0.369 A 
ATOM     32  O   UNL     1       5.578  -7.518  -3.730  0.00  0.00    -0.243 OA
ATOM     33  N   UNL     1       4.933  -7.732  -5.835  0.00  0.00    -0.176 NA
ATOM     34  C   UNL     1       4.301  -7.200  -6.875  0.00  0.00    +0.142 A 
ATOM     35  C   UNL     1       3.720  -5.917  -6.734  0.00  0.00    +0.176 A 
ATOM     36  N   UNL     1       3.814  -5.293  -5.592  0.00  0.00    -0.170 NA
ATOM     37  N   UNL     1       4.212  -7.883  -8.065  0.00  0.00    -0.342 N 
ATOM     38  H   UNL     1       4.614  -8.762  -8.152  0.00  0.00    +0.144 HD
ATOM     39  H   UNL     1       3.748  -7.486  -8.819  0.00  0.00    +0.144 HD
ENDBRANCH  28  30
BRANCH  27  40
ATOM     40  O   UNL     1       4.550  -3.240  -4.942  0.00  0.00    -0.385 OA
ATOM     41  H   UNL     1       5.068  -3.688  -5.624  0.00  0.00    +0.210 HD
ENDBRANCH  27  40
BRANCH  26  42
ATOM     42  O   UNL     1       3.706  -1.542  -3.033  0.00  0.00    -0.386 OA
ATOM     43  H   UNL     1       4.466  -0.945  -3.071  0.00  0.00    +0.210 HD
ENDBRANCH  26  42
ENDBRANCH  24  25
ENDBRANCH  23  24
ENDBRANCH   1  23
TORSDOF 9
