REMARK  Name = ZINC23435875
REMARK  5 active torsions:
REMARK  status: ('A' for Active; 'I' for Inactive)
REMARK    1  A    between atoms: C_1  and  C_2
REMARK    2  A    between atoms: C_7  and  C_8
REMARK    3  A    between atoms: N_10  and  C_11
REMARK    4  A    between atoms: C_11  and  C_13
REMARK    5  A    between atoms: C_11  and  C_14
REMARK                            x       y       z     vdW  Elec       q    Type
REMARK                         _______ _______ _______ _____ _____    ______ ____
ROOT
ATOM      1  C   UNL     1       3.972   2.993  -0.020  0.00  0.00    +0.047 C 
ATOM      2  C   UNL     1       3.667   1.517  -0.025  0.00  0.00    -0.010 A 
ATOM      3  C   UNL     1       4.598   0.471  -0.039  0.00  0.00    +0.042 A 
ATOM      4  C   UNL     1       3.886  -0.729  -0.041  0.00  0.00    +0.027 A 
ATOM      5  N   UNL     1       2.586  -0.434  -0.019  0.00  0.00    -0.354 N 
ATOM      6  H   UNL     1       1.839  -1.242  -0.007  0.00  0.00    +0.166 HD
ATOM      7  C   UNL     1       2.428   0.939  -0.016  0.00  0.00    +0.106 A 
ATOM      8  C   UNL     1       4.557  -2.079  -0.059  0.00  0.00    +0.054 C 
ATOM      9  C   UNL     1       5.989  -1.923  -0.579  0.00  0.00    +0.014 C 
ATOM     10  C   UNL     1       6.738  -0.846   0.212  0.00  0.00    +0.080 C 
ATOM     11  C   UNL     1       6.068   0.495  -0.049  0.00  0.00    +0.165 C 
ATOM     12  O   UNL     1       6.701   1.510  -0.250  0.00  0.00    -0.292 OA
ENDROOT
BRANCH   7  13
ATOM     13  C   UNL     1       1.147   1.655   0.000  0.00  0.00    +0.261 C 
ATOM     14  O   UNL     1       1.130   2.872   0.007  0.00  0.00    -0.269 OA
ATOM     15  N   UNL     1      -0.011   0.966   0.007  0.00  0.00    -0.303 N 
ATOM     16  H   UNL     1       0.004  -0.134   0.006  0.00  0.00    +0.150 HD
BRANCH  15  17
ATOM     17  C   UNL     1      -1.290   1.681   0.017  0.00  0.00    +0.107 C 
ATOM     18  C   UNL     1      -1.667   2.032   1.458  0.00  0.00    +0.033 C 
BRANCH  17  19
ATOM     19  C   UNL     1      -2.360   0.806  -0.583  0.00  0.00    +0.010 A 
ATOM     20  C   UNL     1      -3.373   1.146  -1.416  0.00  0.00    +0.013 A 
ATOM     21  C   UNL     1      -4.246   0.164  -1.846  0.00  0.00    +0.008 A 
ATOM     22  C   UNL     1      -4.062  -1.110  -1.422  0.00  0.00    +0.045 A 
ATOM     23  S   UNL     1      -2.616  -0.950  -0.387  0.00  0.00    -0.100 S 
ENDBRANCH  17  19
ENDBRANCH  15  17
ENDBRANCH   7  13
TORSDOF 3
