REMARK  Name = ZINC09690464
REMARK  7 active torsions:
REMARK  status: ('A' for Active; 'I' for Inactive)
REMARK    1  A    between atoms: C_1  and  C_2
REMARK    2  A    between atoms: C_2  and  C_4
REMARK    3  A    between atoms: C_2  and  S_13
REMARK    4  A    between atoms: N_9  and  C_10
REMARK    5  A    between atoms: C_10  and  C_11
REMARK    6  A    between atoms: C_10  and  C_12
REMARK    7  A    between atoms: S_13  and  C_14
REMARK                            x       y       z     vdW  Elec       q    Type
REMARK                         _______ _______ _______ _____ _____    ______ ____
ROOT
ATOM      1  C   UNL     1       2.533  -0.042   1.241  0.00  0.00    +0.171 A 
ATOM      2  N   UNL     1       3.480  -0.332   2.180  0.00  0.00    -0.301 N 
ATOM      3  H   UNL     1       3.231  -0.845   2.964  0.00  0.00    +0.171 HD
ATOM      4  C   UNL     1       4.753   0.081   2.038  0.00  0.00    +0.261 A 
ATOM      5  O   UNL     1       5.588  -0.186   2.886  0.00  0.00    -0.267 OA
ATOM      6  C   UNL     1       5.114   0.838   0.879  0.00  0.00    +0.075 A 
ATOM      7  C   UNL     1       6.425   1.384   0.524  0.00  0.00    -0.023 A 
ATOM      8  C   UNL     1       6.510   2.068  -0.635  0.00  0.00    -0.004 A 
ATOM      9  S   UNL     1       4.873   2.027  -1.315  0.00  0.00    -0.073 S 
ATOM     10  C   UNL     1       4.077   1.089  -0.035  0.00  0.00    +0.117 A 
ATOM     11  N   UNL     1       2.840   0.648   0.161  0.00  0.00    -0.216 NA
ATOM     12  C   UNL     1       7.726   2.721  -1.218  0.00  0.00    +0.043 C 
ATOM     13  C   UNL     1       8.796   2.819  -0.120  0.00  0.00    +0.005 C 
ATOM     14  C   UNL     1       8.908   1.461   0.578  0.00  0.00    +0.005 C 
ATOM     15  C   UNL     1       7.653   1.200   1.411  0.00  0.00    +0.037 C 
ENDROOT
BRANCH   1  16
ATOM     16  S   UNL     1       0.879  -0.605   1.472  0.00  0.00    -0.075 S 
BRANCH  16  18
ATOM     17  C   UNL     1      -0.019   1.526   0.010  0.00  0.00    +0.029 C 
ATOM     18  C   UNL     1       0.002  -0.004   0.002  0.00  0.00    +0.137 C 
BRANCH  18  19
ATOM     19  C   UNL     1      -1.412  -0.526   0.013  0.00  0.00    +0.233 C 
ATOM     20  O   UNL     1      -1.939  -0.827   1.062  0.00  0.00    -0.274 OA
ATOM     21  N   UNL     1      -2.090  -0.657  -1.144  0.00  0.00    -0.239 N 
ATOM     22  C   UNL     1      -3.355  -1.124  -1.135  0.00  0.00    +0.306 C 
ATOM     23  O   UNL     1      -3.883  -1.426  -0.083  0.00  0.00    -0.252 OA
ATOM     24  N   UNL     1      -4.033  -1.255  -2.292  0.00  0.00    -0.297 N 
ATOM     25  H   UNL     1      -1.669  -0.416  -1.984  0.00  0.00    +0.159 HD
ATOM     26  H   UNL     1      -3.611  -1.014  -3.131  0.00  0.00    +0.151 HD
BRANCH  24  27
ATOM     27  C   UNL     1      -5.408  -1.762  -2.281  0.00  0.00    +0.068 C 
ATOM     28  C   UNL     1      -6.148  -1.256  -3.521  0.00  0.00    +0.027 C 
ATOM     29  C   UNL     1      -5.387  -3.292  -2.290  0.00  0.00    +0.027 C 
ENDBRANCH  24  27
ENDBRANCH  18  19
ENDBRANCH  16  18
ENDBRANCH   1  16
TORSDOF 4
