REMARK  Name = ZINC63557634
REMARK  10 active torsions:
REMARK  status: ('A' for Active; 'I' for Inactive)
REMARK    1  A    between atoms: C_1  and  C_2
REMARK    2  A    between atoms: C_2  and  O_3
REMARK    3  A    between atoms: O_3  and  C_4
REMARK    4  A    between atoms: C_4  and  C_5
REMARK    5  A    between atoms: C_5  and  C_6
REMARK    6  A    between atoms: C_10  and  N_13
REMARK    7  A    between atoms: C_14  and  C_16
REMARK    8  A    between atoms: N_21  and  C_23
REMARK    9  A    between atoms: C_23  and  C_24
REMARK   10  A    between atoms: C_24  and  C_25
REMARK                            x       y       z     vdW  Elec       q    Type
REMARK                         _______ _______ _______ _____ _____    ______ ____
ROOT
ATOM      1  C   UNL     1      -2.194  -8.219  -5.142  0.00  0.00    +0.101 C 
ATOM      2  C   UNL     1      -1.472  -9.103  -6.186  0.00  0.00    +0.110 C 
ATOM      3  C   UNL     1      -2.582  -9.919  -6.812  0.00  0.00    +0.216 C 
ATOM      4  O   UNL     1      -2.417 -10.924  -7.471  0.00  0.00    -0.276 OA
ATOM      5  N   UNL     1      -3.775  -9.369  -6.531  0.00  0.00    -0.300 N 
ATOM      6  C   UNL     1      -3.626  -8.155  -5.719  0.00  0.00    +0.121 C 
ENDROOT
BRANCH   1   8
ATOM      7  N   UNL     1      -0.303  -6.699  -4.660  0.00  0.00    -0.290 N 
ATOM      8  C   UNL     1      -1.576  -6.846  -5.078  0.00  0.00    +0.220 C 
ATOM      9  O   UNL     1      -2.224  -5.873  -5.403  0.00  0.00    -0.275 OA
ATOM     10  H   UNL     1       0.215  -7.476  -4.401  0.00  0.00    +0.151 HD
BRANCH   7  14
ATOM     11  C   UNL     1       1.558  -3.789  -2.683  0.00  0.00    +0.132 C 
ATOM     12  N   UNL     1       2.302  -4.196  -3.907  0.00  0.00    -0.241 NA
ATOM     13  N   UNL     1       1.786  -5.441  -4.466  0.00  0.00    -0.227 NA
ATOM     14  C   UNL     1       0.297  -5.364  -4.598  0.00  0.00    +0.216 C 
ATOM     15  S   UNL     1      -0.104  -4.517  -3.007  0.00  0.00    -0.102 S 
ATOM     16  H   UNL     1       3.291  -4.265  -3.723  0.00  0.00    +0.142 HD
ATOM     17  H   UNL     1       2.059  -6.231  -3.901  0.00  0.00    +0.143 HD
BRANCH  11  18
ATOM     18  C   UNL     1       1.478  -2.265  -2.569  0.00  0.00    +0.059 C 
BRANCH  18  19
ATOM     19  C   UNL     1       0.746  -1.888  -1.280  0.00  0.00    +0.162 C 
BRANCH  19  20
ATOM     20  O   UNL     1       0.671  -0.465  -1.174  0.00  0.00    -0.380 OA
BRANCH  20  22
ATOM     21  C   UNL     1      -0.019   1.526   0.010  0.00  0.00    +0.034 C 
ATOM     22  C   UNL     1       0.002  -0.004   0.002  0.00  0.00    +0.156 C 
ENDBRANCH  20  22
ENDBRANCH  19  20
ENDBRANCH  18  19
ENDBRANCH  11  18
ENDBRANCH   7  14
ENDBRANCH   1   8
BRANCH   5  23
ATOM     23  C   UNL     1      -5.061  -9.912  -6.976  0.00  0.00    +0.112 C 
BRANCH  23  24
ATOM     24  C   UNL     1      -5.591 -10.893  -5.928  0.00  0.00    +0.052 C 
BRANCH  24  25
ATOM     25  C   UNL     1      -6.913 -11.451  -6.386  0.00  0.00    -0.040 C 
ATOM     26  C   UNL     1      -7.120 -12.614  -7.046  0.00  0.00    +0.000 A 
ATOM     27  C   UNL     1      -6.211 -13.665  -7.517  0.00  0.00    +0.030 A 
ATOM     28  C   UNL     1      -6.726 -14.737  -8.164  0.00  0.00    +0.042 A 
ATOM     29  C   UNL     1      -8.103 -14.867  -8.395  0.00  0.00    +0.022 A 
ATOM     30  C   UNL     1      -9.000 -13.943  -7.992  0.00  0.00    +0.027 A 
ATOM     31  C   UNL     1      -8.570 -12.775  -7.302  0.00  0.00    +0.043 A 
ATOM     32  N   UNL     1      -9.233 -11.753  -6.819  0.00  0.00    -0.380 N 
ATOM     33  C   UNL     1      -8.278 -10.829  -6.196  0.00  0.00    +0.144 C 
ATOM     34 CL   UNL     1      -5.653 -15.982  -8.723  0.00  0.00    -0.084 Cl
ATOM     35  H   UNL     1     -10.194 -11.630  -6.863  0.00  0.00    +0.160 HD
ENDBRANCH  24  25
ENDBRANCH  23  24
ENDBRANCH   5  23
TORSDOF 9
