REMARK  Name = ZINC21164603
REMARK  8 active torsions:
REMARK  status: ('A' for Active; 'I' for Inactive)
REMARK    1  A    between atoms: C_1  and  C_2
REMARK    2  A    between atoms: C_2  and  N_3
REMARK    3  A    between atoms: N_6  and  C_9
REMARK    4  A    between atoms: C_9  and  C_10
REMARK    5  A    between atoms: C_10  and  N_11
REMARK    6  A    between atoms: C_12  and  C_14
REMARK    7  A    between atoms: C_26  and  C_31
REMARK    8  A    between atoms: C_29  and  C_30
REMARK                            x       y       z     vdW  Elec       q    Type
REMARK                         _______ _______ _______ _____ _____    ______ ____
ROOT
ATOM      1  C   UNL     1      -1.330   1.944   0.019  0.00  0.00    +0.078 C 
ATOM      2  C   UNL     1      -1.421   2.811   1.278  0.00  0.00    +0.032 C 
ATOM      3  C   UNL     1      -2.783   3.508   1.313  0.00  0.00    +0.108 C 
ATOM      4  N   UNL     1      -3.851   2.500   1.313  0.00  0.00    -0.308 N 
ATOM      5  C   UNL     1      -3.812   1.686   0.091  0.00  0.00    +0.108 C 
ATOM      6  C   UNL     1      -2.481   0.935   0.019  0.00  0.00    +0.032 C 
ATOM      7  C   UNL     1      -5.095   3.093   1.476  0.00  0.00    +0.186 A 
ATOM      8  N   UNL     1      -6.180   3.020   0.718  0.00  0.00    -0.124 NA
ATOM      9  N   UNL     1      -7.243   3.630   1.016  0.00  0.00    -0.121 NA
ATOM     10  C   UNL     1      -7.342   4.378   2.102  0.00  0.00    +0.202 A 
ATOM     11  S   UNL     1      -5.697   4.168   2.776  0.00  0.00    -0.013 S 
ATOM     12  N   UNL     1      -8.423   5.116   2.587  0.00  0.00    -0.296 N 
ATOM     13  C   UNL     1      -8.429   5.860   3.733  0.00  0.00    +0.023 A 
ATOM     14  C   UNL     1      -9.647   6.426   3.861  0.00  0.00    +0.023 A 
ATOM     15  C   UNL     1     -10.425   6.010   2.761  0.00  0.00    +0.023 A 
ATOM     16  C   UNL     1      -9.652   5.211   1.998  0.00  0.00    +0.023 A 
ATOM     17  C   UNL     1     -10.072   4.538   0.717  0.00  0.00    +0.064 C 
ATOM     18  C   UNL     1      -7.274   6.023   4.687  0.00  0.00    +0.064 C 
ENDROOT
BRANCH   1  20
ATOM     19  N   UNL     1       1.143   1.898   0.001  0.00  0.00    -0.314 N 
ATOM     20  C   UNL     1      -0.014   1.209   0.009  0.00  0.00    +0.216 C 
ATOM     21  O   UNL     1       0.002  -0.004   0.002  0.00  0.00    -0.276 OA
ATOM     22  H   UNL     1       1.129   2.998   0.007  0.00  0.00    +0.149 HD
BRANCH  19  23
ATOM     23  C   UNL     1       2.422   1.183  -0.015  0.00  0.00    +0.119 C 
BRANCH  23  24
ATOM     24  C   UNL     1       3.571   2.193  -0.020  0.00  0.00    +0.103 C 
BRANCH  24  28
ATOM     25  N   UNL     1       7.477   0.858   0.881  0.00  0.00    +0.381 N 
ATOM     26  C   UNL     1       7.275   1.605  -0.369  0.00  0.00    -0.063 C 
ATOM     27  C   UNL     1       5.970   2.399  -0.280  0.00  0.00    +0.066 C 
ATOM     28  N   UNL     1       4.853   1.476  -0.036  0.00  0.00    -0.304 NA
ATOM     29  C   UNL     1       5.055   0.729   1.213  0.00  0.00    +0.066 C 
ATOM     30  C   UNL     1       6.360  -0.065   1.125  0.00  0.00    -0.063 C 
ATOM     31  H   UNL     1       7.506   1.582   1.708  0.00  0.00    -0.082 HD
BRANCH  25  33
ATOM     32  C   UNL     1       9.049  -0.416   2.260  0.00  0.00    -0.017 C 
ATOM     33  C   UNL     1       8.759   0.141   0.865  0.00  0.00    -0.082 C 
ENDBRANCH  25  33
ENDBRANCH  24  28
ENDBRANCH  23  24
ENDBRANCH  19  23
ENDBRANCH   1  20
TORSDOF 5
