REMARK  Name = ZINC09348333
REMARK  11 active torsions:
REMARK  status: ('A' for Active; 'I' for Inactive)
REMARK    1  A    between atoms: C_1  and  C_2
REMARK    2  A    between atoms: C_7  and  C_8
REMARK    3  A    between atoms: C_10  and  C_31
REMARK    4  A    between atoms: C_15  and  S_19
REMARK    5  A    between atoms: C_16  and  C_17
REMARK    6  A    between atoms: S_19  and  C_20
REMARK    7  A    between atoms: C_20  and  C_21
REMARK    8  A    between atoms: N_23  and  C_24
REMARK    9  A    between atoms: C_29  and  C_30
REMARK   10  A    between atoms: C_31  and  O_33
REMARK   11  A    between atoms: O_33  and  C_34
REMARK                            x       y       z     vdW  Elec       q    Type
REMARK                         _______ _______ _______ _____ _____    ______ ____
ROOT
ATOM      1  C   UNL     1      -1.041  -0.753   2.411  0.00  0.00    +0.085 C 
ATOM      2  C   UNL     1      -1.013  -0.817   3.940  0.00  0.00    +0.200 C 
ATOM      3  C   UNL     1       0.160  -0.026   4.457  0.00  0.00    +0.262 C 
ATOM      4  O   UNL     1       0.043   0.645   5.617  0.00  0.00    -0.270 OA
ATOM      5  N   UNL     1       1.281   0.021   3.804  0.00  0.00    -0.205 NA
ATOM      6  C   UNL     1       1.441  -0.597   2.611  0.00  0.00    +0.115 C 
ATOM      7  C   UNL     1       0.348  -1.015   1.881  0.00  0.00    +0.070 C 
ENDROOT
BRANCH   1  14
ATOM      8  C   UNL     1      -3.757  -0.032   1.738  0.00  0.00    +0.044 C 
ATOM      9  C   UNL     1      -3.288  -1.453   1.558  0.00  0.00    -0.047 A 
ATOM     10  C   UNL     1      -4.155  -2.410   1.065  0.00  0.00    +0.003 A 
ATOM     11  C   UNL     1      -3.725  -3.713   0.901  0.00  0.00    +0.000 A 
ATOM     12  C   UNL     1      -2.427  -4.059   1.228  0.00  0.00    +0.000 A 
ATOM     13  C   UNL     1      -1.560  -3.102   1.719  0.00  0.00    +0.004 A 
ATOM     14  C   UNL     1      -1.989  -1.798   1.880  0.00  0.00    -0.035 A 
ENDBRANCH   1  14
BRANCH   7  15
ATOM     15  C   UNL     1       0.528  -1.694   0.633  0.00  0.00    +0.098 C 
ATOM     16  N   UNL     1       0.671  -2.232  -0.357  0.00  0.00    -0.191 NA
ENDBRANCH   7  15
BRANCH   2  17
ATOM     17  C   UNL     1      -0.883  -2.252   4.380  0.00  0.00    +0.320 C 
ATOM     18  O   UNL     1       0.004  -2.942   3.936  0.00  0.00    -0.250 OA
BRANCH  17  19
ATOM     19  O   UNL     1      -1.752  -2.764   5.266  0.00  0.00    -0.467 OA
ATOM     20  C   UNL     1      -1.569  -4.131   5.639  0.00  0.00    +0.280 C 
ENDBRANCH  17  19
ENDBRANCH   2  17
BRANCH   6  21
ATOM     21  S   UNL     1       3.064  -0.868   1.980  0.00  0.00    -0.095 S 
BRANCH  21  22
ATOM     22  C   UNL     1       4.152  -0.165   3.251  0.00  0.00    +0.172 C 
BRANCH  22  23
ATOM     23  C   UNL     1       5.589  -0.333   2.830  0.00  0.00    +0.227 C 
ATOM     24  O   UNL     1       5.854  -0.874   1.777  0.00  0.00    -0.275 OA
ATOM     25  N   UNL     1       6.580   0.117   3.624  0.00  0.00    -0.285 N 
ATOM     26  H   UNL     1       6.369   0.635   4.417  0.00  0.00    +0.155 HD
BRANCH  25  27
ATOM     27  C   UNL     1       7.914  -0.161   3.305  0.00  0.00    +0.036 A 
ATOM     28  C   UNL     1       8.213  -1.070   2.299  0.00  0.00    +0.023 A 
ATOM     29  C   UNL     1       9.530  -1.343   1.986  0.00  0.00    +0.002 A 
ATOM     30  C   UNL     1      10.551  -0.712   2.674  0.00  0.00    +0.000 A 
ATOM     31  C   UNL     1      10.256   0.194   3.676  0.00  0.00    +0.005 A 
ATOM     32  C   UNL     1       8.941   0.476   3.989  0.00  0.00    -0.029 A 
ATOM     33  C   UNL     1       8.620   1.468   5.077  0.00  0.00    +0.045 C 
ENDBRANCH  25  27
ENDBRANCH  22  23
ENDBRANCH  21  22
ENDBRANCH   6  21
TORSDOF 8
