REMARK  Name = ZINC14655818
REMARK  11 active torsions:
REMARK  status: ('A' for Active; 'I' for Inactive)
REMARK    1  A    between atoms: C_1  and  C_2
REMARK    2  A    between atoms: C_2  and  O_3
REMARK    3  A    between atoms: O_3  and  C_4
REMARK    4  A    between atoms: C_9  and  C_10
REMARK    5  A    between atoms: N_12  and  C_13
REMARK    6  A    between atoms: C_13  and  N_15
REMARK    7  A    between atoms: N_15  and  N_16
REMARK    8  A    between atoms: C_17  and  C_19
REMARK    9  A    between atoms: C_19  and  C_21
REMARK   10  A    between atoms: C_19  and  O_22
REMARK   11  A    between atoms: O_22  and  C_23
REMARK                            x       y       z     vdW  Elec       q    Type
REMARK                         _______ _______ _______ _____ _____    ______ ____
ROOT
ATOM      1  N   UNL     1       1.180   2.029   0.265  0.00  0.00    -0.245 N 
ATOM      2  H   UNL     1       1.105   2.984   0.113  0.00  0.00    +0.172 HD
ENDROOT
BRANCH   1   3
ATOM      3  N   UNL     1       0.027   1.236   0.325  0.00  0.00    -0.232 N 
ATOM      4  C   UNL     1      -1.187   1.799   0.166  0.00  0.00    +0.270 C 
ATOM      5  O   UNL     1      -1.281   2.993  -0.024  0.00  0.00    -0.270 OA
ATOM      6  H   UNL     1       0.102   0.281   0.477  0.00  0.00    +0.173 HD
BRANCH   4   7
ATOM      7  C   UNL     1      -2.428   0.945   0.224  0.00  0.00    +0.257 C 
ATOM      8  C   UNL     1      -2.367  -0.118  -0.874  0.00  0.00    +0.062 C 
BRANCH   7   9
ATOM      9  O   UNL     1      -3.581   1.766   0.029  0.00  0.00    -0.480 OA
BRANCH   9  10
ATOM     10  C   UNL     1      -4.754   1.314   0.543  0.00  0.00    +0.122 A 
ATOM     11  C   UNL     1      -4.809   0.044   1.125  0.00  0.00    +0.046 A 
ATOM     12  C   UNL     1      -5.968  -0.436   1.649  0.00  0.00    +0.012 A 
ATOM     13  C   UNL     1      -7.131   0.353   1.607  0.00  0.00    -0.018 A 
ATOM     14  C   UNL     1      -8.346  -0.112   2.139  0.00  0.00    +0.008 A 
ATOM     15  C   UNL     1      -9.453   0.679   2.082  0.00  0.00    +0.001 A 
ATOM     16  C   UNL     1      -9.401   1.945   1.502  0.00  0.00    +0.001 A 
ATOM     17  C   UNL     1      -8.242   2.428   0.977  0.00  0.00    +0.008 A 
ATOM     18  C   UNL     1      -7.079   1.641   1.018  0.00  0.00    -0.014 A 
ATOM     19  C   UNL     1      -5.864   2.109   0.491  0.00  0.00    +0.054 A 
ENDBRANCH   9  10
ENDBRANCH   7   9
ENDBRANCH   4   7
ENDBRANCH   1   3
BRANCH   1  20
ATOM     20  C   UNL     1       2.395   1.465   0.419  0.00  0.00    +0.153 C 
ATOM     21  S   UNL     1       3.804   2.434   0.346  0.00  0.00    -0.017 S 
BRANCH  20  24
ATOM     22  C   UNL     1       3.714  -0.426   0.784  0.00  0.00    +0.253 C 
ATOM     23  O   UNL     1       4.714   0.262   0.732  0.00  0.00    -0.270 OA
ATOM     24  N   UNL     1       2.499   0.138   0.630  0.00  0.00    -0.263 N 
ATOM     25  H   UNL     1       1.701  -0.411   0.672  0.00  0.00    +0.157 HD
BRANCH  22  31
ATOM     26  C   UNL     1       5.089  -2.469   1.176  0.00  0.00    +0.133 A 
ATOM     27  C   UNL     1       5.185  -3.836   1.393  0.00  0.00    +0.047 A 
ATOM     28  C   UNL     1       4.044  -4.609   1.450  0.00  0.00    +0.019 A 
ATOM     29  C   UNL     1       2.795  -4.029   1.292  0.00  0.00    +0.019 A 
ATOM     30  C   UNL     1       2.680  -2.672   1.081  0.00  0.00    +0.032 A 
ATOM     31  C   UNL     1       3.828  -1.878   1.015  0.00  0.00    +0.080 A 
ATOM     32 BR   UNL     1       1.240  -5.104   1.375  0.00  0.00    -0.050 Br
BRANCH  26  33
ATOM     33  O   UNL     1       6.210  -1.708   1.119  0.00  0.00    -0.491 OA
BRANCH  33  35
ATOM     34  C   UNL     1       8.601  -1.365   1.196  0.00  0.00    +0.048 C 
ATOM     35  C   UNL     1       7.460  -2.379   1.291  0.00  0.00    +0.226 C 
ENDBRANCH  33  35
ENDBRANCH  26  33
ENDBRANCH  22  31
ENDBRANCH  20  24
ENDBRANCH   1  20
TORSDOF 9
