REMARK  Name = ZINC49574760
REMARK  11 active torsions:
REMARK  status: ('A' for Active; 'I' for Inactive)
REMARK    1  A    between atoms: C_1  and  C_2
REMARK    2  A    between atoms: C_2  and  C_4
REMARK    3  A    between atoms: C_2  and  N_14
REMARK    4  A    between atoms: C_7  and  S_10
REMARK    5  A    between atoms: S_10  and  N_13
REMARK    6  A    between atoms: N_14  and  C_15
REMARK    7  A    between atoms: N_14  and  C_16
REMARK    8  A    between atoms: C_16  and  C_17
REMARK    9  A    between atoms: N_19  and  C_20
REMARK   10  A    between atoms: N_19  and  C_26
REMARK   11  A    between atoms: C_20  and  C_21
REMARK                            x       y       z     vdW  Elec       q    Type
REMARK                         _______ _______ _______ _____ _____    ______ ____
ROOT
ATOM      1  C   UNL     1      -2.795  -2.555   0.224  0.00  0.00    +0.200 C 
ATOM      2  O   UNL     1      -3.724  -1.778   0.290  0.00  0.00    -0.278 OA
ATOM      3  N   UNL     1      -3.028  -3.881   0.153  0.00  0.00    -0.290 N 
ENDROOT
BRANCH   3   4
ATOM      4  C   UNL     1      -4.398  -4.390   0.257  0.00  0.00    +0.039 C 
ATOM      5  C   UNL     1      -5.024  -3.905   1.566  0.00  0.00    +0.029 C 
ATOM      6  C   UNL     1      -6.454  -4.437   1.675  0.00  0.00    -0.008 C 
ATOM      7  C   UNL     1      -7.280  -3.924   0.494  0.00  0.00    +0.007 C 
ATOM      8  C   UNL     1      -6.654  -4.409  -0.815  0.00  0.00    -0.008 C 
ATOM      9  C   UNL     1      -5.224  -3.877  -0.924  0.00  0.00    +0.029 C 
ATOM     10  C   UNL     1      -6.632  -5.938  -0.835  0.00  0.00    +0.007 C 
ATOM     11  C   UNL     1      -5.806  -6.452   0.346  0.00  0.00    -0.008 C 
ATOM     12  C   UNL     1      -6.432  -5.967   1.655  0.00  0.00    +0.007 C 
ATOM     13  C   UNL     1      -4.376  -5.920   0.237  0.00  0.00    +0.029 C 
ENDBRANCH   3   4
BRANCH   1  14
ATOM     14  C   UNL     1      -1.379  -2.038   0.222  0.00  0.00    +0.019 C 
BRANCH  14  15
ATOM     15  N   UNL     1      -1.394  -0.571   0.307  0.00  0.00    +0.388 N 
ATOM     16  C   UNL     1      -2.012  -0.017  -0.904  0.00  0.00    -0.095 C 
ATOM     17  H   UNL     1      -1.925  -0.287   1.116  0.00  0.00    -0.081 HD
BRANCH  15  19
ATOM     18  C   UNL     1      -0.031   1.453   0.514  0.00  0.00    -0.008 C 
ATOM     19  C   UNL     1      -0.016  -0.074   0.425  0.00  0.00    -0.041 C 
BRANCH  19  20
ATOM     20  C   UNL     1       0.618  -0.643   1.668  0.00  0.00    -0.061 A 
ATOM     21  C   UNL     1      -0.120  -0.758   2.831  0.00  0.00    +0.004 A 
ATOM     22  C   UNL     1       0.462  -1.280   3.971  0.00  0.00    +0.029 A 
ATOM     23  C   UNL     1       1.782  -1.688   3.947  0.00  0.00    +0.105 A 
ATOM     24  C   UNL     1       2.521  -1.575   2.784  0.00  0.00    +0.029 A 
ATOM     25  C   UNL     1       1.937  -1.056   1.643  0.00  0.00    +0.004 A 
BRANCH  23  26
ATOM     26  S   UNL     1       2.525  -2.353   5.401  0.00  0.00    +0.056 S 
ATOM     27  O   UNL     1       3.925  -2.154   5.269  0.00  0.00    -0.153 OA
ATOM     28  O   UNL     1       1.784  -1.847   6.503  0.00  0.00    -0.153 OA
BRANCH  26  29
ATOM     29  N   UNL     1       2.275  -3.990   5.374  0.00  0.00    -0.204 NA
ATOM     30  H   UNL     1       1.792  -4.394   4.636  0.00  0.00    +0.144 HD
ATOM     31  H   UNL     1       2.611  -4.544   6.095  0.00  0.00    +0.144 HD
ENDBRANCH  26  29
ENDBRANCH  23  26
ENDBRANCH  19  20
ENDBRANCH  15  19
ENDBRANCH  14  15
ENDBRANCH   1  14
BRANCH   3  32
ATOM     32  C   UNL     1      -1.912  -4.812  -0.029  0.00  0.00    +0.182 C 
BRANCH  32  33
ATOM     33  C   UNL     1      -1.696  -5.057  -1.500  0.00  0.00    +0.122 A 
ATOM     34  C   UNL     1      -0.921  -4.319  -2.315  0.00  0.00    +0.046 A 
ATOM     35  C   UNL     1      -1.008  -4.900  -3.601  0.00  0.00    +0.041 A 
ATOM     36  C   UNL     1      -1.833  -5.958  -3.495  0.00  0.00    +0.195 A 
ATOM     37  O   UNL     1      -2.242  -6.051  -2.219  0.00  0.00    -0.466 OA
ENDBRANCH  32  33
ENDBRANCH   3  32
TORSDOF 9
