REMARK  Name = ZINC09282213
REMARK  5 active torsions:
REMARK  status: ('A' for Active; 'I' for Inactive)
REMARK    1  A    between atoms: C_4  and  C_7
REMARK    2  A    between atoms: C_14  and  N_39
REMARK    3  A    between atoms: C_15  and  C_37
REMARK    4  A    between atoms: N_23  and  C_26
REMARK    5  A    between atoms: C_26  and  C_27
REMARK                            x       y       z     vdW  Elec       q    Type
REMARK                         _______ _______ _______ _____ _____    ______ ____
ROOT
ATOM      1  C   UNL     1       3.465  -0.869   0.230  0.00  0.00    +0.074 A 
ATOM      2  C   UNL     1       3.833  -1.912  -0.552  0.00  0.00    +0.066 A 
ATOM      3  C   UNL     1       5.160  -2.259  -0.221  0.00  0.00    +0.246 A 
ATOM      4  N   UNL     1       5.570  -1.458   0.720  0.00  0.00    -0.135 NA
ATOM      5  N   UNL     1       4.532  -0.564   1.027  0.00  0.00    -0.273 N 
ATOM      6  H   UNL     1       4.566   0.144   1.689  0.00  0.00    +0.189 HD
ATOM      7  O   UNL     1       5.812  -3.278  -0.843  0.00  0.00    -0.421 OA
ATOM      8  C   UNL     1       5.262  -3.785  -1.964  0.00  0.00    +0.201 C 
ATOM      9  C   UNL     1       4.000  -3.534  -2.377  0.00  0.00    +0.110 C 
ATOM     10  C   UNL     1       3.058  -2.648  -1.609  0.00  0.00    +0.145 C 
ATOM     11  C   UNL     1       1.935  -3.433  -1.012  0.00  0.00    -0.001 A 
ATOM     12  C   UNL     1       1.924  -4.465  -0.099  0.00  0.00    +0.007 A 
ATOM     13  C   UNL     1       0.682  -4.984   0.253  0.00  0.00    +0.000 A 
ATOM     14  C   UNL     1      -0.484  -4.485  -0.289  0.00  0.00    +0.002 A 
ATOM     15  C   UNL     1      -0.481  -3.447  -1.209  0.00  0.00    +0.024 A 
ATOM     16  C   UNL     1       0.759  -2.919  -1.571  0.00  0.00    +0.041 A 
ATOM     17  N   UNL     1       1.053  -1.895  -2.455  0.00  0.00    -0.265 N 
ATOM     18  C   UNL     1       2.381  -1.668  -2.541  0.00  0.00    +0.241 C 
ATOM     19  O   UNL     1       2.927  -0.837  -3.235  0.00  0.00    -0.274 OA
ENDROOT
BRANCH   1  23
ATOM     20  C   UNL     1      -0.299   1.100   0.196  0.00  0.00    +0.000 A 
ATOM     21  C   UNL     1      -0.240  -0.270   0.382  0.00  0.00    +0.001 A 
ATOM     22  C   UNL     1       0.979  -0.915   0.394  0.00  0.00    +0.010 A 
ATOM     23  C   UNL     1       2.154  -0.183   0.217  0.00  0.00    +0.000 A 
ATOM     24  C   UNL     1       2.087   1.198   0.030  0.00  0.00    +0.010 A 
ATOM     25  C   UNL     1       0.862   1.831   0.021  0.00  0.00    +0.001 A 
ENDBRANCH   1  23
BRANCH   8  26
ATOM     26  N   UNL     1       6.037  -4.611  -2.740  0.00  0.00    -0.328 N 
ATOM     27  H   UNL     1       6.948  -4.813  -2.474  0.00  0.00    +0.145 HD
ATOM     28  H   UNL     1       5.673  -4.994  -3.554  0.00  0.00    +0.145 HD
ENDBRANCH   8  26
BRANCH   9  29
ATOM     29  C   UNL     1       3.540  -4.136  -3.592  0.00  0.00    +0.102 C 
ATOM     30  N   UNL     1       3.176  -4.614  -4.556  0.00  0.00    -0.191 NA
ENDBRANCH   9  29
BRANCH  17  31
ATOM     31  C   UNL     1       0.044  -1.147  -3.207  0.00  0.00    +0.149 C 
BRANCH  31  32
ATOM     32  C   UNL     1       0.107  -1.540  -4.661  0.00  0.00    -0.022 A 
ATOM     33  C   UNL     1       0.810  -0.779  -5.545  0.00  0.00    +0.006 A 
ATOM     34  C   UNL     1       0.880  -1.126  -6.892  0.00  0.00    +0.001 A 
ATOM     35  C   UNL     1       0.248  -2.235  -7.364  0.00  0.00    +0.008 A 
ATOM     36  C   UNL     1      -0.487  -3.045  -6.482  0.00  0.00    -0.018 A 
ATOM     37  C   UNL     1      -0.553  -2.695  -5.110  0.00  0.00    -0.013 A 
ATOM     38  C   UNL     1      -1.284  -3.508  -4.226  0.00  0.00    +0.009 A 
ATOM     39  C   UNL     1      -1.911  -4.620  -4.697  0.00  0.00    +0.001 A 
ATOM     40  C   UNL     1      -1.840  -4.968  -6.045  0.00  0.00    +0.001 A 
ATOM     41  C   UNL     1      -1.154  -4.197  -6.932  0.00  0.00    +0.008 A 
ENDBRANCH  31  32
ENDBRANCH  17  31
TORSDOF 5
