REMARK  Name = ZINC12635710
REMARK  7 active torsions:
REMARK  status: ('A' for Active; 'I' for Inactive)
REMARK    1  A    between atoms: C_1  and  C_2
REMARK    2  A    between atoms: C_2  and  C_3
REMARK    3  A    between atoms: C_2  and  C_4
REMARK    4  A    between atoms: C_9  and  O_10
REMARK    5  A    between atoms: O_10  and  C_11
REMARK    6  A    between atoms: C_11  and  C_12
REMARK    7  A    between atoms: N_14  and  N_15
REMARK                            x       y       z     vdW  Elec       q    Type
REMARK                         _______ _______ _______ _____ _____    ______ ____
ROOT
ATOM      1  C   UNL     1      -0.513  -2.700  -4.141  0.00  0.00    +0.270 C 
ATOM      2  O   UNL     1       0.589  -2.210  -4.013  0.00  0.00    -0.270 OA
ATOM      3  N   UNL     1      -0.793  -3.457  -5.221  0.00  0.00    -0.202 N 
ATOM      4  H   UNL     1      -1.675  -3.848  -5.323  0.00  0.00    +0.177 HD
ENDROOT
BRANCH   3   5
ATOM      5  N   UNL     1       0.189  -3.678  -6.195  0.00  0.00    -0.162 NA
ATOM      6  C   UNL     1      -0.083  -4.415  -7.245  0.00  0.00    +0.158 C 
ATOM      7  C   UNL     1       0.848  -4.738  -8.345  0.00  0.00    +0.029 A 
ATOM      8  C   UNL     1       2.169  -4.424  -8.630  0.00  0.00    +0.012 A 
ATOM      9  C   UNL     1       2.754  -4.908  -9.785  0.00  0.00    +0.001 A 
ATOM     10  C   UNL     1       2.031  -5.704 -10.660  0.00  0.00    +0.001 A 
ATOM     11  C   UNL     1       0.715  -6.026 -10.393  0.00  0.00    +0.012 A 
ATOM     12  C   UNL     1       0.110  -5.549  -9.235  0.00  0.00    +0.023 A 
ATOM     13  C   UNL     1      -1.229  -5.683  -8.643  0.00  0.00    +0.103 C 
ATOM     14  N   UNL     1      -1.272  -5.021  -7.511  0.00  0.00    -0.326 N 
ATOM     15  N   UNL     1      -2.275  -6.398  -9.189  0.00  0.00    -0.344 N 
ATOM     16  H   UNL     1      -2.156  -6.864 -10.031  0.00  0.00    +0.144 HD
ATOM     17  H   UNL     1      -3.130  -6.435  -8.731  0.00  0.00    +0.144 HD
ATOM     18  H   UNL     1      -2.053  -4.967  -6.939  0.00  0.00    +0.169 HD
ENDBRANCH   3   5
BRANCH   1  19
ATOM     19  C   UNL     1      -1.570  -2.462  -3.094  0.00  0.00    +0.326 C 
BRANCH  19  20
ATOM     20  O   UNL     1      -1.035  -1.636  -2.057  0.00  0.00    -0.482 OA
BRANCH  20  26
ATOM     21  C   UNL     1      -1.412  -0.526   0.013  0.00  0.00    -0.003 A 
ATOM     22  C   UNL     1      -2.259  -0.205   1.056  0.00  0.00    +0.007 A 
ATOM     23  C   UNL     1      -3.556  -0.683   1.066  0.00  0.00    +0.001 A 
ATOM     24  C   UNL     1      -4.009  -1.484   0.034  0.00  0.00    +0.004 A 
ATOM     25  C   UNL     1      -3.166  -1.807  -1.012  0.00  0.00    +0.046 A 
ATOM     26  C   UNL     1      -1.865  -1.324  -1.027  0.00  0.00    +0.125 A 
BRANCH  21  28
ATOM     27  C   UNL     1      -0.019   1.526   0.010  0.00  0.00    +0.012 C 
ATOM     28  C   UNL     1       0.002  -0.004   0.002  0.00  0.00    +0.016 C 
ATOM     29  C   UNL     1       0.742  -0.511   1.242  0.00  0.00    +0.012 C 
ENDBRANCH  21  28
ENDBRANCH  20  26
ENDBRANCH  19  20
ENDBRANCH   1  19
TORSDOF 5
