REMARK  Name = ZINC08879373
REMARK  10 active torsions:
REMARK  status: ('A' for Active; 'I' for Inactive)
REMARK    1  A    between atoms: C_1  and  C_2
REMARK    2  A    between atoms: C_6  and  C_21
REMARK    3  A    between atoms: C_7  and  C_11
REMARK    4  A    between atoms: C_11  and  C_12
REMARK    5  A    between atoms: N_14  and  C_15
REMARK    6  A    between atoms: C_15  and  C_16
REMARK    7  A    between atoms: C_16  and  C_18
REMARK    8  A    between atoms: C_16  and  O_20
REMARK    9  A    between atoms: C_18  and  O_19
REMARK   10  A    between atoms: C_24  and  C_27
REMARK                            x       y       z     vdW  Elec       q    Type
REMARK                         _______ _______ _______ _____ _____    ______ ____
ROOT
ATOM      1  C   UNL     1      -3.643  -0.853   0.645  0.00  0.00    +0.044 C 
ATOM      2  C   UNL     1      -2.363  -0.065   0.530  0.00  0.00    -0.036 A 
ATOM      3  C   UNL     1      -1.169  -0.721   0.449  0.00  0.00    +0.051 A 
ATOM      4  C   UNL     1       0.023  -0.008   0.343  0.00  0.00    +0.143 A 
ATOM      5  C   UNL     1       0.001   1.396   0.318  0.00  0.00    +0.064 A 
ATOM      6  C   UNL     1       1.263   2.127   0.206  0.00  0.00    -0.026 A 
ATOM      7  C   UNL     1       2.416   1.411   0.131  0.00  0.00    +0.049 A 
ATOM      8  C   UNL     1       2.366   0.002   0.161  0.00  0.00    +0.341 A 
ATOM      9  O   UNL     1       3.405  -0.630   0.092  0.00  0.00    -0.245 OA
ATOM     10  O   UNL     1       1.204  -0.660   0.263  0.00  0.00    -0.422 OA
ATOM     11  C   UNL     1       1.285   3.633   0.177  0.00  0.00    +0.045 C 
ATOM     12  C   UNL     1      -1.226   2.077   0.406  0.00  0.00    +0.146 A 
ATOM     13  C   UNL     1      -2.408   1.332   0.508  0.00  0.00    +0.027 A 
ATOM     14  C   UNL     1      -3.490   2.322   0.574  0.00  0.00    -0.005 A 
ATOM     15  C   UNL     1      -2.901   3.524   0.506  0.00  0.00    +0.199 A 
ATOM     16  O   UNL     1      -1.568   3.378   0.404  0.00  0.00    -0.462 OA
ATOM     17  C   UNL     1      -4.966   2.044   0.695  0.00  0.00    +0.047 C 
ENDROOT
BRANCH   7  18
ATOM     18  C   UNL     1       3.740   2.119   0.015  0.00  0.00    +0.138 C 
BRANCH  18  19
ATOM     19  C   UNL     1       4.072   2.329  -1.440  0.00  0.00    +0.218 C 
ATOM     20  O   UNL     1       3.308   1.942  -2.298  0.00  0.00    -0.275 OA
ATOM     21  N   UNL     1       5.218   2.948  -1.787  0.00  0.00    -0.312 N 
ATOM     22  H   UNL     1       5.829   3.258  -1.101  0.00  0.00    +0.149 HD
BRANCH  21  23
ATOM     23  C   UNL     1       5.541   3.152  -3.202  0.00  0.00    +0.137 C 
BRANCH  23  24
ATOM     24  C   UNL     1       6.886   3.872  -3.320  0.00  0.00    +0.157 C 
BRANCH  24  25
ATOM     25  O   UNL     1       7.923   3.029  -2.813  0.00  0.00    -0.388 OA
ATOM     26  H   UNL     1       8.008   2.186  -3.280  0.00  0.00    +0.210 HD
ENDBRANCH  24  25
BRANCH  24  27
ATOM     27  C   UNL     1       7.164   4.196  -4.789  0.00  0.00    +0.188 C 
BRANCH  27  28
ATOM     28  O   UNL     1       8.361   4.969  -4.887  0.00  0.00    -0.392 OA
ATOM     29  H   UNL     1       8.600   5.212  -5.793  0.00  0.00    +0.210 HD
ENDBRANCH  27  28
ENDBRANCH  24  27
ENDBRANCH  23  24
ENDBRANCH  21  23
ENDBRANCH  18  19
ENDBRANCH   7  18
TORSDOF 7
