REMARK  Name = ZINC43683027
REMARK  8 active torsions:
REMARK  status: ('A' for Active; 'I' for Inactive)
REMARK    1  A    between atoms: C_4  and  O_10
REMARK    2  A    between atoms: C_5  and  N_7
REMARK    3  A    between atoms: O_10  and  C_11
REMARK    4  A    between atoms: C_11  and  C_12
REMARK    5  A    between atoms: C_13  and  C_17
REMARK    6  A    between atoms: C_18  and  C_19
REMARK    7  A    between atoms: C_19  and  C_20
REMARK    8  A    between atoms: C_20  and  O_21
REMARK                            x       y       z     vdW  Elec       q    Type
REMARK                         _______ _______ _______ _____ _____    ______ ____
ROOT
ATOM      1  C   UNL     1       4.772   0.164  -0.045  0.00  0.00    +0.273 C 
ENDROOT
BRANCH   1   2
ATOM      2  C   UNL     1       5.981  -0.737  -0.062  0.00  0.00    +0.042 A 
ATOM      3  C   UNL     1       6.664  -1.242  -1.136  0.00  0.00    +0.038 A 
ATOM      4  C   UNL     1       7.764  -2.062  -0.895  0.00  0.00    +0.025 A 
ATOM      5  C   UNL     1       8.116  -2.329   0.383  0.00  0.00    +0.047 A 
ATOM      6  S   UNL     1       6.896  -1.415   1.312  0.00  0.00    -0.097 S 
BRANCH   3   7
ATOM      7  C   UNL     1       6.258  -0.935  -2.474  0.00  0.00    -0.065 C 
ATOM      8  C   UNL     1       5.925  -0.683  -3.571  0.00  0.00    -0.095 C 
BRANCH   8   9
ATOM      9  C   UNL     1       5.507  -0.367  -4.947  0.00  0.00    +0.117 C 
BRANCH   9  10
ATOM     10  C   UNL     1       6.445  -1.062  -5.937  0.00  0.00    +0.168 C 
BRANCH  10  11
ATOM     11  O   UNL     1       6.039  -0.755  -7.272  0.00  0.00    -0.394 OA
ATOM     12  H   UNL     1       6.590  -1.163  -7.954  0.00  0.00    +0.209 HD
ENDBRANCH  10  11
ENDBRANCH   9  10
ENDBRANCH   8   9
ENDBRANCH   3   7
ENDBRANCH   1   2
BRANCH   1  13
ATOM     13  O   UNL     1       3.586  -0.632  -0.037  0.00  0.00    -0.485 OA
BRANCH  13  17
ATOM     14  C   UNL     1      -0.017   1.378   0.010  0.00  0.00    +0.002 A 
ATOM     15  C   UNL     1       1.170   2.088   0.002  0.00  0.00    +0.004 A 
ATOM     16  C   UNL     1       2.377   1.417  -0.013  0.00  0.00    +0.048 A 
ATOM     17  C   UNL     1       2.399   0.030  -0.021  0.00  0.00    +0.151 A 
ATOM     18  C   UNL     1       1.207  -0.680  -0.013  0.00  0.00    +0.168 A 
ATOM     19  C   UNL     1       0.002  -0.004   0.002  0.00  0.00    +0.036 A 
BRANCH  18  20
ATOM     20  N   UNL     1       1.226  -2.160  -0.022  0.00  0.00    +0.060 N 
ATOM     21  O   UNL     1       0.188  -2.778  -0.015  0.00  0.00    -0.126 OA
ATOM     22  O   UNL     1       2.281  -2.750  -0.036  0.00  0.00    -0.126 OA
ENDBRANCH  18  20
ENDBRANCH  13  17
ENDBRANCH   1  13
TORSDOF 8
