REMARK  Name = ZINC09419267
REMARK  7 active torsions:
REMARK  status: ('A' for Active; 'I' for Inactive)
REMARK    1  A    between atoms: C_1  and  C_2
REMARK    2  A    between atoms: C_5  and  N_9
REMARK    3  A    between atoms: C_6  and  C_8
REMARK    4  A    between atoms: C_12  and  C_16
REMARK    5  A    between atoms: C_12  and  N_20
REMARK    6  A    between atoms: C_14  and  O_15
REMARK    7  A    between atoms: C_21  and  C_23
REMARK                            x       y       z     vdW  Elec       q    Type
REMARK                         _______ _______ _______ _____ _____    ______ ____
ROOT
ATOM      1  N   UNL     1       0.059  -4.172  -0.021  0.00  0.00    -0.190 N 
ATOM      2  C   UNL     1      -1.041  -4.955  -0.025  0.00  0.00    +0.283 C 
ATOM      3  O   UNL     1      -2.200  -4.599  -0.022  0.00  0.00    -0.270 OA
ATOM      4  C   UNL     1      -0.513  -6.376  -0.034  0.00  0.00    +0.304 C 
ATOM      5  N   UNL     1       0.950  -6.209  -0.034  0.00  0.00    -0.192 NA
ATOM      6  C   UNL     1       1.198  -4.939  -0.032  0.00  0.00    +0.292 C 
ENDROOT
BRANCH   1  11
ATOM      7  C   UNL     1      -0.018   1.503   0.010  0.00  0.00    +0.044 C 
ATOM      8  C   UNL     1       0.002  -0.004   0.002  0.00  0.00    -0.050 A 
ATOM      9  C   UNL     1       0.006  -0.688  -1.200  0.00  0.00    +0.005 A 
ATOM     10  C   UNL     1       0.025  -2.068  -1.211  0.00  0.00    +0.024 A 
ATOM     11  C   UNL     1       0.040  -2.771  -0.013  0.00  0.00    +0.049 A 
ATOM     12  C   UNL     1       0.037  -2.082   1.192  0.00  0.00    -0.028 A 
ATOM     13  C   UNL     1       0.023  -0.700   1.196  0.00  0.00    +0.008 A 
ATOM     14  C   UNL     1       0.053  -2.840   2.494  0.00  0.00    +0.046 C 
ENDBRANCH   1  11
BRANCH   4  15
ATOM     15  N   UNL     1      -0.950  -7.079  -1.242  0.00  0.00    -0.277 N 
ATOM     16  C   UNL     1      -2.265  -7.236  -1.492  0.00  0.00    +0.212 C 
ATOM     17  O   UNL     1      -3.086  -6.795  -0.716  0.00  0.00    -0.276 OA
ATOM     18  C   UNL     1      -2.715  -7.960  -2.735  0.00  0.00    +0.109 C 
ATOM     19  H   UNL     1      -0.293  -7.432  -1.862  0.00  0.00    +0.152 HD
ENDBRANCH   4  15
BRANCH   4  20
ATOM     20  C   UNL     1      -0.967  -7.125   1.220  0.00  0.00    +0.440 C 
ATOM     21  F   UNL     1      -2.365  -7.161   1.261  0.00  0.00    -0.166 F 
ATOM     22  F   UNL     1      -0.468  -8.432   1.189  0.00  0.00    -0.166 F 
ATOM     23  F   UNL     1      -0.484  -6.469   2.357  0.00  0.00    -0.166 F 
ENDBRANCH   4  20
BRANCH   6  24
ATOM     24  O   UNL     1       2.446  -4.422  -0.035  0.00  0.00    -0.481 OA
ATOM     25  H   UNL     1       3.148  -5.087  -0.043  0.00  0.00    +0.295 HD
ENDBRANCH   6  24
TORSDOF 4
