REMARK  Name = ZINC11692073
REMARK  5 active torsions:
REMARK  status: ('A' for Active; 'I' for Inactive)
REMARK    1  A    between atoms: C_1  and  C_2
REMARK    2  A    between atoms: C_2  and  C_3
REMARK    3  A    between atoms: C_3  and  C_5
REMARK    4  A    between atoms: C_3  and  N_6
REMARK    5  A    between atoms: C_7  and  C_9
REMARK                            x       y       z     vdW  Elec       q    Type
REMARK                         _______ _______ _______ _____ _____    ______ ____
ROOT
ATOM      1  C   UNL     1      -1.214   3.580   0.027  0.00  0.00    +0.106 A 
ATOM      2  C   UNL     1      -1.225   4.463  -1.147  0.00  0.00    +0.123 A 
ATOM      3  C   UNL     1      -1.247   5.823  -0.609  0.00  0.00    +0.167 A 
ATOM      4  N   UNL     1      -1.266   6.848  -1.434  0.00  0.00    -0.225 NA
ATOM      5  C   UNL     1      -1.269   6.637  -2.756  0.00  0.00    +0.092 A 
ATOM      6  C   UNL     1      -1.289   7.726  -3.648  0.00  0.00    +0.030 A 
ATOM      7  C   UNL     1      -1.293   7.503  -4.990  0.00  0.00    +0.002 A 
ATOM      8  C   UNL     1      -1.278   6.206  -5.501  0.00  0.00    +0.002 A 
ATOM      9  C   UNL     1      -1.259   5.128  -4.672  0.00  0.00    +0.030 A 
ATOM     10  C   UNL     1      -1.254   5.319  -3.277  0.00  0.00    +0.090 A 
ATOM     11  N   UNL     1      -1.236   4.265  -2.452  0.00  0.00    -0.241 NA
ATOM     12  N   UNL     1      -1.239   5.717   0.774  0.00  0.00    -0.277 N 
ATOM     13  C   UNL     1      -1.220   4.407   1.153  0.00  0.00    +0.135 A 
ATOM     14  N   UNL     1      -1.209   4.042   2.481  0.00  0.00    -0.307 N 
ATOM     15  H   UNL     1      -1.196   3.100   2.712  0.00  0.00    +0.170 HD
ATOM     16  C   UNL     1      -1.217   4.960   3.465  0.00  0.00    +0.259 A 
ATOM     17  O   UNL     1      -1.208   4.620   4.633  0.00  0.00    -0.267 OA
ATOM     18  C   UNL     1      -1.238   6.387   3.098  0.00  0.00    +0.063 A 
ATOM     19  C   UNL     1      -1.249   6.728   1.737  0.00  0.00    +0.062 A 
ATOM     20  C   UNL     1      -1.268   8.064   1.364  0.00  0.00    +0.027 A 
ATOM     21  C   UNL     1      -1.277   9.046   2.335  0.00  0.00    +0.002 A 
ATOM     22  C   UNL     1      -1.266   8.710   3.680  0.00  0.00    +0.001 A 
ATOM     23  C   UNL     1      -1.247   7.387   4.068  0.00  0.00    +0.015 A 
ENDROOT
BRANCH   1  25
ATOM     24  N   UNL     1      -0.018   1.461   0.010  0.00  0.00    -0.309 N 
ATOM     25  C   UNL     1      -1.194   2.119   0.019  0.00  0.00    +0.250 C 
ATOM     26  O   UNL     1      -2.240   1.496   0.021  0.00  0.00    -0.270 OA
ATOM     27  H   UNL     1       0.816   1.957   0.005  0.00  0.00    +0.149 HD
BRANCH  24  28
ATOM     28  C   UNL     1       0.002  -0.004   0.002  0.00  0.00    +0.070 C 
ATOM     29  C   UNL     1      -0.103  -0.523   1.437  0.00  0.00    +0.028 C 
BRANCH  28  31
ATOM     30  C   UNL     1       1.358  -0.079  -2.095  0.00  0.00    +0.005 C 
ATOM     31  C   UNL     1       1.310  -0.493  -0.623  0.00  0.00    +0.018 C 
ENDBRANCH  28  31
ENDBRANCH  24  28
ENDBRANCH   1  25
TORSDOF 3
