REMARK  Name = ZINC33370004
REMARK  6 active torsions:
REMARK  status: ('A' for Active; 'I' for Inactive)
REMARK    1  A    between atoms: C_1  and  C_2
REMARK    2  A    between atoms: C_4  and  C_34
REMARK    3  A    between atoms: C_12  and  C_27
REMARK    4  A    between atoms: C_14  and  C_15
REMARK    5  A    between atoms: C_15  and  C_16
REMARK    6  A    between atoms: C_31  and  O_33
REMARK                            x       y       z     vdW  Elec       q    Type
REMARK                         _______ _______ _______ _____ _____    ______ ____
ROOT
ATOM      1  C   UNL     1       0.296  -0.959  -8.460  0.00  0.00    +0.044 C 
ATOM      2  C   UNL     1      -0.267  -0.499  -7.140  0.00  0.00    -0.049 A 
ATOM      3  C   UNL     1      -1.558   0.004  -7.066  0.00  0.00    +0.009 A 
ATOM      4  C   UNL     1      -2.094   0.428  -5.878  0.00  0.00    -0.024 A 
ATOM      5  C   UNL     1      -1.342   0.366  -4.682  0.00  0.00    +0.083 A 
ATOM      6  C   UNL     1      -0.031  -0.152  -4.796  0.00  0.00    +0.041 A 
ATOM      7  C   UNL     1       0.497  -0.575  -5.990  0.00  0.00    +0.020 A 
ATOM      8  S   UNL     1       0.557  -0.064  -3.122  0.00  0.00    -0.052 S 
ATOM      9  C   UNL     1      -0.923   0.632  -2.400  0.00  0.00    +0.169 A 
ATOM     10  N   UNL     1      -1.720   0.734  -3.439  0.00  0.00    -0.224 NA
ATOM     11  N   UNL     1      -1.170   0.970  -1.081  0.00  0.00    -0.232 N 
ATOM     12  C   UNL     1      -0.223   0.818   0.027  0.00  0.00    +0.152 C 
ATOM     13  C   UNL     1      -0.924   1.316   1.269  0.00  0.00    +0.077 C 
ATOM     14  C   UNL     1      -2.206   1.725   0.856  0.00  0.00    +0.250 C 
ATOM     15  O   UNL     1      -3.074   2.188   1.572  0.00  0.00    -0.282 OA
ATOM     16  C   UNL     1      -2.316   1.491  -0.610  0.00  0.00    +0.293 C 
ATOM     17  O   UNL     1      -3.296   1.737  -1.282  0.00  0.00    -0.266 OA
ATOM     18  C   UNL     1      -3.501   0.968  -5.846  0.00  0.00    +0.046 C 
ENDROOT
BRANCH  12  19
ATOM     19  C   UNL     1       1.013   1.641  -0.233  0.00  0.00    -0.019 A 
ATOM     20  C   UNL     1       0.902   2.884  -0.829  0.00  0.00    +0.006 A 
ATOM     21  C   UNL     1       2.033   3.642  -1.067  0.00  0.00    +0.004 A 
ATOM     22  C   UNL     1       3.277   3.159  -0.712  0.00  0.00    +0.045 A 
ATOM     23  C   UNL     1       3.391   1.912  -0.115  0.00  0.00    +0.117 A 
ATOM     24  C   UNL     1       2.254   1.155   0.129  0.00  0.00    +0.051 A 
BRANCH  23  25
ATOM     25  O   UNL     1       4.614   1.435   0.237  0.00  0.00    -0.507 OA
ATOM     26  H   UNL     1       4.704   0.446   0.710  0.00  0.00    +0.292 HD
ENDBRANCH  23  25
ENDBRANCH  12  19
BRANCH  13  27
ATOM     27  C   UNL     1      -0.413   1.361   2.547  0.00  0.00    +0.195 C 
ATOM     28  O   UNL     1       0.787   0.805   2.813  0.00  0.00    -0.287 OA
BRANCH  27  29
ATOM     29  C   UNL     1      -1.179   2.017   3.625  0.00  0.00    +0.025 A 
ATOM     30  C   UNL     1      -1.683   3.314   3.464  0.00  0.00    +0.031 A 
ATOM     31  C   UNL     1      -2.398   3.886   4.497  0.00  0.00    +0.111 A 
ATOM     32  N   UNL     1      -2.598   3.234   5.625  0.00  0.00    -0.263 NA
ATOM     33  C   UNL     1      -2.136   2.015   5.822  0.00  0.00    +0.111 A 
ATOM     34  C   UNL     1      -1.415   1.363   4.841  0.00  0.00    +0.031 A 
ENDBRANCH  27  29
ENDBRANCH  13  27
TORSDOF 4
