REMARK  Name = ZINC03840899
REMARK  11 active torsions:
REMARK  status: ('A' for Active; 'I' for Inactive)
REMARK    1  A    between atoms: C_1  and  C_2
REMARK    2  A    between atoms: C_10  and  C_12
REMARK    3  A    between atoms: C_19  and  C_40
REMARK    4  A    between atoms: C_22  and  O_39
REMARK    5  A    between atoms: C_24  and  C_28
REMARK    6  A    between atoms: C_28  and  C_30
REMARK    7  A    between atoms: C_28  and  C_31
REMARK    8  A    between atoms: N_33  and  C_34
REMARK    9  A    between atoms: N_33  and  C_35
REMARK   10  A    between atoms: C_35  and  C_36
REMARK   11  A    between atoms: C_36  and  C_37
REMARK                            x       y       z     vdW  Elec       q    Type
REMARK                         _______ _______ _______ _____ _____    ______ ____
ROOT
ATOM      1  C   UNL     1       7.723   4.009   1.520  0.00  0.00    +0.014 C 
ATOM      2  C   UNL     1       7.067   2.965   0.619  0.00  0.00    +0.042 C 
ATOM      3  C   UNL     1       5.611   2.761   0.997  0.00  0.00    +0.057 A 
ATOM      4  C   UNL     1       5.142   1.531   1.333  0.00  0.00    +0.015 A 
ATOM      5  S   UNL     1       3.428   1.833   1.655  0.00  0.00    -0.057 S 
ATOM      6  C   UNL     1       3.451   3.542   1.337  0.00  0.00    +0.165 A 
ATOM      7  N   UNL     1       4.713   3.746   1.020  0.00  0.00    -0.229 NA
ATOM      8  N   UNL     1       2.408   4.456   1.401  0.00  0.00    -0.259 N 
ATOM      9  C   UNL     1       1.173   4.045   1.751  0.00  0.00    +0.270 C 
ATOM     10  O   UNL     1       0.972   2.875   2.010  0.00  0.00    -0.268 OA
ATOM     11  C   UNL     1       5.926   0.266   1.399  0.00  0.00    +0.051 C 
ATOM     12  C   UNL     1       7.393   0.653   1.665  0.00  0.00    -0.022 C 
ATOM     13  C   UNL     1       7.850   1.661   0.617  0.00  0.00    +0.033 C 
ATOM     14  C   UNL     1       7.785   1.041  -0.782  0.00  0.00    +0.123 C 
ATOM     15  C   UNL     1       8.670  -0.205  -0.842  0.00  0.00    +0.029 C 
ATOM     16  C   UNL     1       8.169  -1.226   0.181  0.00  0.00    +0.007 C 
ATOM     17  C   UNL     1       8.249  -0.619   1.579  0.00  0.00    +0.008 C 
ATOM     18  C   UNL     1       7.519   1.222   3.089  0.00  0.00    +0.012 C 
ATOM     19  H   UNL     1       2.567   5.391   1.195  0.00  0.00    +0.157 HD
ENDROOT
BRANCH   9  20
ATOM     20  C   UNL     1       0.058   5.019   1.813  0.00  0.00    +0.144 A 
ATOM     21  C   UNL     1      -1.222   4.595   2.169  0.00  0.00    +0.143 A 
ATOM     22  N   UNL     1      -2.212   5.467   2.224  0.00  0.00    -0.259 NA
ATOM     23  C   UNL     1      -1.991   6.739   1.942  0.00  0.00    +0.130 A 
ATOM     24  C   UNL     1      -0.719   7.164   1.587  0.00  0.00    +0.131 A 
ATOM     25  N   UNL     1       0.277   6.301   1.536  0.00  0.00    -0.247 NA
ENDBRANCH   9  20
BRANCH  15  26
ATOM     26  C   UNL     1       8.604  -0.814  -2.243  0.00  0.00    +0.078 C 
ATOM     27  C   UNL     1       7.164  -1.232  -2.550  0.00  0.00    +0.017 C 
BRANCH  26  28
ATOM     28  C   UNL     1       9.503  -2.021  -2.309  0.00  0.00    +0.219 C 
ATOM     29  O   UNL     1       9.039  -3.132  -2.160  0.00  0.00    -0.275 OA
ATOM     30  N   UNL     1      10.823  -1.867  -2.534  0.00  0.00    -0.303 N 
ATOM     31  C   UNL     1      11.400  -0.523  -2.612  0.00  0.00    +0.132 C 
BRANCH  30  32
ATOM     32  C   UNL     1      11.680  -3.043  -2.701  0.00  0.00    +0.122 C 
BRANCH  32  33
ATOM     33  C   UNL     1      11.733  -3.430  -4.180  0.00  0.00    +0.137 C 
BRANCH  33  34
ATOM     34  C   UNL     1      12.595  -4.612  -4.347  0.00  0.00    +0.064 C 
ATOM     35  N   UNL     1      13.259  -5.524  -4.477  0.00  0.00    -0.197 NA
ENDBRANCH  33  34
ENDBRANCH  32  33
ENDBRANCH  30  32
ENDBRANCH  26  28
ENDBRANCH  15  26
BRANCH  14  36
ATOM     36  O   UNL     1       8.252   1.990  -1.746  0.00  0.00    -0.391 OA
ATOM     37  H   UNL     1       8.240   1.665  -2.656  0.00  0.00    +0.210 HD
ENDBRANCH  14  36
TORSDOF 7
