REMARK  Name = ZINC30542625
REMARK  6 active torsions:
REMARK  status: ('A' for Active; 'I' for Inactive)
REMARK    1  A    between atoms: C_1  and  C_2
REMARK    2  A    between atoms: C_2  and  N_3
REMARK    3  A    between atoms: C_4  and  C_15
REMARK    4  A    between atoms: C_18  and  N_21
REMARK    5  A    between atoms: N_21  and  C_22
REMARK    6  A    between atoms: N_21  and  C_23
REMARK                            x       y       z     vdW  Elec       q    Type
REMARK                         _______ _______ _______ _____ _____    ______ ____
ROOT
ATOM      1  N   UNL     1      -1.357  -0.502  -0.099  0.00  0.00    -0.275 N 
ATOM      2  C   UNL     1      -2.155  -0.722   1.107  0.00  0.00    +0.192 C 
ATOM      3  N   UNL     1      -3.100  -1.825   0.898  0.00  0.00    -0.321 N 
ATOM      4  C   UNL     1      -3.812  -1.873  -0.295  0.00  0.00    +0.041 A 
ATOM      5  C   UNL     1      -5.075  -2.434  -0.373  0.00  0.00    +0.024 A 
ATOM      6  C   UNL     1      -5.740  -2.453  -1.584  0.00  0.00    +0.002 A 
ATOM      7  C   UNL     1      -5.153  -1.916  -2.720  0.00  0.00    +0.001 A 
ATOM      8  C   UNL     1      -3.894  -1.355  -2.659  0.00  0.00    +0.015 A 
ATOM      9  C   UNL     1      -3.212  -1.330  -1.445  0.00  0.00    +0.058 A 
ATOM     10  C   UNL     1      -1.864  -0.746  -1.326  0.00  0.00    +0.250 C 
ATOM     11  O   UNL     1      -1.214  -0.490  -2.321  0.00  0.00    -0.270 OA
ATOM     12  H   UNL     1      -3.226  -2.505   1.579  0.00  0.00    +0.148 HD
ENDROOT
BRANCH   2  13
ATOM     13  C   UNL     1      -2.923   0.534   1.433  0.00  0.00    -0.009 A 
ATOM     14  C   UNL     1      -2.465   1.759   0.983  0.00  0.00    +0.009 A 
ATOM     15  C   UNL     1      -3.166   2.911   1.280  0.00  0.00    +0.023 A 
ATOM     16  C   UNL     1      -4.332   2.839   2.031  0.00  0.00    +0.029 A 
ATOM     17  C   UNL     1      -4.790   1.607   2.481  0.00  0.00    +0.023 A 
ATOM     18  C   UNL     1      -4.087   0.458   2.175  0.00  0.00    +0.009 A 
BRANCH  16  19
ATOM     19  N   UNL     1      -5.043   4.002   2.333  0.00  0.00    -0.336 N 
ATOM     20  C   UNL     1      -4.559   5.301   1.858  0.00  0.00    +0.129 C 
ATOM     21  C   UNL     1      -6.274   3.924   3.125  0.00  0.00    +0.129 C 
ENDBRANCH  16  19
ENDBRANCH   2  13
BRANCH   1  23
ATOM     22  C   UNL     1       0.989  -1.182   0.014  0.00  0.00    +0.024 C 
ATOM     23  C   UNL     1       0.014  -0.003   0.026  0.00  0.00    +0.107 C 
ENDBRANCH   1  23
TORSDOF 3
