REMARK  Name = ZINC06257426
REMARK  5 active torsions:
REMARK  status: ('A' for Active; 'I' for Inactive)
REMARK    1  A    between atoms: C_3  and  N_24
REMARK    2  A    between atoms: C_4  and  C_10
REMARK    3  A    between atoms: C_6  and  N_7
REMARK    4  A    between atoms: N_12  and  C_13
REMARK    5  A    between atoms: C_14  and  C_22
REMARK                            x       y       z     vdW  Elec       q    Type
REMARK                         _______ _______ _______ _____ _____    ______ ____
ROOT
ATOM      1  C   UNL     1      -3.722   3.287   0.036  0.00  0.00    +0.034 A 
ATOM      2  C   UNL     1      -3.715   1.907   0.029  0.00  0.00    +0.026 A 
ATOM      3  C   UNL     1      -2.510   1.217   0.015  0.00  0.00    +0.042 A 
ATOM      4  C   UNL     1      -1.301   1.931   0.019  0.00  0.00    +0.060 A 
ATOM      5  C   UNL     1      -1.325   3.328   0.026  0.00  0.00    +0.047 A 
ATOM      6  C   UNL     1      -2.531   3.995   0.035  0.00  0.00    +0.127 A 
ENDROOT
BRANCH   3   7
ATOM      7  N   UNL     1      -2.500  -0.171   0.001  0.00  0.00    -0.329 N 
ATOM      8  C   UNL     1      -3.096  -0.690  -1.237  0.00  0.00    +0.105 C 
ATOM      9  C   UNL     1      -2.937  -2.211  -1.282  0.00  0.00    +0.019 C 
ATOM     10  C   UNL     1      -3.629  -2.828  -0.064  0.00  0.00    +0.003 C 
ATOM     11  C   UNL     1      -3.023  -2.236   1.212  0.00  0.00    +0.019 C 
ATOM     12  C   UNL     1      -3.179  -0.714   1.185  0.00  0.00    +0.105 C 
ENDBRANCH   3   7
BRANCH   4  13
ATOM     13  C   UNL     1      -0.014   1.212   0.009  0.00  0.00    +0.250 C 
ATOM     14  O   UNL     1       0.002  -0.004   0.002  0.00  0.00    -0.270 OA
ATOM     15  N   UNL     1       1.143   1.902   0.001  0.00  0.00    -0.275 N 
ATOM     16  H   UNL     1       1.130   2.872   0.007  0.00  0.00    +0.156 HD
BRANCH  15  17
ATOM     17  C   UNL     1       2.354   1.225  -0.014  0.00  0.00    +0.090 A 
ATOM     18  C   UNL     1       3.637   1.753  -0.023  0.00  0.00    +0.084 A 
ATOM     19  C   UNL     1       4.748   0.817  -0.039  0.00  0.00    -0.018 A 
ATOM     20  C   UNL     1       4.401  -0.489  -0.043  0.00  0.00    -0.004 A 
ATOM     21  S   UNL     1       2.631  -0.486  -0.018  0.00  0.00    -0.077 S 
ATOM     22  C   UNL     1       5.323  -1.668  -0.059  0.00  0.00    +0.043 C 
ATOM     23  C   UNL     1       6.726  -1.180  -0.447  0.00  0.00    +0.005 C 
ATOM     24  C   UNL     1       7.070   0.053   0.394  0.00  0.00    +0.005 C 
ATOM     25  C   UNL     1       6.212   1.240  -0.049  0.00  0.00    +0.037 C 
BRANCH  18  26
ATOM     26  C   UNL     1       3.857   3.167  -0.017  0.00  0.00    +0.102 C 
ATOM     27  N   UNL     1       4.032   4.290  -0.013  0.00  0.00    -0.191 NA
ENDBRANCH  18  26
ENDBRANCH  15  17
ENDBRANCH   4  13
BRANCH   6  28
ATOM     28  N   UNL     1      -2.554   5.475   0.043  0.00  0.00    +0.056 N 
ATOM     29  O   UNL     1      -1.508   6.100   0.042  0.00  0.00    -0.126 OA
ATOM     30  O   UNL     1      -3.618   6.068   0.051  0.00  0.00    -0.126 OA
ENDBRANCH   6  28
TORSDOF 5
