REMARK  Name = ZINC54045175
REMARK  10 active torsions:
REMARK  status: ('A' for Active; 'I' for Inactive)
REMARK    1  A    between atoms: C_1  and  C_2
REMARK    2  A    between atoms: C_6  and  O_8
REMARK    3  A    between atoms: O_8  and  C_9
REMARK    4  A    between atoms: C_9  and  C_10
REMARK    5  A    between atoms: N_12  and  N_13
REMARK    6  A    between atoms: N_16  and  C_17
REMARK    7  A    between atoms: C_17  and  C_18
REMARK    8  A    between atoms: C_18  and  C_19
REMARK    9  A    between atoms: C_24  and  O_25
REMARK   10  A    between atoms: O_25  and  C_26
REMARK                            x       y       z     vdW  Elec       q    Type
REMARK                         _______ _______ _______ _____ _____    ______ ____
ROOT
ATOM      1  N   UNL     1       0.114  -6.669   5.120  0.00  0.00    -0.218 N 
ATOM      2  C   UNL     1       0.133  -8.006   5.288  0.00  0.00    +0.316 C 
ATOM      3  O   UNL     1       0.144  -8.479   6.408  0.00  0.00    -0.251 OA
ATOM      4  N   UNL     1       0.139  -8.820   4.213  0.00  0.00    -0.298 N 
ATOM      5  H   UNL     1       0.110  -6.083   5.894  0.00  0.00    +0.174 HD
ATOM      6  H   UNL     1       0.130  -8.443   3.320  0.00  0.00    +0.150 HD
ENDROOT
BRANCH   1   9
ATOM      7  C   UNL     1       0.083  -4.787   3.662  0.00  0.00    +0.267 C 
ATOM      8  O   UNL     1       0.077  -4.055   4.629  0.00  0.00    -0.271 OA
ATOM      9  N   UNL     1       0.101  -6.125   3.830  0.00  0.00    -0.230 N 
ATOM     10  H   UNL     1       0.105  -6.710   3.056  0.00  0.00    +0.173 HD
BRANCH   7  11
ATOM     11  C   UNL     1       0.069  -4.202   2.274  0.00  0.00    +0.326 C 
BRANCH  11  12
ATOM     12  O   UNL     1       0.050  -2.776   2.358  0.00  0.00    -0.483 OA
BRANCH  12  18
ATOM     13  C   UNL     1      -0.018   1.503   0.010  0.00  0.00    +0.044 C 
ATOM     14  C   UNL     1       0.002  -0.004   0.002  0.00  0.00    -0.047 A 
ATOM     15  C   UNL     1       0.006  -0.688  -1.200  0.00  0.00    +0.003 A 
ATOM     16  C   UNL     1       0.024  -2.071  -1.211  0.00  0.00    +0.004 A 
ATOM     17  C   UNL     1       0.039  -2.772  -0.020  0.00  0.00    +0.045 A 
ATOM     18  C   UNL     1       0.035  -2.088   1.186  0.00  0.00    +0.121 A 
ATOM     19  C   UNL     1       0.023  -0.700   1.195  0.00  0.00    +0.049 A 
ENDBRANCH  12  18
ENDBRANCH  11  12
ENDBRANCH   7  11
ENDBRANCH   1   9
BRANCH   4  20
ATOM     20  C   UNL     1       0.159 -10.273   4.395  0.00  0.00    +0.110 C 
BRANCH  20  21
ATOM     21  C   UNL     1       0.162 -10.958   3.027  0.00  0.00    +0.057 C 
BRANCH  21  22
ATOM     22  C   UNL     1       0.182 -12.454   3.214  0.00  0.00    -0.004 A 
ATOM     23  C   UNL     1       1.384 -13.136   3.197  0.00  0.00    +0.007 A 
ATOM     24  C   UNL     1       1.403 -14.508   3.368  0.00  0.00    +0.000 A 
ATOM     25  C   UNL     1       0.222 -15.200   3.557  0.00  0.00    +0.004 A 
ATOM     26  C   UNL     1      -0.982 -14.523   3.576  0.00  0.00    +0.046 A 
ATOM     27  C   UNL     1      -1.004 -13.145   3.409  0.00  0.00    +0.123 A 
BRANCH  27  28
ATOM     28  O   UNL     1      -2.186 -12.476   3.433  0.00  0.00    -0.495 OA
ATOM     29  C   UNL     1      -3.368 -13.252   3.639  0.00  0.00    +0.277 C 
ENDBRANCH  27  28
ENDBRANCH  21  22
ENDBRANCH  20  21
ENDBRANCH   4  20
TORSDOF 8
