REMARK  Name = ZINC39791979
REMARK  8 active torsions:
REMARK  status: ('A' for Active; 'I' for Inactive)
REMARK    1  A    between atoms: C_1  and  O_2
REMARK    2  A    between atoms: O_2  and  C_3
REMARK    3  A    between atoms: C_5  and  N_12
REMARK    4  A    between atoms: C_8  and  O_9
REMARK    5  A    between atoms: O_9  and  C_10
REMARK    6  A    between atoms: C_13  and  C_15
REMARK    7  A    between atoms: C_15  and  C_16
REMARK    8  A    between atoms: C_16  and  C_17
REMARK                            x       y       z     vdW  Elec       q    Type
REMARK                         _______ _______ _______ _____ _____    ______ ____
ROOT
ATOM      1  C   UNL     1      -6.014   2.333   0.265  0.00  0.00    +0.103 C 
ENDROOT
BRANCH   1   3
ATOM      2  N   UNL     1      -4.787   0.197   0.037  0.00  0.00    -0.284 N 
ATOM      3  C   UNL     1      -4.738   1.540   0.141  0.00  0.00    +0.218 C 
ATOM      4  O   UNL     1      -3.668   2.110   0.134  0.00  0.00    -0.275 OA
ATOM      5  H   UNL     1      -5.643  -0.253  -0.038  0.00  0.00    +0.155 HD
BRANCH   2   8
ATOM      6  C   UNL     1      -1.288  -0.776   0.640  0.00  0.00    +0.163 A 
ATOM      7  C   UNL     1      -2.459  -0.037   0.639  0.00  0.00    +0.074 A 
ATOM      8  C   UNL     1      -3.601  -0.549   0.038  0.00  0.00    +0.056 A 
ATOM      9  C   UNL     1      -3.568  -1.802  -0.562  0.00  0.00    +0.066 A 
ATOM     10  C   UNL     1      -2.398  -2.540  -0.560  0.00  0.00    +0.071 A 
ATOM     11  C   UNL     1      -1.256  -2.028   0.034  0.00  0.00    +0.163 A 
ATOM     12 CL   UNL     1      -4.996  -2.442  -1.313  0.00  0.00    -0.082 Cl
BRANCH   6  14
ATOM     13  C   UNL     1      -0.274   1.015   1.831  0.00  0.00    +0.277 C 
ATOM     14  O   UNL     1      -0.168  -0.276   1.228  0.00  0.00    -0.491 OA
ENDBRANCH   6  14
BRANCH  11  15
ATOM     15  O   UNL     1      -0.104  -2.753   0.030  0.00  0.00    -0.491 OA
ATOM     16  C   UNL     1      -0.143  -4.030  -0.611  0.00  0.00    +0.277 C 
ENDBRANCH  11  15
ENDBRANCH   2   8
ENDBRANCH   1   3
BRANCH   1  17
ATOM     17  C   UNL     1      -5.681   3.822   0.367  0.00  0.00    +0.083 C 
BRANCH  17  18
ATOM     18  C   UNL     1      -6.956   4.615   0.491  0.00  0.00    +0.124 C 
ATOM     19  N   UNL     1      -8.094   3.964   0.500  0.00  0.00    -0.161 NA
ATOM     20  C   UNL     1      -9.278   4.577   0.603  0.00  0.00    +0.271 C 
ATOM     21  O   UNL     1     -10.318   3.939   0.613  0.00  0.00    -0.268 OA
ATOM     22  C   UNL     1      -9.287   6.071   0.707  0.00  0.00    +0.071 C 
ATOM     23  C   UNL     1     -10.352   6.891   0.754  0.00  0.00    -0.042 C 
ATOM     24  C   UNL     1     -11.792   6.430   0.538  0.00  0.00    +0.033 C 
ATOM     25  C   UNL     1     -12.367   7.294  -0.592  0.00  0.00    +0.004 C 
ATOM     26  C   UNL     1     -12.176   8.775  -0.275  0.00  0.00    +0.002 C 
ATOM     27  C   UNL     1     -10.688   9.129  -0.203  0.00  0.00    +0.019 C 
ATOM     28  C   UNL     1     -10.063   8.372   0.972  0.00  0.00    +0.079 C 
ATOM     29  S   UNL     1      -8.235   8.425   0.851  0.00  0.00    -0.097 S 
ATOM     30  C   UNL     1      -7.941   6.681   0.695  0.00  0.00    +0.111 C 
ATOM     31  N   UNL     1      -6.869   5.932   0.591  0.00  0.00    -0.227 NA
ENDBRANCH  17  18
ENDBRANCH   1  17
TORSDOF 6
