REMARK  Name = ZINC32710761
REMARK  9 active torsions:
REMARK  status: ('A' for Active; 'I' for Inactive)
REMARK    1  A    between atoms: C_1  and  C_2
REMARK    2  A    between atoms: C_2  and  N_3
REMARK    3  A    between atoms: N_6  and  C_9
REMARK    4  A    between atoms: C_12  and  N_16
REMARK    5  A    between atoms: C_13  and  C_15
REMARK    6  A    between atoms: C_17  and  C_19
REMARK    7  A    between atoms: C_19  and  C_20
REMARK    8  A    between atoms: C_23  and  S_25
REMARK    9  A    between atoms: S_25  and  N_28
REMARK                            x       y       z     vdW  Elec       q    Type
REMARK                         _______ _______ _______ _____ _____    ______ ____
ROOT
ATOM      1  C   UNL     1       6.569  -1.587  -5.707  0.00  0.00    +0.030 A 
ATOM      2  C   UNL     1       5.318  -1.072  -5.394  0.00  0.00    +0.025 A 
ATOM      3  C   UNL     1       4.968  -0.864  -4.075  0.00  0.00    +0.025 A 
ATOM      4  C   UNL     1       5.867  -1.170  -3.061  0.00  0.00    +0.036 A 
ATOM      5  C   UNL     1       7.119  -1.680  -3.374  0.00  0.00    -0.028 A 
ATOM      6  C   UNL     1       7.468  -1.893  -4.693  0.00  0.00    +0.028 A 
ATOM      7  C   UNL     1       8.097  -2.006  -2.274  0.00  0.00    +0.046 C 
ENDROOT
BRANCH   1  11
ATOM      8  N   UNL     1       7.465  -1.013  -9.726  0.00  0.00    +0.382 N 
ATOM      9  C   UNL     1       6.228  -1.731  -9.389  0.00  0.00    -0.060 C 
ATOM     10  C   UNL     1       5.832  -1.411  -7.946  0.00  0.00    +0.086 C 
ATOM     11  N   UNL     1       6.924  -1.799  -7.043  0.00  0.00    -0.333 N 
ATOM     12  C   UNL     1       8.162  -1.081  -7.380  0.00  0.00    +0.086 C 
ATOM     13  C   UNL     1       8.558  -1.401  -8.823  0.00  0.00    -0.060 C 
ATOM     14  H   UNL     1       7.281   0.063  -9.592  0.00  0.00    -0.082 HD
BRANCH   8  16
ATOM     15  C   UNL     1       9.245  -0.687 -11.376  0.00  0.00    -0.017 C 
ATOM     16  C   UNL     1       7.838  -1.235 -11.129  0.00  0.00    -0.082 C 
ENDBRANCH   8  16
ENDBRANCH   1  11
BRANCH   4  17
ATOM     17  N   UNL     1       5.511  -0.958  -1.722  0.00  0.00    -0.285 N 
ATOM     18  C   UNL     1       4.576  -0.039  -1.410  0.00  0.00    +0.222 C 
ATOM     19  O   UNL     1       4.114   0.674  -2.276  0.00  0.00    -0.275 OA
ATOM     20  H   UNL     1       5.996  -1.541  -0.925  0.00  0.00    +0.155 HD
BRANCH  18  21
ATOM     21  C   UNL     1       4.104   0.102   0.014  0.00  0.00    +0.138 C 
BRANCH  21  22
ATOM     22  C   UNL     1       3.064   1.191   0.092  0.00  0.00    +0.000 A 
ATOM     23  C   UNL     1       1.719   1.098  -0.043  0.00  0.00    +0.013 A 
ATOM     24  C   UNL     1       0.953   2.243   0.070  0.00  0.00    +0.036 A 
ATOM     25  C   UNL     1       1.570   3.425   0.313  0.00  0.00    +0.142 A 
ATOM     26  S   UNL     1       3.285   2.937   0.390  0.00  0.00    -0.073 S 
BRANCH  25  27
ATOM     27  S   UNL     1       0.863   5.028   0.497  0.00  0.00    +0.062 S 
ATOM     28  O   UNL     1       1.885   5.962   0.179  0.00  0.00    -0.153 OA
ATOM     29  O   UNL     1      -0.384   5.003  -0.184  0.00  0.00    -0.153 OA
BRANCH  27  30
ATOM     30  N   UNL     1       0.520   5.230   2.104  0.00  0.00    -0.203 NA
ATOM     31  H   UNL     1       0.075   6.224   2.262  0.00  0.00    +0.144 HD
ATOM     32  H   UNL     1       1.447   5.147   2.691  0.00  0.00    +0.144 HD
ENDBRANCH  27  30
ENDBRANCH  25  27
ENDBRANCH  21  22
ENDBRANCH  18  21
ENDBRANCH   4  17
TORSDOF 7
