REMARK  Name = ZINC63830545
REMARK  9 active torsions:
REMARK  status: ('A' for Active; 'I' for Inactive)
REMARK    1  A    between atoms: C_1  and  N_2
REMARK    2  A    between atoms: N_2  and  C_3
REMARK    3  A    between atoms: N_2  and  C_4
REMARK    4  A    between atoms: C_7  and  C_10
REMARK    5  A    between atoms: C_10  and  C_12
REMARK    6  A    between atoms: C_10  and  C_29
REMARK    7  A    between atoms: C_12  and  N_13
REMARK    8  A    between atoms: C_14  and  C_16
REMARK    9  A    between atoms: C_19  and  N_23
REMARK                            x       y       z     vdW  Elec       q    Type
REMARK                         _______ _______ _______ _____ _____    ______ ____
ROOT
ATOM      1  C   UNL     1       0.171  -2.496  -5.137  0.00  0.00    +0.064 C 
ENDROOT
BRANCH   1   2
ATOM      2  C   UNL     1       1.421  -2.420  -5.974  0.00  0.00    -0.033 C 
ATOM      3  C   UNL     1       2.274  -3.431  -6.256  0.00  0.00    -0.000 A 
ATOM      4  C   UNL     1       2.293  -4.850  -5.881  0.00  0.00    +0.010 A 
ATOM      5  C   UNL     1       3.302  -5.633  -6.326  0.00  0.00    +0.001 A 
ATOM      6  C   UNL     1       4.328  -5.124  -7.134  0.00  0.00    +0.002 A 
ATOM      7  C   UNL     1       4.379  -3.832  -7.520  0.00  0.00    +0.026 A 
ATOM      8  C   UNL     1       3.369  -2.918  -7.111  0.00  0.00    +0.043 A 
ATOM      9  N   UNL     1       3.200  -1.640  -7.348  0.00  0.00    -0.380 N 
ATOM     10  C   UNL     1       1.973  -1.198  -6.675  0.00  0.00    +0.145 C 
ATOM     11  H   UNL     1       3.785  -1.081  -7.882  0.00  0.00    +0.160 HD
ENDBRANCH   1   2
BRANCH   1  15
ATOM     12  C   UNL     1       0.509   0.183  -1.824  0.00  0.00    +0.029 A 
ATOM     13  C   UNL     1       0.336  -1.178  -1.604  0.00  0.00    +0.023 A 
ATOM     14  C   UNL     1       0.226  -2.041  -2.677  0.00  0.00    +0.006 A 
ATOM     15  C   UNL     1       0.289  -1.552  -3.969  0.00  0.00    -0.039 A 
ATOM     16  C   UNL     1       0.462  -0.198  -4.191  0.00  0.00    +0.006 A 
ATOM     17  C   UNL     1       0.566   0.671  -3.123  0.00  0.00    +0.023 A 
BRANCH  12  19
ATOM     18  C   UNL     1       0.796   2.494  -0.975  0.00  0.00    +0.129 C 
ATOM     19  N   UNL     1       0.620   1.058  -0.741  0.00  0.00    -0.336 N 
ATOM     20  C   UNL     1       0.559   0.541   0.628  0.00  0.00    +0.129 C 
ENDBRANCH  12  19
ENDBRANCH   1  15
BRANCH   1  21
ATOM     21  C   UNL     1      -1.038  -2.104  -5.989  0.00  0.00    +0.117 C 
BRANCH  21  22
ATOM     22  N   UNL     1      -1.225  -3.091  -7.056  0.00  0.00    -0.311 N 
ATOM     23  C   UNL     1      -2.236  -2.950  -7.935  0.00  0.00    +0.238 C 
ATOM     24  O   UNL     1      -2.995  -2.002  -7.843  0.00  0.00    -0.271 OA
ATOM     25  H   UNL     1      -0.620  -3.846  -7.129  0.00  0.00    +0.149 HD
BRANCH  23  26
ATOM     26  C   UNL     1      -2.416  -3.902  -8.965  0.00  0.00    +0.086 C 
ATOM     27  C   UNL     1      -3.495  -3.828  -9.771  0.00  0.00    +0.021 C 
ATOM     28  N   UNL     1      -4.486  -2.941  -9.546  0.00  0.00    -0.320 N 
ATOM     29  C   UNL     1      -5.316  -2.555 -10.708  0.00  0.00    +0.222 C 
ATOM     30  S   UNL     1      -5.212  -4.096 -11.717  0.00  0.00    -0.113 S 
ATOM     31  C   UNL     1      -3.648  -4.736 -10.982  0.00  0.00    +0.123 C 
ATOM     32  H   UNL     1      -4.647  -2.573  -8.662  0.00  0.00    +0.148 HD
BRANCH  29  33
ATOM     33  N   UNL     1      -6.697  -2.276 -10.305  0.00  0.00    -0.274 N 
ATOM     34  C   UNL     1      -7.680  -1.582 -11.145  0.00  0.00    +0.111 C 
ATOM     35  C   UNL     1      -9.055  -1.901 -10.517  0.00  0.00    +0.028 C 
ATOM     36  C   UNL     1      -8.672  -2.188  -9.047  0.00  0.00    +0.097 C 
ATOM     37  C   UNL     1      -7.227  -2.629  -9.121  0.00  0.00    +0.218 C 
ATOM     38  O   UNL     1      -6.632  -3.212  -8.240  0.00  0.00    -0.276 OA
ENDBRANCH  29  33
ENDBRANCH  23  26
ENDBRANCH  21  22
ENDBRANCH   1  21
TORSDOF 7
