REMARK  Name = ZINC18201218
REMARK  2 active torsions:
REMARK  status: ('A' for Active; 'I' for Inactive)
REMARK    1  A    between atoms: C_4  and  C_7
REMARK    2  A    between atoms: C_10  and  C_13
REMARK                            x       y       z     vdW  Elec       q    Type
REMARK                         _______ _______ _______ _____ _____    ______ ____
ROOT
ATOM      1  C   UNL     1       7.434  -2.768  -0.085  0.00  0.00    +0.093 C 
ATOM      2  C   UNL     1       7.537  -3.645   1.137  0.00  0.00    +0.067 A 
ATOM      3  C   UNL     1       7.414  -4.999   1.078  0.00  0.00    +0.114 A 
ATOM      4  N   UNL     1       7.512  -5.737   2.236  0.00  0.00    -0.295 N 
ATOM      5  C   UNL     1       7.731  -5.133   3.417  0.00  0.00    +0.328 A 
ATOM      6  O   UNL     1       7.814  -5.803   4.428  0.00  0.00    -0.247 OA
ATOM      7  N   UNL     1       7.860  -3.796   3.495  0.00  0.00    -0.275 N 
ATOM      8  C   UNL     1       7.769  -3.036   2.387  0.00  0.00    +0.260 A 
ATOM      9  O   UNL     1       7.885  -1.825   2.465  0.00  0.00    -0.267 OA
ATOM     10  N   UNL     1       7.199  -5.666  -0.109  0.00  0.00    -0.300 N 
ATOM     11  C   UNL     1       7.399  -4.987  -1.291  0.00  0.00    +0.048 C 
ATOM     12  C   UNL     1       7.518  -3.621  -1.324  0.00  0.00    +0.034 C 
ATOM     13  C   UNL     1       7.721  -3.194  -2.655  0.00  0.00    +0.193 C 
ATOM     14  O   UNL     1       7.869  -2.046  -3.028  0.00  0.00    -0.287 OA
ATOM     15  C   UNL     1       7.721  -4.399  -3.513  0.00  0.00    +0.031 A 
ATOM     16  C   UNL     1       7.519  -5.511  -2.655  0.00  0.00    +0.007 A 
ATOM     17  C   UNL     1       7.466  -6.800  -3.161  0.00  0.00    +0.010 A 
ATOM     18  C   UNL     1       7.622  -6.946  -4.542  0.00  0.00    +0.001 A 
ATOM     19  C   UNL     1       7.819  -5.867  -5.371  0.00  0.00    +0.001 A 
ATOM     20  C   UNL     1       7.875  -4.559  -4.877  0.00  0.00    +0.012 A 
ATOM     21  H   UNL     1       6.914  -6.593  -0.113  0.00  0.00    +0.154 HD
ATOM     22  H   UNL     1       8.020  -3.376   4.355  0.00  0.00    +0.173 HD
ATOM     23  H   UNL     1       7.421  -6.702   2.200  0.00  0.00    +0.172 HD
ENDROOT
BRANCH   1  27
ATOM     24  C   UNL     1       3.699  -0.689  -0.037  0.00  0.00    -0.018 A 
ATOM     25  C   UNL     1       4.896   0.024  -0.040  0.00  0.00    +0.009 A 
ATOM     26  C   UNL     1       6.099  -0.652  -0.055  0.00  0.00    +0.005 A 
ATOM     27  C   UNL     1       6.118  -2.035  -0.068  0.00  0.00    -0.035 A 
ATOM     28  C   UNL     1       4.932  -2.748  -0.066  0.00  0.00    +0.005 A 
ATOM     29  C   UNL     1       3.724  -2.082  -0.045  0.00  0.00    +0.009 A 
BRANCH  24  33
ATOM     30  C   UNL     1      -0.017   1.379   0.010  0.00  0.00    +0.000 A 
ATOM     31  C   UNL     1       1.169   2.092   0.002  0.00  0.00    +0.001 A 
ATOM     32  C   UNL     1       2.377   1.426  -0.013  0.00  0.00    +0.008 A 
ATOM     33  C   UNL     1       2.402   0.033  -0.021  0.00  0.00    -0.018 A 
ATOM     34  C   UNL     1       1.205  -0.680  -0.013  0.00  0.00    +0.008 A 
ATOM     35  C   UNL     1       0.002  -0.004   0.002  0.00  0.00    +0.001 A 
ENDBRANCH  24  33
ENDBRANCH   1  27
TORSDOF 2
