REMARK  Name = ZINC13306878
REMARK  6 active torsions:
REMARK  status: ('A' for Active; 'I' for Inactive)
REMARK    1  A    between atoms: C_4  and  N_28
REMARK    2  A    between atoms: C_5  and  C_7
REMARK    3  A    between atoms: C_9  and  C_21
REMARK    4  A    between atoms: C_11  and  C_16
REMARK    5  A    between atoms: C_11  and  O_20
REMARK    6  A    between atoms: C_21  and  C_23
REMARK                            x       y       z     vdW  Elec       q    Type
REMARK                         _______ _______ _______ _____ _____    ______ ____
ROOT
ATOM      1  C   UNL     1      -2.089   3.763   0.158  0.00  0.00    +0.122 C 
ATOM      2  C   UNL     1      -3.147   3.804   1.266  0.00  0.00    +0.145 C 
ATOM      3  C   UNL     1      -4.415   4.456   0.705  0.00  0.00    +0.243 C 
ATOM      4  N   UNL     1      -4.078   5.772   0.161  0.00  0.00    -0.264 N 
ATOM      5  C   UNL     1      -2.859   6.031  -0.336  0.00  0.00    +0.302 C 
ATOM      6  O   UNL     1      -2.635   7.139  -0.784  0.00  0.00    -0.253 OA
ATOM      7  N   UNL     1      -1.878   5.117  -0.356  0.00  0.00    -0.292 N 
ATOM      8  H   UNL     1      -4.750   6.472   0.159  0.00  0.00    +0.153 HD
ATOM      9  H   UNL     1      -1.011   5.358  -0.719  0.00  0.00    +0.151 HD
ENDROOT
BRANCH   1  14
ATOM     10  C   UNL     1       0.594   2.712   2.598  0.00  0.00    +0.000 A 
ATOM     11  C   UNL     1       1.579   2.252   1.743  0.00  0.00    +0.002 A 
ATOM     12  C   UNL     1       1.377   2.281   0.376  0.00  0.00    +0.033 A 
ATOM     13  C   UNL     1       0.192   2.775  -0.137  0.00  0.00    +0.131 A 
ATOM     14  C   UNL     1      -0.795   3.229   0.717  0.00  0.00    +0.004 A 
ATOM     15  C   UNL     1      -0.593   3.200   2.085  0.00  0.00    +0.008 A 
BRANCH  13  16
ATOM     16  N   UNL     1      -0.022   2.811  -1.601  0.00  0.00    +0.057 N 
ATOM     17  O   UNL     1       0.796   2.307  -2.349  0.00  0.00    -0.126 OA
ATOM     18  O   UNL     1      -1.017   3.346  -2.058  0.00  0.00    -0.126 OA
ENDBRANCH  13  16
ENDBRANCH   1  14
BRANCH   3  19
ATOM     19  C   UNL     1      -5.447   4.613   1.823  0.00  0.00    +0.436 C 
ATOM     20  F   UNL     1      -4.917   5.420   2.836  0.00  0.00    -0.166 F 
ATOM     21  F   UNL     1      -6.604   5.208   1.310  0.00  0.00    -0.166 F 
ATOM     22  F   UNL     1      -5.762   3.355   2.347  0.00  0.00    -0.166 F 
ENDBRANCH   3  19
BRANCH   3  23
ATOM     23  O   UNL     1      -4.956   3.634  -0.332  0.00  0.00    -0.364 OA
ATOM     24  H   UNL     1      -5.762   3.986  -0.733  0.00  0.00    +0.212 HD
ENDBRANCH   3  23
BRANCH   2  25
ATOM     25  C   UNL     1      -3.458   2.402   1.722  0.00  0.00    +0.179 C 
ATOM     26  O   UNL     1      -3.550   1.505   0.908  0.00  0.00    -0.291 OA
BRANCH  25  27
ATOM     27  C   UNL     1      -3.641   2.130   3.095  0.00  0.00    +0.055 A 
ATOM     28  C   UNL     1      -3.931   0.921   3.719  0.00  0.00    +0.019 A 
ATOM     29  C   UNL     1      -4.058   0.939   5.083  0.00  0.00    +0.008 A 
ATOM     30  C   UNL     1      -3.897   2.114   5.751  0.00  0.00    +0.046 A 
ATOM     31  S   UNL     1      -3.553   3.246   4.484  0.00  0.00    -0.094 S 
ENDBRANCH  25  27
ENDBRANCH   2  25
TORSDOF 6
