REMARK  Name = ZINC12653410
REMARK  13 active torsions:
REMARK  status: ('A' for Active; 'I' for Inactive)
REMARK    1  A    between atoms: C_1  and  C_2
REMARK    2  A    between atoms: C_2  and  C_39
REMARK    3  A    between atoms: C_7  and  C_38
REMARK    4  A    between atoms: C_10  and  C_16
REMARK    5  A    between atoms: C_13  and  O_15
REMARK    6  A    between atoms: C_22  and  C_32
REMARK    7  A    between atoms: C_22  and  C_33
REMARK    8  A    between atoms: C_26  and  C_31
REMARK    9  A    between atoms: C_29  and  C_30
REMARK   10  A    between atoms: C_33  and  O_35
REMARK   11  A    between atoms: O_35  and  C_36
REMARK   12  A    between atoms: C_36  and  C_37
REMARK   13  A    between atoms: C_37  and  N_86
REMARK                            x       y       z     vdW  Elec       q    Type
REMARK                         _______ _______ _______ _____ _____    ______ ____
ROOT
ATOM      1  C   UNL     1       5.529   0.353  -0.535  0.00  0.00    +0.014 C 
ATOM      2  C   UNL     1       4.230   0.697  -1.297  0.00  0.00    -0.006 C 
ATOM      3  C   UNL     1       3.386  -0.545  -1.314  0.00  0.00    +0.004 C 
ATOM      4  C   UNL     1       3.815  -1.567  -2.361  0.00  0.00    +0.005 C 
ATOM      5  C   UNL     1       3.134  -2.911  -2.040  0.00  0.00    +0.008 C 
ATOM      6  C   UNL     1       1.613  -2.762  -2.137  0.00  0.00    -0.016 C 
ATOM      7  C   UNL     1       1.157  -1.647  -1.203  0.00  0.00    +0.025 C 
ATOM      8  C   UNL     1       1.886  -0.316  -1.376  0.00  0.00    -0.022 C 
ATOM      9  C   UNL     1       1.519   0.605  -0.196  0.00  0.00    +0.010 C 
ATOM     10  C   UNL     1       2.165   1.966  -0.396  0.00  0.00    +0.032 C 
ATOM     11  C   UNL     1       3.653   1.912  -0.620  0.00  0.00    +0.120 C 
ATOM     12  C   UNL     1       1.456   0.400  -2.651  0.00  0.00    +0.012 C 
ATOM     13  C   UNL     1       1.365  -2.077   0.239  0.00  0.00    -0.022 C 
ATOM     14  C   UNL     1       0.843  -3.259   0.607  0.00  0.00    +0.000 C 
ATOM     15  C   UNL     1       0.145  -3.963  -0.503  0.00  0.00    -0.041 C 
ATOM     16  C   UNL     1      -1.066  -4.446  -0.281  0.00  0.00    -0.052 C 
ATOM     17  C   UNL     1      -1.683  -4.250   1.085  0.00  0.00    +0.050 C 
ATOM     18  C   UNL     1      -2.229  -5.574   1.615  0.00  0.00    +0.075 C 
ATOM     19  C   UNL     1      -3.250  -6.146   0.630  0.00  0.00    +0.093 C 
ATOM     20  C   UNL     1      -2.593  -6.330  -0.714  0.00  0.00    +0.144 C 
ATOM     21  O   UNL     1      -2.673  -7.386  -1.292  0.00  0.00    -0.296 OA
ATOM     22  C   UNL     1      -1.836  -5.185  -1.338  0.00  0.00    +0.048 C 
ATOM     23  C   UNL     1      -0.893  -5.712  -2.413  0.00  0.00    +0.019 C 
ATOM     24  C   UNL     1       0.003  -4.570  -2.912  0.00  0.00    +0.013 C 
ATOM     25  C   UNL     1       0.905  -4.076  -1.794  0.00  0.00    -0.001 C 
ATOM     26  C   UNL     1       1.959  -5.166  -1.573  0.00  0.00    +0.016 C 
ATOM     27  C   UNL     1      -2.853  -4.234  -1.971  0.00  0.00    +0.024 C 
ATOM     28  C   UNL     1      -2.908  -5.334   2.967  0.00  0.00    +0.023 C 
ATOM     29  C   UNL     1       1.282  -2.430  -3.600  0.00  0.00    +0.012 C 
ATOM     30  C   UNL     1       4.649   1.088  -2.717  0.00  0.00    +0.014 C 
ENDROOT
BRANCH  11  31
ATOM     31  O   UNL     1       4.034   3.065  -1.385  0.00  0.00    -0.391 OA
ATOM     32  H   UNL     1       3.829   3.907  -0.956  0.00  0.00    +0.210 HD
ENDBRANCH  11  31
BRANCH  18  33
ATOM     33  C   UNL     1      -1.097  -6.552   1.795  0.00  0.00    +0.314 C 
ATOM     34  O   UNL     1       0.033  -6.227   1.516  0.00  0.00    -0.250 OA
BRANCH  33  35
ATOM     35  O   UNL     1      -1.343  -7.785   2.267  0.00  0.00    -0.466 OA
BRANCH  35  36
ATOM     36  C   UNL     1      -0.205  -8.674   2.414  0.00  0.00    +0.213 C 
BRANCH  36  37
ATOM     37  C   UNL     1      -0.678 -10.022   2.960  0.00  0.00    -0.045 C 
BRANCH  37  40
ATOM     38  H   UNL     1      -1.083 -10.768   1.084  0.00  0.00    -0.090 HD
ATOM     39  H   UNL     1      -1.878 -11.564   2.309  0.00  0.00    -0.090 HD
ATOM     40  N   UNL     1      -1.570 -10.653   1.971  0.00  0.00    +0.380 N 
ATOM     41  H   UNL     1      -2.392 -10.054   1.827  0.00  0.00    -0.090 HD
ENDBRANCH  37  40
ENDBRANCH  36  37
ENDBRANCH  35  36
ENDBRANCH  33  35
ENDBRANCH  18  33
TORSDOF 6
