REMARK  Name = ZINC03269163
REMARK  8 active torsions:
REMARK  status: ('A' for Active; 'I' for Inactive)
REMARK    1  A    between atoms: C_4  and  C_7
REMARK    2  A    between atoms: C_7  and  C_20
REMARK    3  A    between atoms: N_8  and  N_9
REMARK    4  A    between atoms: C_10  and  C_11
REMARK    5  A    between atoms: C_14  and  O_19
REMARK    6  A    between atoms: C_15  and  O_18
REMARK    7  A    between atoms: C_16  and  O_17
REMARK    8  A    between atoms: C_20  and  C_22
REMARK                            x       y       z     vdW  Elec       q    Type
REMARK                         _______ _______ _______ _____ _____    ______ ____
ROOT
ATOM      1  C   UNL     1      -4.656   1.353   0.029  0.00  0.00    +0.140 C 
ATOM      2  N   UNL     1      -3.536   2.043   0.119  0.00  0.00    -0.145 NA
ENDROOT
BRANCH   1   6
ATOM      3  C   UNL     1      -8.383   3.376  -0.226  0.00  0.00    +0.000 A 
ATOM      4  C   UNL     1      -7.204   4.100  -0.237  0.00  0.00    +0.001 A 
ATOM      5  C   UNL     1      -5.990   3.449  -0.154  0.00  0.00    +0.010 A 
ATOM      6  C   UNL     1      -5.954   2.057  -0.060  0.00  0.00    +0.006 A 
ATOM      7  C   UNL     1      -7.147   1.332  -0.055  0.00  0.00    +0.010 A 
ATOM      8  C   UNL     1      -8.354   1.995  -0.132  0.00  0.00    +0.001 A 
ENDBRANCH   1   6
BRANCH   2   9
ATOM      9  N   UNL     1      -2.399   1.433   0.097  0.00  0.00    -0.156 NA
ATOM     10  C   UNL     1      -1.285   2.111   0.286  0.00  0.00    +0.146 C 
BRANCH  10  11
ATOM     11  C   UNL     1      -0.045   1.427   0.367  0.00  0.00    +0.040 A 
ATOM     12  C   UNL     1       1.155   2.151   0.462  0.00  0.00    +0.017 A 
ATOM     13  C   UNL     1       2.348   1.492   0.534  0.00  0.00    +0.050 A 
ATOM     14  C   UNL     1       2.388   0.100   0.515  0.00  0.00    +0.162 A 
ATOM     15  C   UNL     1       1.210  -0.636   0.421  0.00  0.00    +0.201 A 
ATOM     16  C   UNL     1      -0.010   0.019   0.347  0.00  0.00    +0.171 A 
BRANCH  16  17
ATOM     17  O   UNL     1      -1.163  -0.692   0.255  0.00  0.00    -0.503 OA
ATOM     18  H   UNL     1      -1.395  -0.950  -0.647  0.00  0.00    +0.292 HD
ENDBRANCH  16  17
BRANCH  15  19
ATOM     19  O   UNL     1       1.256  -1.996   0.402  0.00  0.00    -0.501 OA
ATOM     20  H   UNL     1       1.407  -2.372  -0.476  0.00  0.00    +0.292 HD
ENDBRANCH  15  19
BRANCH  14  21
ATOM     21  O   UNL     1       3.581  -0.542   0.587  0.00  0.00    -0.503 OA
ATOM     22  H   UNL     1       3.988  -0.714  -0.273  0.00  0.00    +0.292 HD
ENDBRANCH  14  21
ENDBRANCH  10  11
ENDBRANCH   2   9
BRANCH   1  23
ATOM     23  C   UNL     1      -4.615  -0.117   0.017  0.00  0.00    +0.214 C 
ATOM     24  O   UNL     1      -4.611  -0.717  -1.042  0.00  0.00    -0.285 OA
BRANCH  23  25
ATOM     25  C   UNL     1      -4.580  -0.866   1.290  0.00  0.00    +0.024 A 
ATOM     26  C   UNL     1      -4.685  -0.187   2.506  0.00  0.00    +0.012 A 
ATOM     27  C   UNL     1      -4.656  -0.893   3.691  0.00  0.00    +0.001 A 
ATOM     28  C   UNL     1      -4.512  -2.269   3.677  0.00  0.00    +0.000 A 
ATOM     29  C   UNL     1      -4.402  -2.948   2.476  0.00  0.00    +0.001 A 
ATOM     30  C   UNL     1      -4.435  -2.255   1.284  0.00  0.00    +0.012 A 
ENDBRANCH  23  25
ENDBRANCH   1  23
TORSDOF 8
