REMARK  Name = ZINC59023824
REMARK  8 active torsions:
REMARK  status: ('A' for Active; 'I' for Inactive)
REMARK    1  A    between atoms: C_1  and  C_2
REMARK    2  A    between atoms: C_2  and  C_25
REMARK    3  A    between atoms: N_3  and  N_4
REMARK    4  A    between atoms: C_7  and  S_10
REMARK    5  A    between atoms: S_10  and  C_11
REMARK    6  A    between atoms: C_11  and  C_12
REMARK    7  A    between atoms: N_14  and  C_15
REMARK    8  A    between atoms: C_16  and  C_23
REMARK                            x       y       z     vdW  Elec       q    Type
REMARK                         _______ _______ _______ _____ _____    ______ ____
ROOT
ATOM      1  N   UNL     1      -1.058  -1.642   1.339  0.00  0.00    -0.205 N 
ATOM      2  C   UNL     1      -1.577  -2.005   2.569  0.00  0.00    +0.232 A 
ATOM      3  N   UNL     1      -1.530  -1.287   3.671  0.00  0.00    -0.186 NA
ATOM      4  C   UNL     1      -2.131  -1.949   4.666  0.00  0.00    +0.211 A 
ATOM      5  N   UNL     1      -2.569  -3.098   4.209  0.00  0.00    -0.144 NA
ATOM      6  N   UNL     1      -2.227  -3.155   2.848  0.00  0.00    -0.245 N 
ATOM      7  H   UNL     1      -1.147  -2.239   0.580  0.00  0.00    +0.177 HD
ATOM      8  H   UNL     1      -2.417  -3.879   2.231  0.00  0.00    +0.192 HD
ENDROOT
BRANCH   1  11
ATOM      9  C   UNL     1       0.825   1.222  -0.127  0.00  0.00    +0.068 C 
ATOM     10  C   UNL     1      -0.011  -0.024   0.015  0.00  0.00    +0.063 C 
ATOM     11  N   UNL     1      -0.405  -0.411   1.190  0.00  0.00    -0.184 NA
BRANCH  10  12
ATOM     12  C   UNL     1      -0.383  -0.801  -1.181  0.00  0.00    +0.000 A 
ATOM     13  C   UNL     1      -1.650  -1.390  -1.292  0.00  0.00    +0.029 A 
ATOM     14  C   UNL     1      -1.955  -2.109  -2.429  0.00  0.00    +0.111 A 
ATOM     15  N   UNL     1      -1.073  -2.246  -3.401  0.00  0.00    -0.263 NA
ATOM     16  C   UNL     1       0.131  -1.708  -3.337  0.00  0.00    +0.111 A 
ATOM     17  C   UNL     1       0.518  -0.968  -2.241  0.00  0.00    +0.029 A 
ENDBRANCH  10  12
ENDBRANCH   1  11
BRANCH   4  18
ATOM     18  S   UNL     1      -2.305  -1.372   6.321  0.00  0.00    -0.075 S 
BRANCH  18  19
ATOM     19  C   UNL     1      -3.196  -2.711   7.161  0.00  0.00    +0.173 C 
BRANCH  19  20
ATOM     20  C   UNL     1      -3.413  -2.341   8.606  0.00  0.00    +0.228 C 
ATOM     21  O   UNL     1      -3.007  -1.278   9.027  0.00  0.00    -0.275 OA
ATOM     22  N   UNL     1      -4.059  -3.190   9.429  0.00  0.00    -0.278 N 
ATOM     23  H   UNL     1      -4.383  -4.040   9.092  0.00  0.00    +0.155 HD
BRANCH  22  24
ATOM     24  C   UNL     1      -4.259  -2.849  10.759  0.00  0.00    +0.090 A 
ATOM     25  C   UNL     1      -4.889  -3.590  11.741  0.00  0.00    +0.084 A 
ATOM     26  C   UNL     1      -4.971  -3.002  13.076  0.00  0.00    -0.018 A 
ATOM     27  C   UNL     1      -4.408  -1.784  13.175  0.00  0.00    -0.004 A 
ATOM     28  S   UNL     1      -3.786  -1.446  11.547  0.00  0.00    -0.077 S 
ATOM     29  C   UNL     1      -4.524  -1.223  14.566  0.00  0.00    +0.043 C 
ATOM     30  C   UNL     1      -5.620  -2.077  15.241  0.00  0.00    +0.010 C 
ATOM     31  C   UNL     1      -5.531  -3.393  14.442  0.00  0.00    +0.037 C 
BRANCH  25  32
ATOM     32  C   UNL     1      -5.439  -4.882  11.461  0.00  0.00    +0.102 C 
ATOM     33  N   UNL     1      -5.875  -5.907  11.239  0.00  0.00    -0.191 NA
ENDBRANCH  25  32
ENDBRANCH  22  24
ENDBRANCH  19  20
ENDBRANCH  18  19
ENDBRANCH   4  18
TORSDOF 7
