REMARK  Name = ZINC06316292
REMARK  8 active torsions:
REMARK  status: ('A' for Active; 'I' for Inactive)
REMARK    1  A    between atoms: C_1  and  C_2
REMARK    2  A    between atoms: C_5  and  N_9
REMARK    3  A    between atoms: N_9  and  S_10
REMARK    4  A    between atoms: S_10  and  C_13
REMARK    5  A    between atoms: C_15  and  O_21
REMARK    6  A    between atoms: C_18  and  O_19
REMARK    7  A    between atoms: O_19  and  C_20
REMARK    8  A    between atoms: O_21  and  C_22
REMARK                            x       y       z     vdW  Elec       q    Type
REMARK                         _______ _______ _______ _____ _____    ______ ____
ROOT
ATOM      1  S   UNL     1      -0.116   1.399  -0.049  0.00  0.00    +0.076 S 
ATOM      2  O   UNL     1       0.227   0.020  -0.066  0.00  0.00    -0.150 OA
ATOM      3  O   UNL     1       0.861   2.427  -0.141  0.00  0.00    -0.150 OA
ENDROOT
BRANCH   1   4
ATOM      4  C   UNL     1      -1.242   1.654  -1.380  0.00  0.00    +0.153 A 
ATOM      5  C   UNL     1      -1.024   2.677  -2.283  0.00  0.00    +0.078 A 
ATOM      6  C   UNL     1      -1.908   2.874  -3.333  0.00  0.00    +0.122 A 
ATOM      7  C   UNL     1      -3.017   2.051  -3.471  0.00  0.00    +0.049 A 
ATOM      8  C   UNL     1      -3.237   1.032  -2.566  0.00  0.00    +0.051 A 
ATOM      9  C   UNL     1      -2.349   0.831  -1.518  0.00  0.00    +0.147 A 
BRANCH   9  10
ATOM     10  O   UNL     1      -2.566  -0.173  -0.627  0.00  0.00    -0.493 OA
ATOM     11  C   UNL     1      -3.727  -0.982  -0.830  0.00  0.00    +0.277 C 
ENDBRANCH   9  10
BRANCH   6  12
ATOM     12  O   UNL     1      -1.691   3.878  -4.224  0.00  0.00    -0.495 OA
ATOM     13  C   UNL     1      -2.646   4.027  -5.278  0.00  0.00    +0.277 C 
ENDBRANCH   6  12
ENDBRANCH   1   4
BRANCH   1  14
ATOM     14  N   UNL     1      -0.951   1.663   1.356  0.00  0.00    -0.215 N 
ATOM     15  H   UNL     1      -1.132   0.924   1.958  0.00  0.00    +0.174 HD
BRANCH  14  20
ATOM     16  C   UNL     1      -2.753   6.884   2.647  0.00  0.00    +0.044 C 
ATOM     17  C   UNL     1      -2.274   5.497   2.304  0.00  0.00    -0.049 A 
ATOM     18  C   UNL     1      -2.262   5.076   0.987  0.00  0.00    +0.005 A 
ATOM     19  C   UNL     1      -1.824   3.806   0.669  0.00  0.00    +0.026 A 
ATOM     20  C   UNL     1      -1.395   2.949   1.674  0.00  0.00    +0.066 A 
ATOM     21  C   UNL     1      -1.412   3.372   2.998  0.00  0.00    +0.064 A 
ATOM     22  C   UNL     1      -1.847   4.647   3.308  0.00  0.00    +0.025 A 
ATOM     23 CL   UNL     1      -0.884   2.303   4.260  0.00  0.00    -0.082 Cl
ENDBRANCH  14  20
ENDBRANCH   1  14
TORSDOF 5
