REMARK  Name = ZINC13255544
REMARK  8 active torsions:
REMARK  status: ('A' for Active; 'I' for Inactive)
REMARK    1  A    between atoms: C_1  and  C_2
REMARK    2  A    between atoms: C_4  and  C_16
REMARK    3  A    between atoms: C_12  and  C_13
REMARK    4  A    between atoms: C_16  and  S_17
REMARK    5  A    between atoms: S_17  and  C_18
REMARK    6  A    between atoms: C_21  and  C_26
REMARK    7  A    between atoms: N_22  and  C_23
REMARK    8  A    between atoms: C_23  and  C_24
REMARK                            x       y       z     vdW  Elec       q    Type
REMARK                         _______ _______ _______ _____ _____    ______ ____
ROOT
ATOM      1  C   UNL     1      -0.270   1.274  -2.754  0.00  0.00    +0.113 C 
ENDROOT
BRANCH   1   5
ATOM      2  C   UNL     1       0.677   1.499  -0.145  0.00  0.00    +0.046 C 
ATOM      3  C   UNL     1       0.638  -0.008  -0.140  0.00  0.00    -0.020 A 
ATOM      4  C   UNL     1       0.212  -0.733  -1.264  0.00  0.00    +0.014 A 
ATOM      5  C   UNL     1      -0.228  -0.215  -2.524  0.00  0.00    -0.022 A 
ATOM      6  C   UNL     1      -0.607  -1.061  -3.509  0.00  0.00    +0.075 A 
ATOM      7  C   UNL     1      -0.574  -2.454  -3.312  0.00  0.00    +0.250 A 
ATOM      8  O   UNL     1      -0.919  -3.206  -4.209  0.00  0.00    -0.268 OA
ATOM      9  N   UNL     1      -0.162  -2.957  -2.132  0.00  0.00    -0.317 N 
ATOM     10  H   UNL     1      -0.141  -3.917  -1.999  0.00  0.00    +0.169 HD
ATOM     11  C   UNL     1       0.224  -2.130  -1.126  0.00  0.00    +0.089 A 
ATOM     12  S   UNL     1       0.777  -2.410   0.428  0.00  0.00    -0.064 S 
ATOM     13  C   UNL     1       1.020  -0.727   0.957  0.00  0.00    +0.106 A 
BRANCH  13  14
ATOM     14  C   UNL     1       1.492  -0.251   2.207  0.00  0.00    +0.393 C 
ATOM     15  O   UNL     1       1.597   0.954   2.403  0.00  0.00    -0.240 OA
ATOM     16  O   UNL     1       1.794  -1.044   3.090  0.00  0.00    -0.240 OA
ENDBRANCH  13  14
ENDBRANCH   1   5
BRANCH   1  17
ATOM     17  S   UNL     1      -1.835   1.939  -2.123  0.00  0.00    -0.081 S 
BRANCH  17  18
ATOM     18  C   UNL     1      -1.732   3.666  -2.460  0.00  0.00    +0.192 A 
ATOM     19  N   UNL     1      -0.735   4.288  -3.044  0.00  0.00    -0.122 NA
ATOM     20  N   UNL     1      -0.994   5.544  -3.129  0.00  0.00    -0.133 NA
ATOM     21  C   UNL     1      -2.162   5.796  -2.609  0.00  0.00    +0.137 A 
ATOM     22  N   UNL     1      -2.677   4.607  -2.170  0.00  0.00    -0.302 N 
BRANCH  21  23
ATOM     23  C   UNL     1      -2.826   7.146  -2.515  0.00  0.00    +0.057 C 
ATOM     24  C   UNL     1      -3.018   7.719  -3.921  0.00  0.00    +0.011 C 
ATOM     25  C   UNL     1      -3.691   9.089  -3.825  0.00  0.00    +0.001 C 
ATOM     26  C   UNL     1      -2.811  10.034  -3.005  0.00  0.00    +0.000 C 
ATOM     27  C   UNL     1      -2.620   9.461  -1.599  0.00  0.00    +0.001 C 
ATOM     28  C   UNL     1      -1.946   8.091  -1.695  0.00  0.00    +0.011 C 
ENDBRANCH  21  23
BRANCH  22  29
ATOM     29  C   UNL     1      -3.972   4.391  -1.519  0.00  0.00    +0.152 C 
BRANCH  29  30
ATOM     30  C   UNL     1      -3.814   4.529  -0.027  0.00  0.00    -0.013 C 
ATOM     31  C   UNL     1      -4.564   5.375   0.635  0.00  0.00    +0.005 C 
ENDBRANCH  29  30
ENDBRANCH  22  29
ENDBRANCH  17  18
ENDBRANCH   1  17
TORSDOF 7
