REMARK  Name = ZINC01097781
REMARK  5 active torsions:
REMARK  status: ('A' for Active; 'I' for Inactive)
REMARK    1  A    between atoms: C_3  and  C_10
REMARK    2  A    between atoms: C_5  and  N_7
REMARK    3  A    between atoms: C_17  and  N_31
REMARK    4  A    between atoms: C_18  and  C_29
REMARK    5  A    between atoms: C_19  and  C_21
REMARK                            x       y       z     vdW  Elec       q    Type
REMARK                         _______ _______ _______ _____ _____    ______ ____
ROOT
ATOM      1  C   UNL     1       4.006   2.483   0.144  0.00  0.00    +0.100 A 
ATOM      2  C   UNL     1       4.071   3.563  -0.743  0.00  0.00    +0.054 A 
ATOM      3  C   UNL     1       5.324   4.099  -0.664  0.00  0.00    +0.223 A 
ATOM      4  N   UNL     1       6.021   3.382   0.242  0.00  0.00    -0.246 N 
ATOM      5  H   UNL     1       6.942   3.537   0.505  0.00  0.00    +0.192 HD
ATOM      6  N   UNL     1       5.178   2.377   0.741  0.00  0.00    -0.171 NA
ATOM      7  O   UNL     1       5.712   5.166  -1.406  0.00  0.00    -0.423 OA
ATOM      8  C   UNL     1       4.921   5.530  -2.436  0.00  0.00    +0.200 C 
ATOM      9  C   UNL     1       3.660   5.078  -2.613  0.00  0.00    +0.098 C 
ATOM     10  C   UNL     1       3.007   4.111  -1.658  0.00  0.00    +0.106 C 
ENDROOT
BRANCH  10  11
ATOM     11  C   UNL     1       1.958   4.827  -0.847  0.00  0.00    +0.019 A 
ATOM     12  C   UNL     1       2.328   5.834   0.028  0.00  0.00    +0.129 A 
ATOM     13  C   UNL     1       1.363   6.491   0.773  0.00  0.00    +0.039 A 
ATOM     14  C   UNL     1       0.032   6.142   0.642  0.00  0.00    +0.004 A 
ATOM     15  C   UNL     1      -0.337   5.137  -0.232  0.00  0.00    +0.020 A 
ATOM     16  C   UNL     1       0.625   4.483  -0.981  0.00  0.00    +0.048 A 
ATOM     17 CL   UNL     1       0.160   3.226  -2.084  0.00  0.00    -0.083 Cl
ATOM     18  F   UNL     1       3.629   6.174   0.157  0.00  0.00    -0.205 F 
ENDBRANCH  10  11
BRANCH   1  21
ATOM     19  C   UNL     1       0.966   0.360  -0.480  0.00  0.00    +0.003 A 
ATOM     20  C   UNL     1       2.063   1.169  -0.701  0.00  0.00    +0.010 A 
ATOM     21  C   UNL     1       2.825   1.614   0.376  0.00  0.00    +0.005 A 
ATOM     22  C   UNL     1       2.476   1.241   1.672  0.00  0.00    +0.042 A 
ATOM     23  C   UNL     1       1.378   0.433   1.882  0.00  0.00    +0.127 A 
ATOM     24  C   UNL     1       0.624  -0.007   0.809  0.00  0.00    +0.033 A 
BRANCH  23  25
ATOM     25  N   UNL     1       1.006   0.035   3.259  0.00  0.00    +0.056 N 
ATOM     26  O   UNL     1       1.664   0.418   4.197  0.00  0.00    -0.126 OA
ATOM     27  O   UNL     1       0.043  -0.673   3.444  0.00  0.00    -0.126 OA
ENDBRANCH  23  25
ENDBRANCH   1  21
BRANCH   8  28
ATOM     28  N   UNL     1       5.427   6.412  -3.359  0.00  0.00    -0.328 N 
ATOM     29  H   UNL     1       6.329   6.755  -3.258  0.00  0.00    +0.145 HD
ATOM     30  H   UNL     1       4.883   6.693  -4.111  0.00  0.00    +0.145 HD
ENDBRANCH   8  28
BRANCH   9  31
ATOM     31  C   UNL     1       2.917   5.534  -3.749  0.00  0.00    +0.101 C 
ATOM     32  N   UNL     1       2.327   5.896  -4.650  0.00  0.00    -0.191 NA
ENDBRANCH   9  31
TORSDOF 5
