REMARK  Name = ZINC40480108
REMARK  4 active torsions:
REMARK  status: ('A' for Active; 'I' for Inactive)
REMARK    1  A    between atoms: C_1  and  C_2
REMARK    2  A    between atoms: C_2  and  C_4
REMARK    3  A    between atoms: C_2  and  N_11
REMARK    4  A    between atoms: C_18  and  C_21
REMARK                            x       y       z     vdW  Elec       q    Type
REMARK                         _______ _______ _______ _____ _____    ______ ____
ROOT
ATOM      1  N   UNL     1      -1.372  -0.511   0.012  0.00  0.00    -0.321 N 
ATOM      2  C   UNL     1      -2.050  -0.660   1.218  0.00  0.00    +0.140 A 
ATOM      3  C   UNL     1      -3.369  -1.154   1.218  0.00  0.00    +0.049 A 
ATOM      4  C   UNL     1      -4.041  -1.303   2.391  0.00  0.00    +0.053 A 
ATOM      5  C   UNL     1      -3.400  -0.958   3.596  0.00  0.00    +0.178 A 
ATOM      6  N   UNL     1      -3.767  -0.984   4.868  0.00  0.00    -0.128 NA
ATOM      7  N   UNL     1      -2.796  -0.558   5.598  0.00  0.00    -0.123 NA
ATOM      8  C   UNL     1      -1.771  -0.240   4.846  0.00  0.00    +0.258 A 
ATOM      9  N   UNL     1      -2.114  -0.480   3.563  0.00  0.00    -0.187 N 
ATOM     10  N   UNL     1      -1.450  -0.343   2.342  0.00  0.00    -0.148 NA
ATOM     11  H   UNL     1      -1.810  -0.743  -0.822  0.00  0.00    +0.148 HD
ENDROOT
BRANCH   8  12
ATOM     12  C   UNL     1      -0.448   0.298   5.327  0.00  0.00    +0.454 C 
ATOM     13  F   UNL     1      -0.336   0.094   6.707  0.00  0.00    -0.163 F 
ATOM     14  F   UNL     1       0.593  -0.369   4.671  0.00  0.00    -0.163 F 
ATOM     15  F   UNL     1      -0.372   1.667   5.050  0.00  0.00    -0.163 F 
ENDBRANCH   8  12
BRANCH   1  17
ATOM     16  C   UNL     1      -0.019   1.526   0.010  0.00  0.00    +0.033 C 
ATOM     17  C   UNL     1       0.002  -0.004   0.002  0.00  0.00    +0.102 C 
BRANCH  17  18
ATOM     18  C   UNL     1       0.707  -0.490  -1.238  0.00  0.00    +0.008 A 
ATOM     19  C   UNL     1      -0.022  -0.817  -2.365  0.00  0.00    +0.008 A 
ATOM     20  C   UNL     1       0.624  -1.263  -3.502  0.00  0.00    +0.000 A 
ATOM     21  C   UNL     1       2.002  -1.382  -3.514  0.00  0.00    +0.003 A 
ATOM     22  C   UNL     1       2.733  -1.055  -2.389  0.00  0.00    +0.039 A 
ATOM     23  C   UNL     1       2.087  -0.604  -1.250  0.00  0.00    +0.128 A 
ATOM     24  F   UNL     1       2.802  -0.279  -0.150  0.00  0.00    -0.205 F 
ENDBRANCH  17  18
ENDBRANCH   1  17
TORSDOF 3
