REMARK  Name = ZINC08790472
REMARK  10 active torsions:
REMARK  status: ('A' for Active; 'I' for Inactive)
REMARK    1  A    between atoms: C_1  and  C_2
REMARK    2  A    between atoms: C_13  and  C_15
REMARK    3  A    between atoms: C_15  and  C_16
REMARK    4  A    between atoms: N_21  and  C_24
REMARK    5  A    between atoms: C_24  and  C_25
REMARK    6  A    between atoms: C_25  and  C_26
REMARK    7  A    between atoms: C_29  and  O_34
REMARK    8  A    between atoms: C_30  and  O_32
REMARK    9  A    between atoms: O_32  and  C_33
REMARK   10  A    between atoms: O_34  and  C_35
REMARK                            x       y       z     vdW  Elec       q    Type
REMARK                         _______ _______ _______ _____ _____    ______ ____
ROOT
ATOM      1  C   UNL     1       3.368   5.753  -3.172  0.00  0.00    +0.044 C 
ATOM      2  C   UNL     1       1.923   5.926  -2.780  0.00  0.00    -0.050 A 
ATOM      3  C   UNL     1       1.306   7.154  -2.932  0.00  0.00    +0.005 A 
ATOM      4  C   UNL     1      -0.017   7.318  -2.576  0.00  0.00    +0.024 A 
ATOM      5  C   UNL     1      -0.741   6.246  -2.058  0.00  0.00    +0.036 A 
ATOM      6  C   UNL     1      -0.108   5.015  -1.909  0.00  0.00    -0.027 A 
ATOM      7  C   UNL     1       1.212   4.856  -2.267  0.00  0.00    +0.008 A 
ATOM      8  C   UNL     1      -1.144   4.089  -1.337  0.00  0.00    +0.050 C 
ATOM      9  C   UNL     1      -0.699   3.514   0.014  0.00  0.00    +0.088 C 
ATOM     10  C   UNL     1      -1.260   2.064   0.019  0.00  0.00    +0.073 C 
ATOM     11  C   UNL     1      -2.000   1.915  -1.321  0.00  0.00    -0.049 C 
ATOM     12  C   UNL     1      -0.014   1.208   0.009  0.00  0.00    +0.224 C 
ATOM     13  O   UNL     1       0.002  -0.004   0.002  0.00  0.00    -0.275 OA
ATOM     14  N   UNL     1       1.067   1.996   0.003  0.00  0.00    -0.241 N 
ATOM     15  C   UNL     1       0.799   3.307   0.008  0.00  0.00    +0.225 C 
ATOM     16  O   UNL     1       1.629   4.191   0.008  0.00  0.00    -0.275 OA
ATOM     17  C   UNL     1      -2.384   4.928  -1.195  0.00  0.00    +0.211 C 
ATOM     18  O   UNL     1      -3.459   4.564  -0.768  0.00  0.00    -0.277 OA
ATOM     19  N   UNL     1      -2.068   6.162  -1.633  0.00  0.00    -0.286 N 
ATOM     20  H   UNL     1      -2.691   6.905  -1.652  0.00  0.00    +0.155 HD
ATOM     21  N   UNL     1      -1.384   2.930  -2.178  0.00  0.00    +0.394 N 
ATOM     22  H   UNL     1      -0.498   2.580  -2.562  0.00  0.00    -0.083 HD
ATOM     23  H   UNL     1      -2.018   3.176  -2.948  0.00  0.00    -0.083 HD
ENDROOT
BRANCH  11  24
ATOM     24  C   UNL     1      -1.799   0.509  -1.888  0.00  0.00    +0.080 C 
BRANCH  24  25
ATOM     25  C   UNL     1      -2.570   0.372  -3.176  0.00  0.00    +0.209 C 
ATOM     26  O   UNL     1      -3.216   1.307  -3.598  0.00  0.00    -0.276 OA
ATOM     27  N   UNL     1      -2.541  -0.790  -3.858  0.00  0.00    -0.329 N 
ATOM     28  H   UNL     1      -2.024  -1.538  -3.520  0.00  0.00    +0.145 HD
ATOM     29  H   UNL     1      -3.037  -0.878  -4.687  0.00  0.00    +0.145 HD
ENDBRANCH  24  25
ENDBRANCH  11  24
BRANCH  14  30
ATOM     30  C   UNL     1       2.433   1.466  -0.010  0.00  0.00    +0.121 C 
BRANCH  30  31
ATOM     31  C   UNL     1       2.897   1.286  -1.456  0.00  0.00    +0.054 C 
BRANCH  31  32
ATOM     32  C   UNL     1       4.302   0.741  -1.469  0.00  0.00    -0.042 A 
ATOM     33  C   UNL     1       4.512  -0.626  -1.474  0.00  0.00    +0.007 A 
ATOM     34  C   UNL     1       5.799  -1.130  -1.486  0.00  0.00    +0.049 A 
ATOM     35  C   UNL     1       6.882  -0.266  -1.492  0.00  0.00    +0.161 A 
ATOM     36  C   UNL     1       6.670   1.109  -1.488  0.00  0.00    +0.162 A 
ATOM     37  C   UNL     1       5.378   1.609  -1.481  0.00  0.00    +0.053 A 
BRANCH  36  38
ATOM     38  O   UNL     1       7.730   1.962  -1.494  0.00  0.00    -0.491 OA
ATOM     39  C   UNL     1       7.438   3.360  -1.489  0.00  0.00    +0.277 C 
ENDBRANCH  36  38
BRANCH  35  40
ATOM     40  O   UNL     1       8.149  -0.761  -1.504  0.00  0.00    -0.491 OA
ATOM     41  C   UNL     1       8.289  -2.183  -1.509  0.00  0.00    +0.277 C 
ENDBRANCH  35  40
ENDBRANCH  31  32
ENDBRANCH  30  31
ENDBRANCH  14  30
TORSDOF 7
