REMARK  Name = ZINC67615130
REMARK  10 active torsions:
REMARK  status: ('A' for Active; 'I' for Inactive)
REMARK    1  A    between atoms: C_1  and  C_2
REMARK    2  A    between atoms: C_5  and  C_9
REMARK    3  A    between atoms: N_11  and  C_12
REMARK    4  A    between atoms: C_12  and  C_13
REMARK    5  A    between atoms: C_13  and  N_14
REMARK    6  A    between atoms: N_17  and  C_18
REMARK    7  A    between atoms: N_17  and  C_19
REMARK    8  A    between atoms: C_19  and  C_21
REMARK    9  A    between atoms: C_19  and  C_22
REMARK   10  A    between atoms: C_26  and  O_28
REMARK                            x       y       z     vdW  Elec       q    Type
REMARK                         _______ _______ _______ _____ _____    ______ ____
ROOT
ATOM      1  N   UNL     1       0.141  -8.387   2.557  0.00  0.00    -0.298 N 
ATOM      2  C   UNL     1       0.159  -9.071   3.718  0.00  0.00    +0.302 C 
ATOM      3  O   UNL     1       0.181  -8.472   4.776  0.00  0.00    -0.253 OA
ATOM      4  N   UNL     1       0.153 -10.418   3.706  0.00  0.00    -0.282 N 
ATOM      5  C   UNL     1       0.126 -11.140   2.431  0.00  0.00    +0.134 C 
ATOM      6  H   UNL     1       0.123  -8.864   1.712  0.00  0.00    +0.150 HD
ENDROOT
BRANCH   4   7
ATOM      7  C   UNL     1       0.173 -11.162   4.968  0.00  0.00    +0.104 C 
ATOM      8  C   UNL     1      -0.998 -12.147   4.998  0.00  0.00    +0.033 C 
BRANCH   7   9
ATOM      9  C   UNL     1       1.470 -11.920   5.085  0.00  0.00    -0.024 A 
ATOM     10  C   UNL     1       2.270 -11.753   6.200  0.00  0.00    +0.006 A 
ATOM     11  C   UNL     1       3.461 -12.446   6.310  0.00  0.00    +0.004 A 
ATOM     12  C   UNL     1       3.855 -13.308   5.305  0.00  0.00    +0.045 A 
ATOM     13  C   UNL     1       3.054 -13.477   4.184  0.00  0.00    +0.117 A 
ATOM     14  C   UNL     1       1.857 -12.784   4.080  0.00  0.00    +0.050 A 
BRANCH  13  15
ATOM     15  O   UNL     1       3.440 -14.324   3.194  0.00  0.00    -0.507 OA
ATOM     16  H   UNL     1       3.128 -15.232   3.310  0.00  0.00    +0.292 HD
ENDBRANCH  13  15
ENDBRANCH   7   9
ENDBRANCH   4   7
BRANCH   1  17
ATOM     17  C   UNL     1       0.147  -6.922   2.569  0.00  0.00    +0.124 C 
BRANCH  17  18
ATOM     18  C   UNL     1       0.123  -6.399   1.131  0.00  0.00    +0.123 C 
BRANCH  18  21
ATOM     19  C   UNL     1       0.112  -4.250  -0.017  0.00  0.00    +0.244 C 
ATOM     20  O   UNL     1       0.090  -4.849  -1.075  0.00  0.00    -0.270 OA
ATOM     21  N   UNL     1       0.130  -4.934   1.144  0.00  0.00    -0.310 N 
ATOM     22  H   UNL     1       0.148  -4.457   1.988  0.00  0.00    +0.149 HD
BRANCH  19  27
ATOM     23  C   UNL     1       0.136   1.506   0.027  0.00  0.00    +0.047 C 
ATOM     24  C   UNL     1       0.130  -0.001   0.016  0.00  0.00    -0.015 A 
ATOM     25  C   UNL     1       0.106  -0.682  -1.189  0.00  0.00    +0.007 A 
ATOM     26  C   UNL     1       0.100  -2.061  -1.206  0.00  0.00    +0.013 A 
ATOM     27  C   UNL     1       0.119  -2.772  -0.005  0.00  0.00    +0.039 A 
ATOM     28  C   UNL     1       0.144  -2.082   1.208  0.00  0.00    +0.051 A 
ATOM     29  C   UNL     1       0.155  -0.700   1.212  0.00  0.00    +0.127 A 
ATOM     30  F   UNL     1       0.184  -0.029   2.384  0.00  0.00    -0.205 F 
ENDBRANCH  19  27
ENDBRANCH  18  21
ENDBRANCH  17  18
ENDBRANCH   1  17
TORSDOF 7
