REMARK  Name = ZINC18264295
REMARK  4 active torsions:
REMARK  status: ('A' for Active; 'I' for Inactive)
REMARK    1  A    between atoms: C_9  and  C_13
REMARK    2  A    between atoms: C_13  and  O_14
REMARK    3  A    between atoms: O_14  and  C_15
REMARK    4  A    between atoms: C_15  and  C_17
REMARK                            x       y       z     vdW  Elec       q    Type
REMARK                         _______ _______ _______ _____ _____    ______ ____
ROOT
ATOM      1  C   UNL     1       5.926   2.799   0.206  0.00  0.00    +0.005 C 
ATOM      2  C   UNL     1       5.629   3.933   1.193  0.00  0.00    +0.005 C 
ATOM      3  C   UNL     1       4.299   4.591   0.800  0.00  0.00    +0.043 C 
ATOM      4  C   UNL     1       3.287   3.511   0.566  0.00  0.00    -0.004 A 
ATOM      5  C   UNL     1       3.523   2.194   0.398  0.00  0.00    -0.025 A 
ATOM      6  C   UNL     1       2.358   1.333   0.184  0.00  0.00    +0.051 A 
ATOM      7  C   UNL     1       2.316  -0.074  -0.019  0.00  0.00    +0.128 A 
ATOM      8  N   UNL     1       1.145  -0.664  -0.195  0.00  0.00    -0.214 NA
ATOM      9  C   UNL     1       0.009   0.010  -0.187  0.00  0.00    +0.170 A 
ATOM     10  N   UNL     1      -0.015   1.316  -0.003  0.00  0.00    -0.221 NA
ATOM     11  C   UNL     1       1.108   1.983   0.179  0.00  0.00    +0.114 A 
ATOM     12  S   UNL     1       1.527   3.684   0.452  0.00  0.00    -0.073 S 
ATOM     13  N   UNL     1       3.483  -0.816  -0.035  0.00  0.00    -0.343 N 
ATOM     14  C   UNL     1       4.947   1.646   0.432  0.00  0.00    +0.037 C 
ATOM     15  H   UNL     1       3.481  -1.716  -0.395  0.00  0.00    +0.144 HD
ATOM     16  H   UNL     1       4.304  -0.435   0.315  0.00  0.00    +0.144 HD
ENDROOT
BRANCH   9  17
ATOM     17  C   UNL     1      -1.289  -0.729  -0.393  0.00  0.00    +0.308 C 
BRANCH  17  18
ATOM     18  O   UNL     1      -1.595  -0.773  -1.788  0.00  0.00    -0.451 OA
BRANCH  18  19
ATOM     19  C   UNL     1      -2.733  -1.405  -2.145  0.00  0.00    +0.378 C 
ATOM     20  O   UNL     1      -3.445  -1.904  -1.294  0.00  0.00    -0.241 OA
BRANCH  19  21
ATOM     21  C   UNL     1      -3.111  -1.489  -3.555  0.00  0.00    +0.240 C 
ATOM     22  C   UNL     1      -2.315  -0.933  -4.480  0.00  0.00    +0.240 C 
ATOM     23  O   UNL     1      -2.620  -0.976  -5.794  0.00  0.00    -0.492 OA
ATOM     24  C   UNL     1      -3.599  -1.940  -6.199  0.00  0.00    +0.269 C 
ATOM     25  C   UNL     1      -4.773  -1.871  -5.212  0.00  0.00    +0.270 C 
ATOM     26  O   UNL     1      -4.260  -2.134  -3.898  0.00  0.00    -0.480 OA
ENDBRANCH  19  21
ENDBRANCH  18  19
ENDBRANCH  17  18
ENDBRANCH   9  17
TORSDOF 4
