REMARK  Name = ZINC04311195
REMARK  7 active torsions:
REMARK  status: ('A' for Active; 'I' for Inactive)
REMARK    1  A    between atoms: C_1  and  C_2
REMARK    2  A    between atoms: C_2  and  C_3
REMARK    3  A    between atoms: C_3  and  C_4
REMARK    4  A    between atoms: C_11  and  N_26
REMARK    5  A    between atoms: C_12  and  C_24
REMARK    6  A    between atoms: C_13  and  C_15
REMARK    7  A    between atoms: C_18  and  N_21
REMARK                            x       y       z     vdW  Elec       q    Type
REMARK                         _______ _______ _______ _____ _____    ______ ____
ROOT
ATOM      1  C   UNL     1      -1.413  -2.041   0.005  0.00  0.00    +0.044 A 
ATOM      2  C   UNL     1      -1.303  -2.837   1.079  0.00  0.00    +0.049 A 
ATOM      3  C   UNL     1      -1.324  -4.177   0.635  0.00  0.00    +0.245 A 
ATOM      4  N   UNL     1      -1.444  -4.171  -0.661  0.00  0.00    -0.135 NA
ATOM      5  N   UNL     1      -1.508  -2.835  -1.087  0.00  0.00    -0.278 N 
ATOM      6  H   UNL     1      -1.602  -2.533  -2.004  0.00  0.00    +0.189 HD
ATOM      7  O   UNL     1      -1.226  -5.224   1.498  0.00  0.00    -0.421 OA
ATOM      8  C   UNL     1      -0.838  -4.954   2.760  0.00  0.00    +0.201 C 
ATOM      9  C   UNL     1      -0.789  -3.717   3.297  0.00  0.00    +0.098 C 
ATOM     10  C   UNL     1      -1.175  -2.474   2.536  0.00  0.00    +0.101 C 
ENDROOT
BRANCH  10  11
ATOM     11  C   UNL     1      -2.493  -1.953   3.049  0.00  0.00    -0.034 A 
ATOM     12  C   UNL     1      -3.616  -2.759   3.011  0.00  0.00    +0.007 A 
ATOM     13  C   UNL     1      -4.824  -2.281   3.481  0.00  0.00    +0.033 A 
ATOM     14  C   UNL     1      -4.910  -0.998   3.989  0.00  0.00    +0.126 A 
ATOM     15  C   UNL     1      -3.787  -0.193   4.027  0.00  0.00    +0.033 A 
ATOM     16  C   UNL     1      -2.577  -0.672   3.561  0.00  0.00    +0.007 A 
BRANCH  14  17
ATOM     17  N   UNL     1      -6.205  -0.486   4.492  0.00  0.00    +0.056 N 
ATOM     18  O   UNL     1      -7.188  -1.190   4.458  0.00  0.00    -0.126 OA
ATOM     19  O   UNL     1      -6.280   0.636   4.936  0.00  0.00    -0.126 OA
ENDBRANCH  14  17
ENDBRANCH  10  11
BRANCH   8  20
ATOM     20  N   UNL     1      -0.466  -6.010   3.553  0.00  0.00    -0.328 N 
ATOM     21  H   UNL     1      -0.488  -6.914   3.201  0.00  0.00    +0.145 HD
ATOM     22  H   UNL     1      -0.180  -5.854   4.467  0.00  0.00    +0.145 HD
ENDBRANCH   8  20
BRANCH   9  23
ATOM     23  C   UNL     1      -0.351  -3.579   4.653  0.00  0.00    +0.101 C 
ATOM     24  N   UNL     1      -0.003  -3.469   5.729  0.00  0.00    -0.191 NA
ENDBRANCH   9  23
BRANCH   1  25
ATOM     25  C   UNL     1      -1.433  -0.534   0.013  0.00  0.00    +0.055 C 
BRANCH  25  27
ATOM     26  C   UNL     1      -0.019   1.526   0.010  0.00  0.00    +0.004 C 
ATOM     27  C   UNL     1       0.002  -0.004   0.002  0.00  0.00    +0.003 C 
ENDBRANCH  25  27
ENDBRANCH   1  25
TORSDOF 6
