REMARK  Name = ZINC16701272
REMARK  9 active torsions:
REMARK  status: ('A' for Active; 'I' for Inactive)
REMARK    1  A    between atoms: C_1  and  C_2
REMARK    2  A    between atoms: C_2  and  C_3
REMARK    3  A    between atoms: C_3  and  C_5
REMARK    4  A    between atoms: C_3  and  S_14
REMARK    5  A    between atoms: C_10  and  C_13
REMARK    6  A    between atoms: S_14  and  C_15
REMARK    7  A    between atoms: C_18  and  C_21
REMARK    8  A    between atoms: N_19  and  N_20
REMARK    9  A    between atoms: C_24  and  C_27
REMARK                            x       y       z     vdW  Elec       q    Type
REMARK                         _______ _______ _______ _____ _____    ______ ____
ROOT
ATOM      1  C   UNL     1      -3.163   1.160  -1.661  0.00  0.00    +0.209 A 
ATOM      2  N   UNL     1      -3.961   1.791  -2.494  0.00  0.00    -0.121 NA
ATOM      3  N   UNL     1      -4.090   1.113  -3.579  0.00  0.00    -0.127 NA
ATOM      4  C   UNL     1      -3.379   0.013  -3.507  0.00  0.00    +0.182 A 
ATOM      5  N   UNL     1      -2.761   0.011  -2.278  0.00  0.00    -0.224 N 
ENDROOT
BRANCH   4   6
ATOM      6  C   UNL     1      -3.265  -1.029  -4.550  0.00  0.00    +0.021 A 
ATOM      7  C   UNL     1      -2.244  -1.979  -4.483  0.00  0.00    +0.012 A 
ATOM      8  C   UNL     1      -2.146  -2.951  -5.457  0.00  0.00    +0.004 A 
ATOM      9  C   UNL     1      -3.051  -2.980  -6.504  0.00  0.00    -0.050 A 
ATOM     10  C   UNL     1      -4.062  -2.038  -6.579  0.00  0.00    +0.004 A 
ATOM     11  C   UNL     1      -4.174  -1.064  -5.609  0.00  0.00    +0.012 A 
ATOM     12  C   UNL     1      -2.934  -4.042  -7.567  0.00  0.00    +0.044 C 
ENDBRANCH   4   6
BRANCH   5  13
ATOM     13  N   UNL     1      -1.923  -0.945  -1.777  0.00  0.00    -0.295 N 
ATOM     14  H   UNL     1      -0.963  -0.746  -2.015  0.00  0.00    +0.163 HD
ATOM     15  H   UNL     1      -2.036  -1.038  -0.779  0.00  0.00    +0.163 HD
ENDBRANCH   5  13
BRANCH   1  16
ATOM     16  S   UNL     1      -2.697   1.700  -0.050  0.00  0.00    -0.072 S 
BRANCH  16  17
ATOM     17  C   UNL     1      -3.494   3.325  -0.020  0.00  0.00    +0.140 C 
BRANCH  17  18
ATOM     18  C   UNL     1      -4.991   3.149   0.003  0.00  0.00    +0.232 C 
ATOM     19  O   UNL     1      -5.475   2.129   0.444  0.00  0.00    -0.274 OA
ATOM     20  N   UNL     1      -5.792   4.127  -0.467  0.00  0.00    -0.267 N 
ATOM     21  C   UNL     1      -7.177   3.964  -0.446  0.00  0.00    +0.168 A 
ATOM     22  C   UNL     1      -7.896   2.837   0.035  0.00  0.00    +0.091 A 
ATOM     23  C   UNL     1      -9.192   3.169  -0.163  0.00  0.00    +0.136 A 
ATOM     24  O   UNL     1      -9.195   4.392  -0.713  0.00  0.00    -0.358 OA
ATOM     25  N   UNL     1      -8.074   4.821  -0.859  0.00  0.00    -0.063 NA
ATOM     26  C   UNL     1     -10.398   2.329   0.171  0.00  0.00    +0.089 C 
ATOM     27  H   UNL     1      -5.404   4.943  -0.820  0.00  0.00    +0.156 HD
ENDBRANCH  17  18
BRANCH  17  29
ATOM     28  C   UNL     1      -1.554   4.388   1.140  0.00  0.00    +0.005 C 
ATOM     29  C   UNL     1      -3.051   4.088   1.230  0.00  0.00    +0.020 C 
ENDBRANCH  17  29
ENDBRANCH  16  17
ENDBRANCH   1  16
TORSDOF 6
