REMARK  Name = ZINC25561537
REMARK  8 active torsions:
REMARK  status: ('A' for Active; 'I' for Inactive)
REMARK    1  A    between atoms: C_1  and  C_2
REMARK    2  A    between atoms: C_4  and  C_23
REMARK    3  A    between atoms: C_6  and  N_8
REMARK    4  A    between atoms: C_10  and  C_21
REMARK    5  A    between atoms: C_11  and  C_18
REMARK    6  A    between atoms: C_12  and  C_16
REMARK    7  A    between atoms: C_13  and  N_15
REMARK    8  A    between atoms: C_18  and  C_19
REMARK                            x       y       z     vdW  Elec       q    Type
REMARK                         _______ _______ _______ _____ _____    ______ ____
ROOT
ATOM      1  N   UNL     1      -4.680   0.793   0.028  0.00  0.00    -0.298 N 
ATOM      2  C   UNL     1      -3.531   1.540   0.201  0.00  0.00    +0.143 A 
ATOM      3  C   UNL     1      -3.608   2.947   0.196  0.00  0.00    +0.097 A 
ATOM      4  C   UNL     1      -2.440   3.692   0.371  0.00  0.00    +0.008 A 
ATOM      5  C   UNL     1      -1.236   3.005   0.551  0.00  0.00    +0.097 A 
ATOM      6  C   UNL     1      -1.243   1.596   0.537  0.00  0.00    +0.136 A 
ATOM      7  N   UNL     1      -2.371   0.925   0.368  0.00  0.00    -0.215 NA
ATOM      8  H   UNL     1      -5.659   1.293  -0.020  0.00  0.00    +0.154 HD
ENDROOT
BRANCH   1  14
ATOM      9  C   UNL     1      -2.230  -3.193  -1.476  0.00  0.00    +0.044 C 
ATOM     10  C   UNL     1      -3.423  -2.557  -0.811  0.00  0.00    -0.048 A 
ATOM     11  C   UNL     1      -4.439  -3.350  -0.311  0.00  0.00    +0.006 A 
ATOM     12  C   UNL     1      -5.536  -2.771   0.301  0.00  0.00    -0.048 A 
ATOM     13  C   UNL     1      -5.619  -1.397   0.415  0.00  0.00    +0.026 A 
ATOM     14  C   UNL     1      -4.600  -0.597  -0.086  0.00  0.00    +0.033 A 
ATOM     15  C   UNL     1      -3.503  -1.182  -0.705  0.00  0.00    +0.026 A 
ATOM     16  C   UNL     1      -6.641  -3.639   0.844  0.00  0.00    +0.044 C 
ENDBRANCH   1  14
BRANCH   6  17
ATOM     17  N   UNL     1      -0.059   0.908   0.707  0.00  0.00    -0.342 N 
ATOM     18  H   UNL     1      -0.056  -0.192   0.698  0.00  0.00    +0.144 HD
ATOM     19  H   UNL     1       0.882   1.459   0.853  0.00  0.00    +0.144 HD
ENDBRANCH   6  17
BRANCH   5  20
ATOM     20  C   UNL     1      -0.012   3.723   0.740  0.00  0.00    +0.103 C 
ATOM     21  N   UNL     1       0.959   4.293   0.890  0.00  0.00    -0.191 NA
ENDBRANCH   5  20
BRANCH   3  22
ATOM     22  C   UNL     1      -4.867   3.604   0.015  0.00  0.00    +0.103 C 
ATOM     23  N   UNL     1      -5.867   4.125  -0.128  0.00  0.00    -0.191 NA
ENDBRANCH   3  22
BRANCH   4  24
ATOM     24  C   UNL     1      -2.477   5.198   0.373  0.00  0.00    +0.156 C 
BRANCH  24  25
ATOM     25  C   UNL     1      -2.691   5.682   1.747  0.00  0.00    +0.067 C 
ATOM     26  N   UNL     1      -2.856   6.056   2.807  0.00  0.00    -0.196 NA
ENDBRANCH  24  25
ENDBRANCH   4  24
TORSDOF 6
