REMARK  Name = ZINC05942408
REMARK  4 active torsions:
REMARK  status: ('A' for Active; 'I' for Inactive)
REMARK    1  A    between atoms: C_6  and  C_11
REMARK    2  A    between atoms: C_17  and  C_25
REMARK    3  A    between atoms: C_19  and  C_23
REMARK    4  A    between atoms: C_20  and  N_22
REMARK                            x       y       z     vdW  Elec       q    Type
REMARK                         _______ _______ _______ _____ _____    ______ ____
ROOT
ATOM      1  C   UNL     1       4.970  -2.712  -0.060  0.00  0.00    +0.084 C 
ATOM      2  N   UNL     1       6.164  -2.181  -0.063  0.00  0.00    -0.150 NA
ATOM      3  N   UNL     1       7.171  -3.146  -0.045  0.00  0.00    -0.115 NA
ATOM      4  C   UNL     1       6.696  -4.338   0.028  0.00  0.00    +0.227 C 
ATOM      5  C   UNL     1       5.178  -4.209  -0.069  0.00  0.00    +0.140 C 
ATOM      6  C   UNL     1       4.620  -4.848   1.208  0.00  0.00    +0.082 C 
ATOM      7  C   UNL     1       5.383  -6.111   1.500  0.00  0.00    +0.095 C 
ATOM      8  C   UNL     1       6.613  -6.386   1.018  0.00  0.00    +0.200 C 
ATOM      9  O   UNL     1       7.285  -5.543   0.187  0.00  0.00    -0.425 OA
ENDROOT
BRANCH   1  15
ATOM     10  C   UNL     1      -0.016   1.357   0.009  0.00  0.00    +0.001 A 
ATOM     11  C   UNL     1       1.168   2.092   0.002  0.00  0.00    +0.001 A 
ATOM     12  C   UNL     1       2.378   1.468  -0.013  0.00  0.00    +0.008 A 
ATOM     13  C   UNL     1       2.437   0.063  -0.021  0.00  0.00    -0.017 A 
ATOM     14  C   UNL     1       3.667  -0.611  -0.036  0.00  0.00    +0.018 A 
ATOM     15  C   UNL     1       3.684  -1.998  -0.043  0.00  0.00    -0.001 A 
ATOM     16  C   UNL     1       2.479  -2.727  -0.036  0.00  0.00    +0.010 A 
ATOM     17  C   UNL     1       1.282  -2.091  -0.021  0.00  0.00    +0.009 A 
ATOM     18  C   UNL     1       1.231  -0.684  -0.013  0.00  0.00    -0.018 A 
ATOM     19  C   UNL     1       0.002  -0.004   0.002  0.00  0.00    +0.008 A 
ENDBRANCH   1  15
BRANCH   6  20
ATOM     20  C   UNL     1       4.771  -3.887   2.359  0.00  0.00    -0.034 A 
ATOM     21  C   UNL     1       6.027  -3.442   2.725  0.00  0.00    +0.008 A 
ATOM     22  C   UNL     1       6.171  -2.560   3.780  0.00  0.00    +0.050 A 
ATOM     23  C   UNL     1       5.055  -2.121   4.474  0.00  0.00    +0.166 A 
ATOM     24  C   UNL     1       3.789  -2.570   4.106  0.00  0.00    +0.167 A 
ATOM     25  C   UNL     1       3.652  -3.449   3.043  0.00  0.00    +0.053 A 
ATOM     26  O   UNL     1       2.866  -2.000   4.933  0.00  0.00    -0.453 OA
ATOM     27  C   UNL     1       3.611  -1.519   6.067  0.00  0.00    +0.466 C 
ATOM     28  O   UNL     1       4.925  -1.270   5.533  0.00  0.00    -0.453 OA
ENDBRANCH   6  20
BRANCH   8  29
ATOM     29  N   UNL     1       7.210  -7.569   1.376  0.00  0.00    -0.328 N 
ATOM     30  H   UNL     1       6.748  -8.187   1.964  0.00  0.00    +0.145 HD
ATOM     31  H   UNL     1       8.094  -7.787   1.042  0.00  0.00    +0.145 HD
ENDBRANCH   8  29
BRANCH   7  32
ATOM     32  C   UNL     1       4.763  -7.087   2.346  0.00  0.00    +0.100 C 
ATOM     33  N   UNL     1       4.272  -7.860   3.017  0.00  0.00    -0.191 NA
ENDBRANCH   7  32
TORSDOF 4
