REMARK  Name = ZINC66461019
REMARK  9 active torsions:
REMARK  status: ('A' for Active; 'I' for Inactive)
REMARK    1  A    between atoms: C_1  and  C_2
REMARK    2  A    between atoms: C_2  and  C_3
REMARK    3  A    between atoms: C_2  and  C_4
REMARK    4  A    between atoms: C_4  and  N_5
REMARK    5  A    between atoms: C_7  and  C_12
REMARK    6  A    between atoms: N_14  and  C_15
REMARK    7  A    between atoms: N_14  and  C_20
REMARK    8  A    between atoms: C_15  and  C_16
REMARK    9  A    between atoms: N_18  and  C_19
REMARK                            x       y       z     vdW  Elec       q    Type
REMARK                         _______ _______ _______ _____ _____    ______ ____
ROOT
ATOM      1  C   UNL     1      -4.362   1.816  -3.305  0.00  0.00    +0.225 C 
ATOM      2  O   UNL     1      -5.221   1.933  -2.457  0.00  0.00    -0.275 OA
ATOM      3  N   UNL     1      -4.611   2.196  -4.574  0.00  0.00    -0.262 N 
ENDROOT
BRANCH   3   4
ATOM      4  C   UNL     1      -5.811   2.845  -4.887  0.00  0.00    +0.040 A 
ATOM      5  C   UNL     1      -6.667   3.252  -3.872  0.00  0.00    +0.024 A 
ATOM      6  C   UNL     1      -7.850   3.893  -4.183  0.00  0.00    +0.005 A 
ATOM      7  C   UNL     1      -8.185   4.129  -5.504  0.00  0.00    +0.038 A 
ATOM      8  C   UNL     1      -7.334   3.724  -6.519  0.00  0.00    +0.125 A 
ATOM      9  C   UNL     1      -6.145   3.087  -6.213  0.00  0.00    +0.061 A 
ATOM     10  F   UNL     1      -7.664   3.956  -7.808  0.00  0.00    -0.205 F 
ENDBRANCH   3   4
BRANCH   1  13
ATOM     11  N   UNL     1      -2.126  -0.216  -1.260  0.00  0.00    -0.300 N 
ATOM     12  C   UNL     1      -2.907   1.017  -1.416  0.00  0.00    +0.121 C 
ATOM     13  C   UNL     1      -3.016   1.245  -2.940  0.00  0.00    +0.101 C 
ATOM     14  C   UNL     1      -2.857  -0.193  -3.487  0.00  0.00    +0.110 C 
ATOM     15  C   UNL     1      -2.081  -0.914  -2.408  0.00  0.00    +0.216 C 
ATOM     16  O   UNL     1      -1.504  -1.971  -2.555  0.00  0.00    -0.276 OA
BRANCH  11  17
ATOM     17  C   UNL     1      -1.473  -0.628  -0.015  0.00  0.00    +0.110 C 
BRANCH  17  19
ATOM     18  C   UNL     1      -0.119   1.469   0.094  0.00  0.00    +0.009 C 
ATOM     19  C   UNL     1      -0.054  -0.058   0.030  0.00  0.00    +0.000 C 
ATOM     20  C   UNL     1       0.671  -0.590   1.268  0.00  0.00    +0.009 C 
ENDBRANCH  17  19
ENDBRANCH  11  17
ENDBRANCH   1  13
BRANCH   3  21
ATOM     21  C   UNL     1      -3.626   1.930  -5.625  0.00  0.00    +0.209 C 
BRANCH  21  22
ATOM     22  C   UNL     1      -3.901   0.583  -6.242  0.00  0.00    +0.231 C 
ATOM     23  O   UNL     1      -4.828  -0.089  -5.843  0.00  0.00    -0.274 OA
ATOM     24  N   UNL     1      -3.116   0.124  -7.237  0.00  0.00    -0.317 N 
ATOM     25  C   UNL     1      -3.383  -1.185  -7.837  0.00  0.00    +0.128 C 
ATOM     26  H   UNL     1      -2.375   0.662  -7.557  0.00  0.00    +0.148 HD
ENDBRANCH  21  22
ENDBRANCH   3  21
TORSDOF 6
