REMARK  Name = ZINC16215145
REMARK  7 active torsions:
REMARK  status: ('A' for Active; 'I' for Inactive)
REMARK    1  A    between atoms: C_1  and  O_2
REMARK    2  A    between atoms: O_2  and  C_3
REMARK    3  A    between atoms: C_12  and  C_13
REMARK    4  A    between atoms: N_15  and  C_16
REMARK    5  A    between atoms: C_16  and  N_18
REMARK    6  A    between atoms: N_18  and  C_19
REMARK    7  A    between atoms: C_20  and  C_27
REMARK                            x       y       z     vdW  Elec       q    Type
REMARK                         _______ _______ _______ _____ _____    ______ ____
ROOT
ATOM      1  C   UNL     1      -4.937   4.061   0.078  0.00  0.00    +0.141 C 
ATOM      2  S   UNL     1      -6.398   3.168   0.089  0.00  0.00    -0.018 S 
ENDROOT
BRANCH   1   5
ATOM      3  C   UNL     1      -3.720   2.069   0.053  0.00  0.00    +0.253 C 
ATOM      4  O   UNL     1      -4.758   1.436   0.061  0.00  0.00    -0.270 OA
ATOM      5  N   UNL     1      -3.754   3.417   0.061  0.00  0.00    -0.263 N 
ATOM      6  H   UNL     1      -2.926   3.922   0.055  0.00  0.00    +0.157 HD
BRANCH   3  16
ATOM      7  C   UNL     1      -2.395  -0.047   0.027  0.00  0.00    +0.133 A 
ATOM      8  C   UNL     1      -1.208  -0.718   0.011  0.00  0.00    +0.055 A 
ATOM      9  C   UNL     1       0.002  -0.004   0.002  0.00  0.00    -0.014 A 
ATOM     10  C   UNL     1       1.238  -0.674  -0.013  0.00  0.00    +0.008 A 
ATOM     11  C   UNL     1       2.394   0.043  -0.021  0.00  0.00    +0.001 A 
ATOM     12  C   UNL     1       2.376   1.436  -0.013  0.00  0.00    +0.001 A 
ATOM     13  C   UNL     1       1.200   2.121   0.002  0.00  0.00    +0.008 A 
ATOM     14  C   UNL     1      -0.017   1.415   0.010  0.00  0.00    -0.017 A 
ATOM     15  C   UNL     1      -1.245   2.091   0.031  0.00  0.00    +0.025 A 
ATOM     16  C   UNL     1      -2.425   1.364   0.035  0.00  0.00    +0.079 A 
BRANCH   7  18
ATOM     17  C   UNL     1      -3.463  -2.169   0.026  0.00  0.00    +0.277 C 
ATOM     18  O   UNL     1      -3.560  -0.743   0.035  0.00  0.00    -0.494 OA
ENDBRANCH   7  18
ENDBRANCH   3  16
ENDBRANCH   1   5
BRANCH   1  19
ATOM     19  N   UNL     1      -4.971   5.409   0.086  0.00  0.00    -0.291 N 
ATOM     20  H   UNL     1      -4.143   5.914   0.080  0.00  0.00    +0.154 HD
BRANCH  19  21
ATOM     21  C   UNL     1      -6.188   6.071   0.103  0.00  0.00    +0.084 A 
ATOM     22  C   UNL     1      -6.425   7.435   0.119  0.00  0.00    +0.068 A 
ATOM     23  C   UNL     1      -7.818   7.880   0.131  0.00  0.00    -0.023 A 
ATOM     24  C   UNL     1      -8.732   6.894   0.135  0.00  0.00    -0.004 A 
ATOM     25  S   UNL     1      -7.781   5.395   0.117  0.00  0.00    -0.077 S 
ATOM     26  C   UNL     1     -10.139   7.429   0.151  0.00  0.00    +0.043 C 
ATOM     27  C   UNL     1      -9.998   8.906  -0.280  0.00  0.00    +0.010 C 
ATOM     28  C   UNL     1      -8.552   9.222   0.149  0.00  0.00    +0.037 C 
BRANCH  22  29
ATOM     29  C   UNL     1      -5.319   8.398   0.119  0.00  0.00    +0.244 C 
ATOM     30  O   UNL     1      -4.870   8.809  -0.934  0.00  0.00    -0.270 OA
ATOM     31  N   UNL     1      -4.801   8.829   1.287  0.00  0.00    -0.325 N 
ATOM     32  H   UNL     1      -5.159   8.501   2.127  0.00  0.00    +0.145 HD
ATOM     33  H   UNL     1      -4.070   9.466   1.287  0.00  0.00    +0.145 HD
ENDBRANCH  22  29
ENDBRANCH  19  21
ENDBRANCH   1  19
TORSDOF 6
