REMARK  Name = ZINC20427051
REMARK  7 active torsions:
REMARK  status: ('A' for Active; 'I' for Inactive)
REMARK    1  A    between atoms: C_1  and  C_2
REMARK    2  A    between atoms: C_3  and  C_30
REMARK    3  A    between atoms: C_9  and  C_29
REMARK    4  A    between atoms: C_10  and  C_16
REMARK    5  A    between atoms: C_16  and  C_17
REMARK    6  A    between atoms: C_17  and  C_18
REMARK    7  A    between atoms: N_20  and  C_21
REMARK                            x       y       z     vdW  Elec       q    Type
REMARK                         _______ _______ _______ _____ _____    ______ ____
ROOT
ATOM      1  C   UNL     1      -0.091   0.922  -5.676  0.00  0.00    +0.048 C 
ATOM      2  C   UNL     1      -0.064  -0.465  -5.087  0.00  0.00    -0.002 A 
ATOM      3  C   UNL     1      -0.058  -1.623  -5.758  0.00  0.00    +0.106 A 
ATOM      4  O   UNL     1      -0.032  -2.659  -4.900  0.00  0.00    -0.460 OA
ATOM      5  C   UNL     1      -0.020  -2.227  -3.622  0.00  0.00    +0.139 A 
ATOM      6  C   UNL     1      -0.039  -0.818  -3.660  0.00  0.00    +0.024 A 
ATOM      7  C   UNL     1      -0.032  -0.081  -2.484  0.00  0.00    +0.023 A 
ATOM      8  C   UNL     1      -0.006  -0.750  -1.260  0.00  0.00    +0.022 A 
ATOM      9  C   UNL     1       0.002  -0.004   0.002  0.00  0.00    -0.030 A 
ATOM     10  C   UNL     1       0.023  -0.707   1.163  0.00  0.00    +0.041 A 
ATOM     11  C   UNL     1       0.041  -2.118   1.129  0.00  0.00    +0.341 A 
ATOM     12  O   UNL     1       0.059  -2.736   2.178  0.00  0.00    -0.245 OA
ATOM     13  O   UNL     1       0.039  -2.796  -0.029  0.00  0.00    -0.422 OA
ATOM     14  C   UNL     1       0.019  -2.160  -1.222  0.00  0.00    +0.143 A 
ATOM     15  C   UNL     1       0.017  -2.884  -2.401  0.00  0.00    +0.093 A 
ATOM     16  C   UNL     1      -0.018   1.503   0.010  0.00  0.00    +0.045 C 
ATOM     17  C   UNL     1      -0.077  -1.749  -7.259  0.00  0.00    +0.086 C 
ENDROOT
BRANCH  10  18
ATOM     18  C   UNL     1       0.026   0.017   2.485  0.00  0.00    +0.052 C 
BRANCH  18  19
ATOM     19  C   UNL     1      -1.415   0.243   2.946  0.00  0.00    +0.100 C 
BRANCH  19  20
ATOM     20  C   UNL     1      -1.411   0.967   4.268  0.00  0.00    +0.214 C 
ATOM     21  O   UNL     1      -0.359   1.272   4.790  0.00  0.00    -0.276 OA
ATOM     22  N   UNL     1      -2.576   1.275   4.871  0.00  0.00    -0.312 N 
ATOM     23  H   UNL     1      -3.530   0.999   4.398  0.00  0.00    +0.149 HD
BRANCH  22  24
ATOM     24  C   UNL     1      -2.573   1.979   6.155  0.00  0.00    +0.073 C 
ATOM     25  C   UNL     1      -2.423   0.965   7.292  0.00  0.00    +0.022 C 
ATOM     26  C   UNL     1      -2.023   1.694   8.576  0.00  0.00    +0.002 C 
ATOM     27  C   UNL     1      -0.934   2.722   8.262  0.00  0.00    +0.000 C 
ATOM     28  C   UNL     1      -1.490   4.133   8.468  0.00  0.00    +0.000 C 
ATOM     29  C   UNL     1      -2.400   4.498   7.294  0.00  0.00    +0.000 C 
ATOM     30  C   UNL     1      -3.740   3.775   7.441  0.00  0.00    +0.002 C 
ATOM     31  C   UNL     1      -3.889   2.741   6.323  0.00  0.00    +0.022 C 
ENDBRANCH  22  24
ENDBRANCH  19  20
ENDBRANCH  18  19
ENDBRANCH  10  18
TORSDOF 4
