REMARK  Name = ZINC39677110
REMARK  5 active torsions:
REMARK  status: ('A' for Active; 'I' for Inactive)
REMARK    1  A    between atoms: C_1  and  C_2
REMARK    2  A    between atoms: C_6  and  C_7
REMARK    3  A    between atoms: C_7  and  N_8
REMARK    4  A    between atoms: C_9  and  C_11
REMARK    5  A    between atoms: C_22  and  C_24
REMARK                            x       y       z     vdW  Elec       q    Type
REMARK                         _______ _______ _______ _____ _____    ______ ____
ROOT
ATOM      1  C   UNL     1      -3.009   0.578   4.777  0.00  0.00    +0.100 C 
ATOM      2  C   UNL     1      -3.716   1.721   4.015  0.00  0.00    +0.121 C 
ATOM      3  N   UNL     1      -4.573   2.375   5.031  0.00  0.00    -0.296 N 
ATOM      4  C   UNL     1      -3.747   2.380   6.262  0.00  0.00    +0.115 C 
ATOM      5  C   UNL     1      -3.030   1.015   6.252  0.00  0.00    -0.004 C 
ATOM      6  C   UNL     1      -1.607   1.163   6.780  0.00  0.00    -0.010 C 
ATOM      7  C   UNL     1      -1.654   1.541   8.263  0.00  0.00    -0.082 C 
ATOM      8  N   UNL     1      -2.369   0.501   9.012  0.00  0.00    +0.379 N 
ATOM      9  C   UNL     1      -3.764   0.429   8.561  0.00  0.00    -0.082 C 
ATOM     10  C   UNL     1      -3.807   0.004   7.091  0.00  0.00    -0.010 C 
ATOM     11  C   UNL     1      -5.822   2.857   4.873  0.00  0.00    +0.248 C 
ATOM     12  O   UNL     1      -6.409   2.691   3.821  0.00  0.00    -0.270 OA
ATOM     13  H   UNL     1      -1.922  -0.391   8.859  0.00  0.00    -0.086 HD
ATOM     14  H   UNL     1      -2.346   0.721   9.997  0.00  0.00    -0.086 HD
ENDROOT
BRANCH  11  15
ATOM     15  C   UNL     1      -6.478   3.587   5.977  0.00  0.00    +0.055 A 
ATOM     16  C   UNL     1      -5.724   4.405   6.822  0.00  0.00    +0.016 A 
ATOM     17  C   UNL     1      -6.342   5.083   7.850  0.00  0.00    +0.021 A 
ATOM     18  C   UNL     1      -7.708   4.955   8.048  0.00  0.00    +0.042 A 
ATOM     19  C   UNL     1      -8.461   4.146   7.216  0.00  0.00    +0.040 A 
ATOM     20  C   UNL     1      -7.855   3.466   6.177  0.00  0.00    +0.054 A 
ATOM     21 CL   UNL     1      -8.802   2.457   5.129  0.00  0.00    -0.083 Cl
ATOM     22 CL   UNL     1      -8.477   5.813   9.347  0.00  0.00    -0.083 Cl
ENDBRANCH  11  15
BRANCH   1  24
ATOM     23  N   UNL     1      -0.928  -0.731   4.500  0.00  0.00    -0.310 N 
ATOM     24  C   UNL     1      -1.589   0.426   4.296  0.00  0.00    +0.218 C 
ATOM     25  O   UNL     1      -1.041   1.345   3.725  0.00  0.00    -0.275 OA
ATOM     26  H   UNL     1      -1.367  -1.465   4.957  0.00  0.00    +0.149 HD
BRANCH  23  27
ATOM     27  C   UNL     1       0.452  -0.878   4.032  0.00  0.00    +0.147 C 
BRANCH  27  33
ATOM     28  C   UNL     1       0.241  -3.405   2.297  0.00  0.00    +0.044 C 
ATOM     29  C   UNL     1       0.890  -3.398   3.657  0.00  0.00    -0.039 A 
ATOM     30  C   UNL     1       1.432  -4.557   4.181  0.00  0.00    +0.011 A 
ATOM     31  C   UNL     1       2.009  -4.516   5.407  0.00  0.00    +0.046 A 
ATOM     32  S   UNL     1       1.795  -2.803   5.859  0.00  0.00    -0.100 S 
ATOM     33  C   UNL     1       0.957  -2.255   4.382  0.00  0.00    +0.010 A 
ENDBRANCH  27  33
ENDBRANCH  23  27
ENDBRANCH   1  24
TORSDOF 4
