REMARK  Name = ZINC33088179
REMARK  4 active torsions:
REMARK  status: ('A' for Active; 'I' for Inactive)
REMARK    1  A    between atoms: C_1  and  O_2
REMARK    2  A    between atoms: O_2  and  C_3
REMARK    3  A    between atoms: C_17  and  C_23
REMARK    4  A    between atoms: C_26  and  O_29
REMARK                            x       y       z     vdW  Elec       q    Type
REMARK                         _______ _______ _______ _____ _____    ______ ____
ROOT
ATOM      1  C   UNL     1       1.183   2.066   0.002  0.00  0.00    +0.121 A 
ATOM      2  C   UNL     1       2.380   1.357  -0.013  0.00  0.00    +0.048 A 
ATOM      3  C   UNL     1       2.404  -0.003  -0.021  0.00  0.00    +0.032 A 
ATOM      4  C   UNL     1       1.203  -0.750  -0.013  0.00  0.00    +0.081 A 
ATOM      5  C   UNL     1       0.002  -0.004   0.002  0.00  0.00    +0.044 A 
ATOM      6  C   UNL     1      -0.017   1.369   0.010  0.00  0.00    +0.063 A 
ATOM      7  S   UNL     1      -1.235  -1.279   0.007  0.00  0.00    -0.048 S 
ATOM      8  C   UNL     1      -0.119  -2.675  -0.011  0.00  0.00    +0.196 A 
ATOM      9  N   UNL     1       1.056  -2.093  -0.019  0.00  0.00    -0.221 NA
ATOM     10  N   UNL     1      -0.420  -4.032  -0.016  0.00  0.00    -0.194 N 
ATOM     11  C   UNL     1       0.471  -5.047  -0.030  0.00  0.00    +0.134 A 
ATOM     12  C   UNL     1      -0.237  -6.219  -0.032  0.00  0.00    +0.020 A 
ATOM     13  C   UNL     1      -1.588  -5.904  -0.017  0.00  0.00    +0.141 A 
ATOM     14  N   UNL     1      -1.706  -4.596  -0.002  0.00  0.00    -0.171 NA
ATOM     15  C   UNL     1       0.439  -7.566  -0.050  0.00  0.00    +0.063 C 
ATOM     16  C   UNL     1       1.785  -7.421  -0.765  0.00  0.00    +0.109 C 
ATOM     17  C   UNL     1       2.511  -6.182  -0.323  0.00  0.00    +0.219 C 
ATOM     18  O   UNL     1       3.719  -6.218  -0.218  0.00  0.00    -0.275 OA
ATOM     19  N   UNL     1       1.865  -5.031  -0.038  0.00  0.00    -0.270 N 
ATOM     20  H   UNL     1       2.405  -4.099   0.183  0.00  0.00    +0.156 HD
ENDROOT
BRANCH  15  21
ATOM     21  C   UNL     1       0.662  -8.040   1.363  0.00  0.00    -0.039 A 
ATOM     22  C   UNL     1       1.425  -7.282   2.233  0.00  0.00    +0.008 A 
ATOM     23  C   UNL     1       1.627  -7.712   3.530  0.00  0.00    +0.045 A 
ATOM     24  C   UNL     1       1.073  -8.911   3.957  0.00  0.00    +0.117 A 
ATOM     25  C   UNL     1       0.314  -9.672   3.080  0.00  0.00    +0.045 A 
ATOM     26  C   UNL     1       0.110  -9.235   1.786  0.00  0.00    +0.008 A 
BRANCH  24  27
ATOM     27  O   UNL     1       1.275  -9.338   5.231  0.00  0.00    -0.507 OA
ATOM     28  H   UNL     1       0.836 -10.289   5.568  0.00  0.00    +0.292 HD
ENDBRANCH  24  27
ENDBRANCH  15  21
BRANCH   1  30
ATOM     29  C   UNL     1       2.464   4.069   0.000  0.00  0.00    +0.277 C 
ATOM     30  O   UNL     1       1.188   3.426   0.009  0.00  0.00    -0.495 OA
ENDBRANCH   1  30
TORSDOF 3
