REMARK  Name = ZINC09246571
REMARK  7 active torsions:
REMARK  status: ('A' for Active; 'I' for Inactive)
REMARK    1  A    between atoms: C_1  and  C_2
REMARK    2  A    between atoms: C_6  and  C_24
REMARK    3  A    between atoms: C_16  and  C_17
REMARK    4  A    between atoms: C_24  and  O_26
REMARK    5  A    between atoms: O_26  and  C_27
REMARK    6  A    between atoms: C_27  and  C_29
REMARK    7  A    between atoms: C_27  and  C_30
REMARK                            x       y       z     vdW  Elec       q    Type
REMARK                         _______ _______ _______ _____ _____    ______ ____
ROOT
ATOM      1  C   UNL     1      -1.605   1.254   4.740  0.00  0.00    +0.008 C 
ATOM      2  C   UNL     1      -2.274   1.723   3.446  0.00  0.00    -0.005 C 
ATOM      3  C   UNL     1      -1.204   2.031   2.401  0.00  0.00    +0.041 C 
ATOM      4  C   UNL     1      -1.810   2.623   1.159  0.00  0.00    -0.007 A 
ATOM      5  C   UNL     1      -1.108   2.532  -0.037  0.00  0.00    +0.073 A 
ATOM      6  C   UNL     1      -1.712   3.133  -1.226  0.00  0.00    +0.015 A 
ATOM      7  C   UNL     1      -1.079   3.086  -2.472  0.00  0.00    +0.011 A 
ATOM      8  C   UNL     1      -1.680   3.656  -3.555  0.00  0.00    +0.001 A 
ATOM      9  C   UNL     1      -2.920   4.281  -3.437  0.00  0.00    +0.002 A 
ATOM     10  C   UNL     1      -3.566   4.340  -2.240  0.00  0.00    +0.028 A 
ATOM     11  C   UNL     1      -2.977   3.761  -1.100  0.00  0.00    +0.072 A 
ATOM     12  N   UNL     1      -3.585   3.801   0.084  0.00  0.00    -0.247 NA
ATOM     13  C   UNL     1      -3.059   3.268   1.174  0.00  0.00    +0.072 A 
ATOM     14  C   UNL     1      -3.817   3.352   2.443  0.00  0.00    -0.021 C 
ATOM     15  C   UNL     1      -5.105   3.737   2.458  0.00  0.00    +0.013 C 
ATOM     16  C   UNL     1      -3.093   2.990   3.722  0.00  0.00    +0.041 C 
ENDROOT
BRANCH  15  17
ATOM     17  C   UNL     1      -5.786   3.978   3.742  0.00  0.00    -0.025 A 
ATOM     18  C   UNL     1      -7.152   3.710   3.873  0.00  0.00    +0.008 A 
ATOM     19  C   UNL     1      -7.782   3.933   5.080  0.00  0.00    +0.001 A 
ATOM     20  C   UNL     1      -7.068   4.431   6.156  0.00  0.00    +0.000 A 
ATOM     21  C   UNL     1      -5.717   4.704   6.032  0.00  0.00    +0.001 A 
ATOM     22  C   UNL     1      -5.072   4.481   4.833  0.00  0.00    +0.008 A 
ENDBRANCH  15  17
BRANCH   5  23
ATOM     23  C   UNL     1       0.205   1.857  -0.103  0.00  0.00    +0.341 C 
ATOM     24  O   UNL     1       0.266   0.668  -0.343  0.00  0.00    -0.245 OA
BRANCH  23  25
ATOM     25  O   UNL     1       1.336   2.562   0.096  0.00  0.00    -0.449 OA
BRANCH  25  26
ATOM     26  C   UNL     1       2.590   1.835   0.009  0.00  0.00    +0.259 C 
ATOM     27  C   UNL     1       3.100   1.867  -1.433  0.00  0.00    +0.062 C 
BRANCH  26  28
ATOM     28  C   UNL     1       3.607   2.478   0.916  0.00  0.00    +0.261 C 
ATOM     29  O   UNL     1       3.305   3.453   1.571  0.00  0.00    -0.271 OA
ATOM     30  N   UNL     1       4.853   1.970   1.000  0.00  0.00    -0.237 N 
ATOM     31  C   UNL     1       5.762   2.545   1.811  0.00  0.00    +0.303 C 
ATOM     32  O   UNL     1       5.460   3.522   2.467  0.00  0.00    -0.253 OA
ATOM     33  N   UNL     1       7.008   2.037   1.894  0.00  0.00    -0.313 N 
ATOM     34  H   UNL     1       5.094   1.190   0.476  0.00  0.00    +0.159 HD
ATOM     35  H   UNL     1       7.250   1.257   1.370  0.00  0.00    +0.146 HD
ATOM     36  H   UNL     1       7.662   2.451   2.478  0.00  0.00    +0.146 HD
ENDBRANCH  26  28
ENDBRANCH  25  26
ENDBRANCH  23  25
ENDBRANCH   5  23
TORSDOF 5
