REMARK  Name = ZINC27496681
REMARK  3 active torsions:
REMARK  status: ('A' for Active; 'I' for Inactive)
REMARK    1  A    between atoms: C_12  and  C_25
REMARK    2  A    between atoms: N_14  and  N_15
REMARK    3  A    between atoms: C_16  and  C_18
REMARK                            x       y       z     vdW  Elec       q    Type
REMARK                         _______ _______ _______ _____ _____    ______ ____
ROOT
ATOM      1  C   UNL     1       2.083   1.877  -0.260  0.00  0.00    +0.001 A 
ATOM      2  C   UNL     1       0.821   2.386  -0.554  0.00  0.00    +0.001 A 
ATOM      3  C   UNL     1      -0.284   1.586  -0.514  0.00  0.00    +0.009 A 
ATOM      4  C   UNL     1      -0.148   0.236  -0.174  0.00  0.00    -0.007 A 
ATOM      5  C   UNL     1       1.134  -0.286   0.123  0.00  0.00    -0.017 A 
ATOM      6  C   UNL     1       2.249   0.566   0.074  0.00  0.00    +0.008 A 
ATOM      7  C   UNL     1       1.268  -1.646   0.459  0.00  0.00    +0.012 A 
ATOM      8  C   UNL     1       0.188  -2.469   0.495  0.00  0.00    +0.047 A 
ATOM      9  C   UNL     1      -1.098  -2.006   0.209  0.00  0.00    +0.138 A 
ATOM     10  C   UNL     1      -1.304  -0.659  -0.113  0.00  0.00    +0.026 A 
ATOM     11  C   UNL     1      -2.607  -0.179  -0.378  0.00  0.00    +0.030 A 
ATOM     12  C   UNL     1      -3.682  -1.014  -0.110  0.00  0.00    +0.098 A 
ATOM     13  C   UNL     1      -3.377  -2.341   0.468  0.00  0.00    +0.224 A 
ATOM     14  N   UNL     1      -4.255  -2.984   1.192  0.00  0.00    -0.273 N 
ATOM     15  O   UNL     1      -2.146  -2.869   0.218  0.00  0.00    -0.437 OA
ATOM     16  H   UNL     1      -4.069  -4.028   1.484  0.00  0.00    +0.188 HD
ENDROOT
BRANCH  12  17
ATOM     17  C   UNL     1      -5.065  -0.598  -0.390  0.00  0.00    +0.247 C 
ATOM     18  O   UNL     1      -5.398   0.560  -0.222  0.00  0.00    -0.270 OA
ATOM     19  N   UNL     1      -5.964  -1.500  -0.832  0.00  0.00    -0.325 N 
ATOM     20  H   UNL     1      -6.998  -1.190  -1.041  0.00  0.00    +0.145 HD
ATOM     21  H   UNL     1      -5.663  -2.547  -0.983  0.00  0.00    +0.145 HD
ENDBRANCH  12  17
BRANCH  14  22
ATOM     22  N   UNL     1      -5.433  -2.342   1.597  0.00  0.00    -0.223 N 
ATOM     23  C   UNL     1      -6.392  -3.038   2.240  0.00  0.00    +0.262 C 
ATOM     24  O   UNL     1      -6.234  -4.222   2.469  0.00  0.00    -0.269 OA
ATOM     25  H   UNL     1      -5.575  -1.271   1.391  0.00  0.00    +0.175 HD
BRANCH  23  26
ATOM     26  C   UNL     1      -7.636  -2.360   2.668  0.00  0.00    +0.041 A 
ATOM     27  C   UNL     1      -7.835  -0.997   2.421  0.00  0.00    +0.033 A 
ATOM     28  C   UNL     1      -9.013  -0.407   2.833  0.00  0.00    +0.111 A 
ATOM     29  N   UNL     1      -9.938  -1.106   3.460  0.00  0.00    -0.263 NA
ATOM     30  C   UNL     1      -9.789  -2.390   3.718  0.00  0.00    +0.111 A 
ATOM     31  C   UNL     1      -8.644  -3.062   3.337  0.00  0.00    +0.033 A 
ENDBRANCH  23  26
ENDBRANCH  14  22
TORSDOF 3
