REMARK  Name = ZINC67200386
REMARK  9 active torsions:
REMARK  status: ('A' for Active; 'I' for Inactive)
REMARK    1  A    between atoms: C_1  and  C_2
REMARK    2  A    between atoms: C_2  and  O_3
REMARK    3  A    between atoms: O_3  and  C_4
REMARK    4  A    between atoms: N_6  and  C_7
REMARK    5  A    between atoms: C_14  and  C_16
REMARK    6  A    between atoms: C_16  and  C_17
REMARK    7  A    between atoms: C_17  and  C_18
REMARK    8  A    between atoms: C_18  and  C_19
REMARK    9  A    between atoms: C_19  and  C_20
REMARK                            x       y       z     vdW  Elec       q    Type
REMARK                         _______ _______ _______ _____ _____    ______ ____
ROOT
ATOM      1  C   UNL     1       1.509  -3.748  -2.597  0.00  0.00    +0.093 C 
ATOM      2  C   UNL     1       2.740  -4.258  -1.844  0.00  0.00    +0.025 C 
ATOM      3  C   UNL     1       2.842  -5.778  -1.999  0.00  0.00    +0.021 C 
ATOM      4  C   UNL     1       3.003  -6.126  -3.482  0.00  0.00    +0.108 C 
ATOM      5  N   UNL     1       1.899  -5.515  -4.235  0.00  0.00    -0.300 N 
ATOM      6  C   UNL     1       1.655  -4.074  -4.087  0.00  0.00    +0.130 C 
ATOM      7  C   UNL     1       1.124  -6.263  -5.045  0.00  0.00    +0.216 C 
ATOM      8  O   UNL     1       0.215  -5.747  -5.661  0.00  0.00    -0.276 OA
ENDROOT
BRANCH   1  11
ATOM      9  C   UNL     1       0.776  -1.798  -1.335  0.00  0.00    +0.401 C 
ATOM     10  O   UNL     1       0.312  -2.549  -0.500  0.00  0.00    -0.226 OA
ATOM     11  N   UNL     1       1.395  -2.298  -2.422  0.00  0.00    -0.277 N 
ATOM     12  H   UNL     1       1.765  -1.699  -3.088  0.00  0.00    +0.152 HD
BRANCH   9  13
ATOM     13  O   UNL     1       0.671  -0.465  -1.174  0.00  0.00    -0.451 OA
BRANCH  13  15
ATOM     14  C   UNL     1      -0.019   1.526   0.010  0.00  0.00    +0.048 C 
ATOM     15  C   UNL     1       0.002  -0.004   0.002  0.00  0.00    +0.230 C 
ENDBRANCH  13  15
ENDBRANCH   9  13
ENDBRANCH   1  11
BRANCH   7  16
ATOM     16  C   UNL     1       1.386  -7.740  -5.186  0.00  0.00    +0.096 C 
BRANCH  16  17
ATOM     17  C   UNL     1       0.372  -8.347  -6.158  0.00  0.00    +0.009 C 
BRANCH  17  18
ATOM     18  C   UNL     1       0.639  -9.847  -6.301  0.00  0.00    +0.002 C 
BRANCH  18  19
ATOM     19  C   UNL     1      -0.375 -10.455  -7.273  0.00  0.00    +0.016 C 
BRANCH  19  20
ATOM     20  C   UNL     1      -0.109 -11.954  -7.416  0.00  0.00    +0.069 C 
ATOM     21  C   UNL     1      -1.109 -12.599  -8.342  0.00  0.00    +0.108 C 
ATOM     22  C   UNL     1      -0.646 -12.366  -9.813  0.00  0.00    +0.105 C 
ATOM     23  C   UNL     1       0.741 -12.997  -9.907  0.00  0.00    +0.093 C 
ATOM     24  S   UNL     1       1.466 -12.269  -8.340  0.00  0.00    -0.154 S 
ATOM     25  N   UNL     1      -1.781 -12.932 -10.507  0.00  0.00    -0.294 N 
ATOM     26  C   UNL     1      -2.861 -12.677  -9.708  0.00  0.00    +0.300 C 
ATOM     27  O   UNL     1      -4.013 -12.785 -10.079  0.00  0.00    -0.253 OA
ATOM     28  N   UNL     1      -2.499 -12.274  -8.460  0.00  0.00    -0.294 N 
ATOM     29  H   UNL     1      -1.777 -13.395 -11.359  0.00  0.00    +0.151 HD
ATOM     30  H   UNL     1      -3.068 -11.860  -7.791  0.00  0.00    +0.151 HD
ENDBRANCH  19  20
ENDBRANCH  18  19
ENDBRANCH  17  18
ENDBRANCH  16  17
ENDBRANCH   7  16
TORSDOF 8
