REMARK  Name = ZINC39523342
REMARK  5 active torsions:
REMARK  status: ('A' for Active; 'I' for Inactive)
REMARK    1  A    between atoms: C_1  and  C_2
REMARK    2  A    between atoms: C_2  and  O_3
REMARK    3  A    between atoms: O_3  and  C_4
REMARK    4  A    between atoms: N_10  and  O_11
REMARK    5  A    between atoms: C_15  and  O_18
REMARK                            x       y       z     vdW  Elec       q    Type
REMARK                         _______ _______ _______ _____ _____    ______ ____
ROOT
ATOM      1  C   UNL     1      -1.355  -1.928   0.089  0.00  0.00    +0.213 C 
ATOM      2  C   UNL     1      -2.738  -2.444  -0.313  0.00  0.00    +0.050 C 
ATOM      3  C   UNL     1      -2.760  -3.971  -0.205  0.00  0.00    +0.006 C 
ATOM      4  C   UNL     1      -2.400  -4.378   1.227  0.00  0.00    +0.025 C 
ATOM      5  C   UNL     1      -1.026  -3.807   1.585  0.00  0.00    +0.052 C 
ATOM      6  N   UNL     1      -1.057  -2.344   1.466  0.00  0.00    -0.156 NA
ATOM      7  C   UNL     1       0.027  -4.375   0.631  0.00  0.00    +0.025 C 
ATOM      8  C   UNL     1       1.401  -3.809   0.991  0.00  0.00    +0.004 C 
ATOM      9  C   UNL     1       1.753  -4.198   2.429  0.00  0.00    +0.031 C 
ATOM     10  C   UNL     1       0.701  -3.628   3.382  0.00  0.00    +0.116 C 
ATOM     11  C   UNL     1      -0.674  -4.195   3.023  0.00  0.00    +0.056 C 
ENDROOT
BRANCH   6  12
ATOM     12  O   UNL     1       0.198  -1.753   1.932  0.00  0.00    -0.309 OA
ATOM     13  H   UNL     1       0.194  -0.786   1.951  0.00  0.00    +0.237 HD
ENDBRANCH   6  12
BRANCH  10  14
ATOM     14  O   UNL     1       1.029  -3.990   4.725  0.00  0.00    -0.392 OA
ATOM     15  H   UNL     1       1.890  -3.663   5.021  0.00  0.00    +0.210 HD
ENDBRANCH  10  14
BRANCH   1  16
ATOM     16  O   UNL     1      -1.335  -0.502   0.007  0.00  0.00    -0.360 OA
BRANCH  16  18
ATOM     17  C   UNL     1      -2.146   1.655   0.736  0.00  0.00    +0.034 C 
ATOM     18  C   UNL     1      -2.344   0.139   0.791  0.00  0.00    +0.158 C 
ENDBRANCH  16  18
ENDBRANCH   1  16
TORSDOF 4
