REMARK  Name = ZINC35231462
REMARK  6 active torsions:
REMARK  status: ('A' for Active; 'I' for Inactive)
REMARK    1  A    between atoms: C_1  and  C_2
REMARK    2  A    between atoms: C_2  and  C_4
REMARK    3  A    between atoms: C_2  and  N_11
REMARK    4  A    between atoms: N_11  and  C_12
REMARK    5  A    between atoms: C_12  and  C_13
REMARK    6  A    between atoms: C_16  and  N_19
REMARK                            x       y       z     vdW  Elec       q    Type
REMARK                         _______ _______ _______ _____ _____    ______ ____
ROOT
ATOM      1  N   UNL     1       0.713  -0.491   1.192  0.00  0.00    +0.386 N 
ATOM      2  H   UNL     1       0.290  -0.099   2.020  0.00  0.00    -0.085 HD
ATOM      3  H   UNL     1       0.655  -1.497   1.230  0.00  0.00    -0.085 HD
ENDROOT
BRANCH   1   5
ATOM      4  C   UNL     1      -0.019   1.526   0.010  0.00  0.00    -0.009 C 
ATOM      5  C   UNL     1       0.002  -0.004   0.002  0.00  0.00    -0.044 C 
BRANCH   5   6
ATOM      6  C   UNL     1      -1.412  -0.526   0.013  0.00  0.00    -0.061 A 
ATOM      7  C   UNL     1      -2.123  -0.571   1.198  0.00  0.00    +0.002 A 
ATOM      8  C   UNL     1      -3.420  -1.049   1.208  0.00  0.00    +0.001 A 
ATOM      9  C   UNL     1      -4.006  -1.483   0.034  0.00  0.00    +0.015 A 
ATOM     10  C   UNL     1      -3.295  -1.437  -1.152  0.00  0.00    +0.018 A 
ATOM     11  C   UNL     1      -1.999  -0.954  -1.163  0.00  0.00    +0.017 A 
ATOM     12 BR   UNL     1      -4.097  -2.031  -2.759  0.00  0.00    -0.050 Br
ENDBRANCH   5   6
ENDBRANCH   1   5
BRANCH   1  13
ATOM     13  C   UNL     1       2.122  -0.083   1.122  0.00  0.00    -0.046 C 
BRANCH  13  14
ATOM     14  C   UNL     1       2.851  -0.582   2.343  0.00  0.00    -0.064 A 
ATOM     15  C   UNL     1       2.915   0.203   3.479  0.00  0.00    +0.004 A 
ATOM     16  C   UNL     1       3.583  -0.255   4.599  0.00  0.00    +0.033 A 
ATOM     17  C   UNL     1       4.188  -1.498   4.583  0.00  0.00    +0.126 A 
ATOM     18  C   UNL     1       4.123  -2.283   3.447  0.00  0.00    +0.033 A 
ATOM     19  C   UNL     1       3.451  -1.827   2.329  0.00  0.00    +0.004 A 
BRANCH  17  20
ATOM     20  N   UNL     1       4.904  -1.988   5.782  0.00  0.00    +0.056 N 
ATOM     21  O   UNL     1       4.961  -1.301   6.775  0.00  0.00    -0.126 OA
ATOM     22  O   UNL     1       5.433  -3.075   5.768  0.00  0.00    -0.126 OA
ENDBRANCH  17  20
ENDBRANCH  13  14
ENDBRANCH   1  13
TORSDOF 5
