REMARK  Name = ZINC39660667
REMARK  6 active torsions:
REMARK  status: ('A' for Active; 'I' for Inactive)
REMARK    1  A    between atoms: C_1  and  C_2
REMARK    2  A    between atoms: C_2  and  C_4
REMARK    3  A    between atoms: C_2  and  O_27
REMARK    4  A    between atoms: C_8  and  C_17
REMARK    5  A    between atoms: N_19  and  C_20
REMARK    6  A    between atoms: O_27  and  C_28
REMARK                            x       y       z     vdW  Elec       q    Type
REMARK                         _______ _______ _______ _____ _____    ______ ____
ROOT
ATOM      1  C   UNL     1       0.738  -0.455  -0.982  0.00  0.00    +0.256 C 
ATOM      2  O   UNL     1       1.863  -0.868  -0.801  0.00  0.00    -0.272 OA
ATOM      3  N   UNL     1       0.207  -0.465  -2.221  0.00  0.00    -0.297 N 
ATOM      4  C   UNL     1      -1.166  -0.079  -2.624  0.00  0.00    +0.121 C 
ATOM      5  C   UNL     1      -0.983   0.670  -3.964  0.00  0.00    +0.100 C 
ATOM      6  C   UNL     1       0.350   0.148  -4.526  0.00  0.00    -0.004 C 
ATOM      7  C   UNL     1       0.867  -0.860  -3.489  0.00  0.00    +0.115 C 
ATOM      8  C   UNL     1       1.345   1.295  -4.679  0.00  0.00    -0.010 C 
ATOM      9  C   UNL     1       2.642   0.761  -5.293  0.00  0.00    -0.082 C 
ATOM     10  N   UNL     1       2.355   0.158  -6.600  0.00  0.00    +0.379 N 
ATOM     11  C   UNL     1       1.471  -1.002  -6.433  0.00  0.00    -0.082 C 
ATOM     12  C   UNL     1       0.124  -0.543  -5.867  0.00  0.00    -0.010 C 
ATOM     13  H   UNL     1       1.905   0.840  -7.192  0.00  0.00    -0.086 HD
ATOM     14  H   UNL     1       3.219  -0.139  -7.029  0.00  0.00    -0.086 HD
ENDROOT
BRANCH   5  15
ATOM     15  C   UNL     1      -2.114   0.346  -4.905  0.00  0.00    +0.219 C 
ATOM     16  O   UNL     1      -2.657  -0.737  -4.851  0.00  0.00    -0.275 OA
ATOM     17  N   UNL     1      -2.524   1.261  -5.806  0.00  0.00    -0.302 N 
ATOM     18  H   UNL     1      -2.091   2.128  -5.848  0.00  0.00    +0.150 HD
BRANCH  17  19
ATOM     19  C   UNL     1      -3.624   0.947  -6.720  0.00  0.00    +0.185 C 
ATOM     20  C   UNL     1      -3.550   1.837  -7.987  0.00  0.00    +0.075 C 
ATOM     21  C   UNL     1      -5.048   2.201  -8.172  0.00  0.00    +0.234 C 
ATOM     22  O   UNL     1      -5.521   2.302  -6.812  0.00  0.00    -0.463 OA
ATOM     23  C   UNL     1      -4.957   1.307  -6.093  0.00  0.00    +0.328 C 
ATOM     24  O   UNL     1      -5.434   0.789  -5.111  0.00  0.00    -0.249 OA
ENDBRANCH  17  19
ENDBRANCH   5  15
BRANCH   1  26
ATOM     25  C   UNL     1      -0.264   1.579   0.022  0.00  0.00    +0.062 C 
ATOM     26  C   UNL     1      -0.068   0.070   0.178  0.00  0.00    +0.256 C 
BRANCH  26  27
ATOM     27  O   UNL     1       0.625  -0.197   1.399  0.00  0.00    -0.480 OA
BRANCH  27  28
ATOM     28  C   UNL     1      -0.125  -0.285   2.528  0.00  0.00    +0.122 A 
ATOM     29  C   UNL     1      -1.486  -0.020   2.481  0.00  0.00    +0.045 A 
ATOM     30  C   UNL     1      -2.247  -0.111   3.630  0.00  0.00    +0.004 A 
ATOM     31  C   UNL     1      -1.654  -0.465   4.827  0.00  0.00    +0.000 A 
ATOM     32  C   UNL     1      -0.297  -0.729   4.878  0.00  0.00    +0.004 A 
ATOM     33  C   UNL     1       0.467  -0.646   3.730  0.00  0.00    +0.045 A 
ENDBRANCH  27  28
ENDBRANCH  26  27
ENDBRANCH   1  26
TORSDOF 5
