REMARK  Name = ZINC63271877
REMARK  8 active torsions:
REMARK  status: ('A' for Active; 'I' for Inactive)
REMARK    1  A    between atoms: C_1  and  C_2
REMARK    2  A    between atoms: C_2  and  C_4
REMARK    3  A    between atoms: C_2  and  N_14
REMARK    4  A    between atoms: C_4  and  C_5
REMARK    5  A    between atoms: C_15  and  C_17
REMARK    6  A    between atoms: C_17  and  C_18
REMARK    7  A    between atoms: C_18  and  N_19
REMARK    8  A    between atoms: N_19  and  C_20
REMARK                            x       y       z     vdW  Elec       q    Type
REMARK                         _______ _______ _______ _____ _____    ______ ____
ROOT
ATOM      1  N   UNL     1       0.711  -0.489   1.189  0.00  0.00    -0.312 N 
ATOM      2  C   UNL     1       2.054  -0.600   1.174  0.00  0.00    +0.215 C 
ATOM      3  O   UNL     1       2.676  -0.297   0.177  0.00  0.00    -0.276 OA
ATOM      4  H   UNL     1       0.213  -0.731   1.986  0.00  0.00    +0.149 HD
ENDROOT
BRANCH   1   6
ATOM      5  C   UNL     1      -0.019   1.526   0.010  0.00  0.00    +0.028 C 
ATOM      6  C   UNL     1       0.002  -0.004   0.002  0.00  0.00    +0.074 C 
BRANCH   6   7
ATOM      7  C   UNL     1      -1.433  -0.534   0.013  0.00  0.00    +0.055 C 
BRANCH   7   8
ATOM      8  C   UNL     1      -1.416  -2.035  -0.119  0.00  0.00    -0.040 C 
ATOM      9  C   UNL     1      -1.463  -2.940   0.885  0.00  0.00    -0.001 A 
ATOM     10  C   UNL     1      -1.541  -2.803   2.344  0.00  0.00    +0.010 A 
ATOM     11  C   UNL     1      -1.574  -3.920   3.107  0.00  0.00    +0.001 A 
ATOM     12  C   UNL     1      -1.535  -5.201   2.540  0.00  0.00    +0.002 A 
ATOM     13  C   UNL     1      -1.463  -5.407   1.208  0.00  0.00    +0.026 A 
ATOM     14  C   UNL     1      -1.424  -4.304   0.311  0.00  0.00    +0.043 A 
ATOM     15  N   UNL     1      -1.355  -4.244  -0.997  0.00  0.00    -0.380 N 
ATOM     16  C   UNL     1      -1.349  -2.834  -1.401  0.00  0.00    +0.144 C 
ATOM     17  H   UNL     1      -1.318  -5.005  -1.597  0.00  0.00    +0.160 HD
ENDBRANCH   7   8
ENDBRANCH   6   7
ENDBRANCH   1   6
BRANCH   2  18
ATOM     18  C   UNL     1       2.783  -1.099   2.395  0.00  0.00    +0.114 C 
BRANCH  18  19
ATOM     19  C   UNL     1       4.287  -1.129   2.114  0.00  0.00    +0.112 C 
BRANCH  19  20
ATOM     20  N   UNL     1       4.995  -1.614   3.301  0.00  0.00    -0.327 N 
ATOM     21  H   UNL     1       4.497  -1.856   4.098  0.00  0.00    +0.148 HD
BRANCH  20  22
ATOM     22  C   UNL     1       6.374  -1.727   3.285  0.00  0.00    +0.151 A 
ATOM     23  C   UNL     1       7.070  -2.191   4.415  0.00  0.00    +0.147 A 
ATOM     24  N   UNL     1       6.708  -2.602   5.654  0.00  0.00    -0.231 NA
ATOM     25  C   UNL     1       7.771  -2.934   6.328  0.00  0.00    +0.198 A 
ATOM     26  N   UNL     1       8.883  -2.756   5.560  0.00  0.00    -0.329 N 
ATOM     27  C   UNL     1       8.470  -2.285   4.340  0.00  0.00    +0.164 A 
ATOM     28  N   UNL     1       9.082  -1.935   3.213  0.00  0.00    -0.198 NA
ATOM     29  C   UNL     1       8.388  -1.506   2.178  0.00  0.00    +0.226 A 
ATOM     30  N   UNL     1       7.070  -1.405   2.200  0.00  0.00    -0.200 NA
ATOM     31  H   UNL     1       9.799  -2.930   5.828  0.00  0.00    +0.168 HD
ATOM     32 CL   UNL     1       9.236  -1.061   0.730  0.00  0.00    -0.041 Cl
ENDBRANCH  20  22
ENDBRANCH  19  20
ENDBRANCH  18  19
ENDBRANCH   2  18
TORSDOF 7
