REMARK  Name = ZINC14476217
REMARK  4 active torsions:
REMARK  status: ('A' for Active; 'I' for Inactive)
REMARK    1  A    between atoms: C_6  and  C_7
REMARK    2  A    between atoms: C_23  and  C_26
REMARK    3  A    between atoms: C_28  and  N_33
REMARK    4  A    between atoms: C_31  and  O_32
REMARK                            x       y       z     vdW  Elec       q    Type
REMARK                         _______ _______ _______ _____ _____    ______ ____
ROOT
ATOM      1  C   UNL     1       1.404   5.706   0.773  0.00  0.00    +0.015 A 
ATOM      2  C   UNL     1       1.456   6.495   1.899  0.00  0.00    +0.024 A 
ATOM      3  C   UNL     1       2.531   7.359   2.099  0.00  0.00    +0.031 A 
ATOM      4  C   UNL     1       3.562   7.433   1.175  0.00  0.00    -0.019 A 
ATOM      5  C   UNL     1       3.516   6.634   0.046  0.00  0.00    +0.019 A 
ATOM      6  C   UNL     1       2.443   5.766  -0.161  0.00  0.00    +0.037 A 
ATOM      7  C   UNL     1       4.742   8.354   1.338  0.00  0.00    +0.049 C 
ATOM      8  C   UNL     1       4.758   9.291   0.137  0.00  0.00    -0.023 C 
ATOM      9  C   UNL     1       4.173  10.425   0.434  0.00  0.00    -0.030 C 
ATOM     10  C   UNL     1       3.687  10.411   1.873  0.00  0.00    +0.033 C 
ATOM     11  C   UNL     1       4.570   9.320   2.525  0.00  0.00    +0.029 C 
ATOM     12  C   UNL     1       3.855   8.667   3.693  0.00  0.00    +0.108 C 
ATOM     13  N   UNL     1       2.557   8.149   3.247  0.00  0.00    -0.336 N 
ATOM     14  H   UNL     1       1.645   8.387   3.815  0.00  0.00    +0.147 HD
ENDROOT
BRANCH   6  15
ATOM     15  C   UNL     1       2.401   4.918  -1.367  0.00  0.00    +0.247 C 
ATOM     16  O   UNL     1       3.436   4.582  -1.909  0.00  0.00    -0.270 OA
ATOM     17  N   UNL     1       1.216   4.516  -1.867  0.00  0.00    -0.298 N 
ATOM     18  C   UNL     1       1.195   3.834  -3.176  0.00  0.00    +0.108 C 
ATOM     19  C   UNL     1       0.237   2.630  -3.187  0.00  0.00    +0.019 C 
ATOM     20  C   UNL     1       0.344   1.869  -1.889  0.00  0.00    +0.002 C 
ATOM     21  C   UNL     1      -0.690   2.404  -0.902  0.00  0.00    +0.002 C 
ATOM     22  C   UNL     1      -0.249   3.583  -0.143  0.00  0.00    +0.019 C 
ATOM     23  C   UNL     1       0.017   4.771  -1.100  0.00  0.00    +0.108 C 
ENDBRANCH   6  15
BRANCH  12  24
ATOM     24  C   UNL     1       4.694   7.532   4.223  0.00  0.00    +0.017 A 
ATOM     25  C   UNL     1       4.366   6.227   3.911  0.00  0.00    +0.041 A 
ATOM     26  C   UNL     1       5.135   5.185   4.397  0.00  0.00    +0.127 A 
ATOM     27  C   UNL     1       6.233   5.447   5.195  0.00  0.00    +0.036 A 
ATOM     28  C   UNL     1       6.565   6.751   5.510  0.00  0.00    +0.048 A 
ATOM     29  C   UNL     1       5.798   7.798   5.019  0.00  0.00    +0.122 A 
BRANCH  26  30
ATOM     30  N   UNL     1       4.782   3.788   4.062  0.00  0.00    +0.056 N 
ATOM     31  O   UNL     1       3.815   3.555   3.358  0.00  0.00    -0.126 OA
ATOM     32  O   UNL     1       5.459   2.869   4.489  0.00  0.00    -0.126 OA
ENDBRANCH  26  30
BRANCH  29  33
ATOM     33  O   UNL     1       6.125   9.082   5.322  0.00  0.00    -0.506 OA
ATOM     34  H   UNL     1       7.001   9.292   5.954  0.00  0.00    +0.292 HD
ENDBRANCH  29  33
ENDBRANCH  12  24
TORSDOF 4
