REMARK  Name = ZINC62833788
REMARK  3 active torsions:
REMARK  status: ('A' for Active; 'I' for Inactive)
REMARK    1  A    between atoms: C_5  and  C_12
REMARK    2  A    between atoms: C_9  and  N_11
REMARK    3  A    between atoms: C_19  and  C_21
REMARK                            x       y       z     vdW  Elec       q    Type
REMARK                         _______ _______ _______ _____ _____    ______ ____
ROOT
ATOM      1  C   UNL     1       0.142   1.460   1.609  0.00  0.00    +0.002 A 
ATOM      2  C   UNL     1       1.198   2.063   0.990  0.00  0.00    +0.010 A 
ATOM      3  C   UNL     1       2.462   1.456   1.010  0.00  0.00    +0.002 A 
ATOM      4  C   UNL     1       3.722   1.817   0.475  0.00  0.00    +0.041 A 
ATOM      5  C   UNL     1       4.607   0.840   0.803  0.00  0.00    +0.103 A 
ATOM      6  N   UNL     1       3.954  -0.135   1.531  0.00  0.00    -0.349 N 
ATOM      7  H   UNL     1       4.360  -0.941   1.887  0.00  0.00    +0.166 HD
ATOM      8  C   UNL     1       2.633   0.225   1.669  0.00  0.00    +0.068 A 
ATOM      9  C   UNL     1       1.538  -0.376   2.297  0.00  0.00    +0.049 A 
ATOM     10  C   UNL     1       0.303   0.245   2.262  0.00  0.00    +0.025 A 
ENDROOT
BRANCH   5  11
ATOM     11  C   UNL     1       6.032   0.824   0.442  0.00  0.00    +0.264 C 
ATOM     12  O   UNL     1       6.624   1.870   0.253  0.00  0.00    -0.268 OA
ATOM     13  N   UNL     1       6.683  -0.350   0.318  0.00  0.00    -0.285 N 
ATOM     14  C   UNL     1       5.948  -1.622   0.362  0.00  0.00    +0.109 C 
ATOM     15  C   UNL     1       6.296  -2.436  -0.888  0.00  0.00    +0.019 C 
ATOM     16  C   UNL     1       7.816  -2.591  -0.983  0.00  0.00    +0.004 C 
ATOM     17  C   UNL     1       8.465  -1.211  -1.109  0.00  0.00    +0.032 C 
ATOM     18  C   UNL     1       8.140  -0.383   0.132  0.00  0.00    +0.162 C 
BRANCH  18  19
ATOM     19  C   UNL     1       8.657   1.021  -0.050  0.00  0.00    +0.231 C 
ATOM     20  O   UNL     1       8.357   1.654  -1.040  0.00  0.00    -0.274 OA
ATOM     21  N   UNL     1       9.454   1.573   0.887  0.00  0.00    -0.328 N 
ATOM     22  H   UNL     1       9.694   1.066   1.678  0.00  0.00    +0.145 HD
ATOM     23  H   UNL     1       9.787   2.476   0.769  0.00  0.00    +0.145 HD
ENDBRANCH  18  19
ENDBRANCH   5  11
BRANCH   9  24
ATOM     24  N   UNL     1       1.691  -1.599   2.957  0.00  0.00    -0.356 N 
ATOM     25  H   UNL     1       2.558  -2.034   2.979  0.00  0.00    +0.142 HD
ATOM     26  H   UNL     1       0.930  -2.014   3.392  0.00  0.00    +0.142 HD
ENDBRANCH   9  24
TORSDOF 3
