REMARK  Name = ZINC04855377
REMARK  10 active torsions:
REMARK  status: ('A' for Active; 'I' for Inactive)
REMARK    1  A    between atoms: C_1  and  C_2
REMARK    2  A    between atoms: C_2  and  C_3
REMARK    3  A    between atoms: C_3  and  C_4
REMARK    4  A    between atoms: C_4  and  C_5
REMARK    5  A    between atoms: C_11  and  N_26
REMARK    6  A    between atoms: C_12  and  C_24
REMARK    7  A    between atoms: C_13  and  C_15
REMARK    8  A    between atoms: C_18  and  N_21
REMARK    9  A    between atoms: N_21  and  C_22
REMARK   10  A    between atoms: N_21  and  C_23
REMARK                            x       y       z     vdW  Elec       q    Type
REMARK                         _______ _______ _______ _____ _____    ______ ____
ROOT
ATOM      1  C   UNL     1       4.035   1.630   3.205  0.00  0.00    +0.198 A 
ATOM      2  N   UNL     1       3.098   1.077   2.482  0.00  0.00    -0.215 NA
ATOM      3  C   UNL     1       3.290   1.415   1.204  0.00  0.00    +0.115 A 
ATOM      4  C   UNL     1       4.395   2.205   1.150  0.00  0.00    +0.216 A 
ATOM      5  O   UNL     1       4.851   2.337   2.399  0.00  0.00    -0.426 OA
ATOM      6  N   UNL     1       4.876   2.728  -0.049  0.00  0.00    -0.272 N 
ATOM      7  C   UNL     1       4.366   2.213  -1.221  0.00  0.00    +0.102 C 
ATOM      8  C   UNL     1       3.264   1.423  -1.250  0.00  0.00    +0.078 C 
ATOM      9  C   UNL     1       2.490   1.044  -0.016  0.00  0.00    +0.116 C 
ATOM     10  H   UNL     1       5.546   3.429  -0.059  0.00  0.00    +0.156 HD
ENDROOT
BRANCH   9  11
ATOM     11  C   UNL     1       1.176   1.783   0.000  0.00  0.00    -0.033 A 
ATOM     12  C   UNL     1      -0.013   1.076   0.008  0.00  0.00    +0.006 A 
ATOM     13  C   UNL     1      -1.218   1.749   0.017  0.00  0.00    +0.023 A 
ATOM     14  C   UNL     1      -1.236   3.138   0.031  0.00  0.00    +0.029 A 
ATOM     15  C   UNL     1      -0.040   3.845   0.023  0.00  0.00    +0.023 A 
ATOM     16  C   UNL     1       1.162   3.166   0.008  0.00  0.00    +0.006 A 
BRANCH  14  17
ATOM     17  N   UNL     1      -2.454   3.822   0.046  0.00  0.00    -0.336 N 
ATOM     18  C   UNL     1      -2.471   5.287   0.055  0.00  0.00    +0.129 C 
ATOM     19  C   UNL     1      -3.714   3.075   0.054  0.00  0.00    +0.129 C 
ENDBRANCH  14  17
ENDBRANCH   9  11
BRANCH   7  20
ATOM     20  N   UNL     1       4.997   2.512  -2.405  0.00  0.00    -0.346 N 
ATOM     21  H   UNL     1       4.653   2.159  -3.241  0.00  0.00    +0.144 HD
ATOM     22  H   UNL     1       5.786   3.075  -2.405  0.00  0.00    +0.144 HD
ENDBRANCH   7  20
BRANCH   8  23
ATOM     23  C   UNL     1       2.815   0.925  -2.515  0.00  0.00    +0.099 C 
ATOM     24  N   UNL     1       2.459   0.530  -3.519  0.00  0.00    -0.191 NA
ENDBRANCH   8  23
BRANCH   1  25
ATOM     25  C   UNL     1       4.180   1.498   4.699  0.00  0.00    +0.096 C 
BRANCH  25  26
ATOM     26  C   UNL     1       5.059   0.287   5.021  0.00  0.00    +0.009 C 
BRANCH  26  28
ATOM     27  C   UNL     1       6.084  -1.058   6.860  0.00  0.00    +0.004 C 
ATOM     28  C   UNL     1       5.206   0.152   6.538  0.00  0.00    -0.003 C 
ENDBRANCH  26  28
ENDBRANCH  25  26
ENDBRANCH   1  25
TORSDOF 7
