REMARK  Name = ZINC08922220
REMARK  10 active torsions:
REMARK  status: ('A' for Active; 'I' for Inactive)
REMARK    1  A    between atoms: C_1  and  C_2
REMARK    2  A    between atoms: C_5  and  N_9
REMARK    3  A    between atoms: C_6  and  C_8
REMARK    4  A    between atoms: C_10  and  C_12
REMARK    5  A    between atoms: C_13  and  C_36
REMARK    6  A    between atoms: N_19  and  C_22
REMARK    7  A    between atoms: C_22  and  C_24
REMARK    8  A    between atoms: C_22  and  C_25
REMARK    9  A    between atoms: N_27  and  C_28
REMARK   10  A    between atoms: C_31  and  C_35
REMARK                            x       y       z     vdW  Elec       q    Type
REMARK                         _______ _______ _______ _____ _____    ______ ____
ROOT
ATOM      1  C   UNL     1       3.793  -0.874   0.166  0.00  0.00    +0.080 A 
ATOM      2  C   UNL     1       3.998  -2.217   0.290  0.00  0.00    -0.017 A 
ATOM      3  C   UNL     1       5.300  -2.719   0.353  0.00  0.00    +0.076 A 
ATOM      4  C   UNL     1       6.334  -1.758   0.292  0.00  0.00    +0.116 A 
ATOM      5  S   UNL     1       5.455  -0.223   0.144  0.00  0.00    -0.064 S 
ATOM      6  N   UNL     1       7.614  -2.102   0.347  0.00  0.00    -0.230 NA
ATOM      7  C   UNL     1       7.983  -3.349   0.461  0.00  0.00    +0.204 A 
ATOM      8  N   UNL     1       7.082  -4.360   0.529  0.00  0.00    -0.287 N 
ATOM      9  C   UNL     1       5.756  -4.122   0.482  0.00  0.00    +0.263 A 
ATOM     10  O   UNL     1       4.955  -5.037   0.543  0.00  0.00    -0.267 OA
ATOM     11  C   UNL     1       2.822  -3.157   0.353  0.00  0.00    +0.046 C 
ENDROOT
BRANCH   1  13
ATOM     12  N   UNL     1       2.524   1.197  -0.035  0.00  0.00    -0.281 N 
ATOM     13  C   UNL     1       2.524  -0.146   0.079  0.00  0.00    +0.255 C 
ATOM     14  O   UNL     1       1.470  -0.754   0.110  0.00  0.00    -0.269 OA
ATOM     15  H   UNL     1       3.362   1.676  -0.127  0.00  0.00    +0.155 HD
BRANCH  12  20
ATOM     16  C   UNL     1      -2.380   4.048   0.028  0.00  0.00    +0.044 C 
ATOM     17  C   UNL     1      -1.077   3.291   0.011  0.00  0.00    -0.050 A 
ATOM     18  C   UNL     1      -1.012   2.042  -0.580  0.00  0.00    +0.005 A 
ATOM     19  C   UNL     1       0.179   1.343  -0.592  0.00  0.00    +0.024 A 
ATOM     20  C   UNL     1       1.315   1.900  -0.020  0.00  0.00    +0.037 A 
ATOM     21  C   UNL     1       1.248   3.157   0.568  0.00  0.00    -0.029 A 
ATOM     22  C   UNL     1       0.052   3.848   0.582  0.00  0.00    +0.008 A 
ATOM     23  C   UNL     1       2.478   3.765   1.191  0.00  0.00    +0.045 C 
ENDBRANCH  12  20
ENDBRANCH   1  13
BRANCH   8  24
ATOM     24  C   UNL     1       7.559  -5.739   0.656  0.00  0.00    +0.174 C 
ATOM     25  C   UNL     1       8.432  -6.090  -0.550  0.00  0.00    +0.041 C 
BRANCH  24  26
ATOM     26  C   UNL     1       8.369  -5.875   1.919  0.00  0.00    +0.240 C 
ATOM     27  O   UNL     1       8.532  -4.915   2.642  0.00  0.00    -0.273 OA
ATOM     28  N   UNL     1       8.913  -7.065   2.246  0.00  0.00    -0.284 N 
ATOM     29  H   UNL     1       8.855  -7.811   1.629  0.00  0.00    +0.155 HD
BRANCH  28  30
ATOM     30  C   UNL     1       9.560  -7.224   3.476  0.00  0.00    +0.035 A 
ATOM     31  C   UNL     1      10.548  -8.189   3.623  0.00  0.00    +0.023 A 
ATOM     32  C   UNL     1      11.190  -8.340   4.836  0.00  0.00    +0.006 A 
ATOM     33  C   UNL     1      10.842  -7.539   5.909  0.00  0.00    -0.032 A 
ATOM     34  C   UNL     1       9.855  -6.580   5.768  0.00  0.00    +0.046 A 
ATOM     35  C   UNL     1       9.213  -6.421   4.554  0.00  0.00    +0.043 A 
ATOM     36 CL   UNL     1       9.422  -5.577   7.117  0.00  0.00    -0.083 Cl
ATOM     37  C   UNL     1      11.541  -7.711   7.233  0.00  0.00    +0.045 C 
ENDBRANCH  28  30
ENDBRANCH  24  26
ENDBRANCH   8  24
TORSDOF 5
