REMARK  Name = ZINC09144634
REMARK  8 active torsions:
REMARK  status: ('A' for Active; 'I' for Inactive)
REMARK    1  A    between atoms: C_3  and  C_18
REMARK    2  A    between atoms: C_5  and  S_7
REMARK    3  A    between atoms: S_7  and  N_10
REMARK    4  A    between atoms: N_10  and  C_11
REMARK    5  A    between atoms: N_20  and  N_21
REMARK    6  A    between atoms: C_22  and  C_23
REMARK    7  A    between atoms: C_26  and  O_30
REMARK    8  A    between atoms: C_28  and  O_29
REMARK                            x       y       z     vdW  Elec       q    Type
REMARK                         _______ _______ _______ _____ _____    ______ ____
ROOT
ATOM      1  C   UNL     1       5.531   4.570  -0.332  0.00  0.00    +0.003 A 
ATOM      2  C   UNL     1       4.491   3.664  -0.351  0.00  0.00    +0.013 A 
ATOM      3  C   UNL     1       3.173   4.117  -0.277  0.00  0.00    +0.040 A 
ATOM      4  C   UNL     1       2.916   5.485  -0.173  0.00  0.00    +0.042 A 
ATOM      5  C   UNL     1       3.965   6.380  -0.151  0.00  0.00    +0.109 A 
ATOM      6  C   UNL     1       5.269   5.925  -0.230  0.00  0.00    +0.029 A 
ENDROOT
BRANCH   3   7
ATOM      7  C   UNL     1       2.054   3.151  -0.302  0.00  0.00    +0.263 C 
ATOM      8  O   UNL     1       0.907   3.548  -0.232  0.00  0.00    -0.268 OA
ATOM      9  N   UNL     1       2.305   1.831  -0.402  0.00  0.00    -0.203 N 
ATOM     10  H   UNL     1       3.220   1.514  -0.458  0.00  0.00    +0.178 HD
BRANCH   9  11
ATOM     11  N   UNL     1       1.244   0.916  -0.426  0.00  0.00    -0.187 NA
ATOM     12  C   UNL     1       1.486  -0.356  -0.522  0.00  0.00    +0.142 C 
BRANCH  12  13
ATOM     13  C   UNL     1       0.371  -1.318  -0.547  0.00  0.00    +0.036 A 
ATOM     14  C   UNL     1       0.628  -2.688  -0.651  0.00  0.00    +0.016 A 
ATOM     15  C   UNL     1      -0.418  -3.584  -0.673  0.00  0.00    +0.046 A 
ATOM     16  C   UNL     1      -1.729  -3.131  -0.593  0.00  0.00    +0.120 A 
ATOM     17  C   UNL     1      -1.995  -1.774  -0.489  0.00  0.00    +0.091 A 
ATOM     18  C   UNL     1      -0.953  -0.864  -0.461  0.00  0.00    +0.129 A 
BRANCH  18  19
ATOM     19  O   UNL     1      -1.211   0.465  -0.354  0.00  0.00    -0.506 OA
ATOM     20  H   UNL     1      -1.322   0.914  -1.203  0.00  0.00    +0.292 HD
ENDBRANCH  18  19
BRANCH  16  21
ATOM     21  O   UNL     1      -2.755  -4.021  -0.615  0.00  0.00    -0.507 OA
ATOM     22  H   UNL     1      -3.019  -4.340   0.259  0.00  0.00    +0.292 HD
ENDBRANCH  16  21
ENDBRANCH  12  13
ENDBRANCH   9  11
ENDBRANCH   3   7
BRANCH   5  23
ATOM     23  S   UNL     1       3.643   8.108  -0.020  0.00  0.00    +0.072 S 
ATOM     24  O   UNL     1       4.822   8.774  -0.452  0.00  0.00    -0.150 OA
ATOM     25  O   UNL     1       2.377   8.332  -0.623  0.00  0.00    -0.150 OA
BRANCH  23  26
ATOM     26  N   UNL     1       3.468   8.453   1.590  0.00  0.00    -0.216 N 
ATOM     27  H   UNL     1       2.620   8.782   1.926  0.00  0.00    +0.174 HD
BRANCH  26  28
ATOM     28  C   UNL     1       4.543   8.270   2.465  0.00  0.00    +0.048 A 
ATOM     29  C   UNL     1       4.545   7.199   3.350  0.00  0.00    +0.026 A 
ATOM     30  C   UNL     1       5.611   7.016   4.209  0.00  0.00    +0.022 A 
ATOM     31  C   UNL     1       6.670   7.907   4.197  0.00  0.00    +0.041 A 
ATOM     32  C   UNL     1       6.668   8.978   3.321  0.00  0.00    +0.022 A 
ATOM     33  C   UNL     1       5.607   9.161   2.455  0.00  0.00    +0.026 A 
ATOM     34 CL   UNL     1       8.005   7.679   5.284  0.00  0.00    -0.084 Cl
ENDBRANCH  26  28
ENDBRANCH  23  26
ENDBRANCH   5  23
TORSDOF 8
