REMARK  Name = ZINC22617733
REMARK  8 active torsions:
REMARK  status: ('A' for Active; 'I' for Inactive)
REMARK    1  A    between atoms: C_5  and  C_7
REMARK    2  A    between atoms: N_9  and  C_10
REMARK    3  A    between atoms: C_10  and  C_11
REMARK    4  A    between atoms: N_13  and  N_14
REMARK    5  A    between atoms: N_14  and  C_15
REMARK    6  A    between atoms: C_15  and  N_17
REMARK    7  A    between atoms: N_17  and  C_18
REMARK    8  A    between atoms: C_18  and  C_19
REMARK                            x       y       z     vdW  Elec       q    Type
REMARK                         _______ _______ _______ _____ _____    ______ ____
ROOT
ATOM      1  C   UNL     1      -4.034   0.021   5.255  0.00  0.00    +0.246 C 
ATOM      2  O   UNL     1      -5.055  -0.593   5.478  0.00  0.00    -0.273 OA
ATOM      3  N   UNL     1      -3.654   0.258   3.984  0.00  0.00    -0.234 N 
ATOM      4  H   UNL     1      -2.727   0.815   3.781  0.00  0.00    +0.173 HD
ENDROOT
BRANCH   3   5
ATOM      5  N   UNL     1      -4.440  -0.204   2.920  0.00  0.00    -0.246 N 
ATOM      6  H   UNL     1      -5.367  -0.760   3.123  0.00  0.00    +0.172 HD
BRANCH   5   7
ATOM      7  C   UNL     1      -4.061   0.034   1.649  0.00  0.00    +0.147 C 
ATOM      8  S   UNL     1      -5.021  -0.530   0.349  0.00  0.00    -0.017 S 
BRANCH   7   9
ATOM      9  N   UNL     1      -2.925   0.716   1.401  0.00  0.00    -0.321 N 
ATOM     10  H   UNL     1      -2.308   1.079   2.236  0.00  0.00    +0.148 HD
BRANCH   9  11
ATOM     11  C   UNL     1      -2.513   0.975   0.019  0.00  0.00    +0.138 C 
BRANCH  11  12
ATOM     12  C   UNL     1      -1.220   1.749   0.017  0.00  0.00    -0.027 A 
ATOM     13  C   UNL     1      -0.013   1.076   0.008  0.00  0.00    +0.009 A 
ATOM     14  C   UNL     1       1.176   1.782   0.000  0.00  0.00    +0.050 A 
ATOM     15  C   UNL     1       1.160   3.167   0.008  0.00  0.00    +0.166 A 
ATOM     16  C   UNL     1      -0.057   3.845   0.022  0.00  0.00    +0.167 A 
ATOM     17  C   UNL     1      -1.244   3.131   0.031  0.00  0.00    +0.054 A 
ATOM     18  O   UNL     1       0.192   5.188   0.026  0.00  0.00    -0.453 OA
ATOM     19  C   UNL     1       1.561   5.326  -0.398  0.00  0.00    +0.466 C 
ATOM     20  O   UNL     1       2.171   4.084   0.002  0.00  0.00    -0.453 OA
ENDBRANCH  11  12
ENDBRANCH   9  11
ENDBRANCH   7   9
ENDBRANCH   5   7
ENDBRANCH   3   5
BRANCH   1  21
ATOM     21  C   UNL     1      -3.188   0.517   6.399  0.00  0.00    +0.202 C 
BRANCH  21  24
ATOM     22  C   UNL     1      -3.227   0.474   8.835  0.00  0.00    +0.247 C 
ATOM     23  O   UNL     1      -2.184   1.099   8.834  0.00  0.00    -0.270 OA
ATOM     24  N   UNL     1      -3.810   0.134   7.669  0.00  0.00    -0.303 N 
ATOM     25  H   UNL     1      -4.754  -0.431   7.670  0.00  0.00    +0.150 HD
BRANCH  22  30
ATOM     26  C   UNL     1      -5.633  -0.988  11.319  0.00  0.00    +0.001 A 
ATOM     27  C   UNL     1      -5.032  -0.638  12.516  0.00  0.00    +0.003 A 
ATOM     28  C   UNL     1      -3.846   0.072  12.521  0.00  0.00    +0.039 A 
ATOM     29  C   UNL     1      -3.252   0.439  11.327  0.00  0.00    +0.135 A 
ATOM     30  C   UNL     1      -3.854   0.088  10.115  0.00  0.00    +0.072 A 
ATOM     31  C   UNL     1      -5.055  -0.625  10.121  0.00  0.00    +0.016 A 
ATOM     32  F   UNL     1      -2.093   1.133  11.332  0.00  0.00    -0.205 F 
ENDBRANCH  22  30
ENDBRANCH  21  24
ENDBRANCH   1  21
TORSDOF 8
