REMARK  Name = ZINC09665530
REMARK  7 active torsions:
REMARK  status: ('A' for Active; 'I' for Inactive)
REMARK    1  A    between atoms: C_1  and  C_2
REMARK    2  A    between atoms: C_5  and  C_9
REMARK    3  A    between atoms: C_7  and  C_8
REMARK    4  A    between atoms: C_9  and  C_29
REMARK    5  A    between atoms: N_12  and  C_16
REMARK    6  A    between atoms: C_16  and  N_63
REMARK    7  A    between atoms: C_22  and  C_24
REMARK                            x       y       z     vdW  Elec       q    Type
REMARK                         _______ _______ _______ _____ _____    ______ ____
ROOT
ATOM      1  C   UNL     1       2.098   3.819   1.200  0.00  0.00    +0.164 C 
ATOM      2  C   UNL     1       2.415   5.292   1.363  0.00  0.00    +0.254 C 
ATOM      3  O   UNL     1       3.511   5.796   1.486  0.00  0.00    -0.272 OA
ATOM      4  N   UNL     1       1.226   5.926   1.343  0.00  0.00    -0.241 N 
ATOM      5  C   UNL     1       0.212   5.067   1.187  0.00  0.00    +0.308 C 
ATOM      6  O   UNL     1      -0.956   5.401   1.135  0.00  0.00    -0.252 OA
ATOM      7  N   UNL     1       0.628   3.791   1.098  0.00  0.00    -0.278 N 
ATOM      8  H   UNL     1       0.070   3.005   0.985  0.00  0.00    +0.152 HD
ENDROOT
BRANCH   1  13
ATOM      9  C   UNL     1       4.511   1.724  -3.614  0.00  0.00    +0.044 C 
ATOM     10  C   UNL     1       3.882   2.271  -2.359  0.00  0.00    -0.048 A 
ATOM     11  C   UNL     1       4.638   3.020  -1.476  0.00  0.00    +0.004 A 
ATOM     12  C   UNL     1       4.060   3.521  -0.325  0.00  0.00    +0.007 A 
ATOM     13  C   UNL     1       2.727   3.273  -0.056  0.00  0.00    -0.010 A 
ATOM     14  C   UNL     1       1.973   2.520  -0.935  0.00  0.00    +0.010 A 
ATOM     15  C   UNL     1       2.549   2.022  -2.090  0.00  0.00    -0.047 A 
ATOM     16  C   UNL     1       1.726   1.205  -3.051  0.00  0.00    +0.044 C 
ENDBRANCH   1  13
BRANCH   1  17
ATOM     17  C   UNL     1       2.561   3.041   2.405  0.00  0.00    -0.011 A 
ATOM     18  C   UNL     1       1.698   2.164   3.034  0.00  0.00    +0.006 A 
ATOM     19  C   UNL     1       2.124   1.446   4.137  0.00  0.00    +0.000 A 
ATOM     20  C   UNL     1       3.410   1.614   4.615  0.00  0.00    +0.000 A 
ATOM     21  C   UNL     1       4.271   2.496   3.989  0.00  0.00    +0.000 A 
ATOM     22  C   UNL     1       3.846   3.209   2.884  0.00  0.00    +0.006 A 
ENDBRANCH   1  17
BRANCH   4  23
ATOM     23  C   UNL     1       1.063   7.376   1.470  0.00  0.00    +0.043 C 
BRANCH  23  31
ATOM     24  C   UNL     1       2.485   8.153  -0.329  0.00  0.00    -0.057 C 
ATOM     25  C   UNL     1       2.478   8.627  -1.786  0.00  0.00    +0.089 C 
ATOM     26  N   UNL     1       1.645   9.835  -1.881  0.00  0.00    -0.301 N 
ATOM     27  C   UNL     1       0.290   9.792  -1.311  0.00  0.00    +0.089 C 
ATOM     28  C   UNL     1       0.383   9.273   0.127  0.00  0.00    -0.057 C 
ATOM     29  C   UNL     1       2.111  10.952  -2.475  0.00  0.00    +0.253 C 
ATOM     30  O   UNL     1       3.215  10.953  -2.988  0.00  0.00    -0.269 OA
ATOM     31  N   UNL     1       1.087   7.972   0.118  0.00  0.00    +0.392 N 
ATOM     32  H   UNL     1       0.609   7.340  -0.534  0.00  0.00    -0.079 HD
BRANCH  29  33
ATOM     33  C   UNL     1       1.288  12.165  -2.503  0.00  0.00    +0.074 A 
ATOM     34  C   UNL     1       1.687  13.492  -2.474  0.00  0.00    +0.021 A 
ATOM     35  C   UNL     1       0.698  14.443  -2.513  0.00  0.00    +0.008 A 
ATOM     36  C   UNL     1      -0.601  14.047  -2.575  0.00  0.00    +0.046 A 
ATOM     37  S   UNL     1      -0.487  12.318  -2.590  0.00  0.00    -0.092 S 
ENDBRANCH  29  33
ENDBRANCH  23  31
ENDBRANCH   4  23
TORSDOF 5
