REMARK  Name = ZINC05956124
REMARK  10 active torsions:
REMARK  status: ('A' for Active; 'I' for Inactive)
REMARK    1  A    between atoms: C_1  and  O_2
REMARK    2  A    between atoms: O_2  and  C_3
REMARK    3  A    between atoms: C_6  and  C_9
REMARK    4  A    between atoms: N_12  and  C_18
REMARK    5  A    between atoms: C_15  and  C_16
REMARK    6  A    between atoms: C_20  and  O_33
REMARK    7  A    between atoms: C_22  and  O_32
REMARK    8  A    between atoms: C_24  and  O_31
REMARK    9  A    between atoms: C_26  and  C_29
REMARK   10  A    between atoms: C_29  and  O_30
REMARK                            x       y       z     vdW  Elec       q    Type
REMARK                         _______ _______ _______ _____ _____    ______ ____
ROOT
ATOM      1  C   UNL     1       1.177   2.163   0.002  0.00  0.00    +0.007 A 
ATOM      2  C   UNL     1       1.122   3.579   0.010  0.00  0.00    -0.019 A 
ATOM      3  C   UNL     1      -0.073   4.202   0.015  0.00  0.00    +0.026 A 
ATOM      4  N   UNL     1      -1.234   3.478   0.027  0.00  0.00    -0.309 N 
ATOM      5  C   UNL     1      -1.243   2.137   0.019  0.00  0.00    +0.107 A 
ATOM      6  S   UNL     1      -2.729   1.287   0.028  0.00  0.00    -0.031 S 
ATOM      7  C   UNL     1      -0.017   1.428   0.010  0.00  0.00    +0.091 A 
ATOM      8  C   UNL     1      -0.206   5.704   0.006  0.00  0.00    +0.054 C 
ATOM      9  C   UNL     1       1.100   6.366   0.440  0.00  0.00    +0.006 C 
ATOM     10  C   UNL     1       2.240   5.774  -0.398  0.00  0.00    +0.005 C 
ATOM     11  C   UNL     1       2.434   4.319   0.024  0.00  0.00    +0.037 C 
ENDROOT
BRANCH   1  15
ATOM     12  C   UNL     1       4.925   0.164  -0.042  0.00  0.00    +0.120 A 
ATOM     13  C   UNL     1       4.064   0.046  -1.126  0.00  0.00    +0.046 A 
ATOM     14  C   UNL     1       2.848   0.693  -1.116  0.00  0.00    +0.012 A 
ATOM     15  C   UNL     1       2.481   1.468  -0.013  0.00  0.00    -0.016 A 
ATOM     16  C   UNL     1       3.352   1.588   1.073  0.00  0.00    +0.012 A 
ATOM     17  C   UNL     1       4.563   0.934   1.057  0.00  0.00    +0.046 A 
BRANCH  12  19
ATOM     18  C   UNL     1       6.959  -0.311   1.091  0.00  0.00    +0.277 C 
ATOM     19  O   UNL     1       6.123  -0.475  -0.056  0.00  0.00    -0.495 OA
ENDBRANCH  12  19
ENDBRANCH   1  15
BRANCH   4  20
ATOM     20  C   UNL     1      -2.512   4.194   0.044  0.00  0.00    +0.252 C 
ATOM     21  C   UNL     1      -3.123   4.114   1.445  0.00  0.00    +0.195 C 
ATOM     22  C   UNL     1      -4.487   4.812   1.440  0.00  0.00    +0.178 C 
ATOM     23  C   UNL     1      -5.378   4.160   0.378  0.00  0.00    +0.177 C 
ATOM     24  C   UNL     1      -4.679   4.238  -0.982  0.00  0.00    +0.177 C 
ATOM     25  O   UNL     1      -3.405   3.597  -0.899  0.00  0.00    -0.346 OA
BRANCH  23  26
ATOM     26  O   UNL     1      -5.605   2.791   0.720  0.00  0.00    -0.386 OA
ATOM     27  H   UNL     1      -6.046   2.666   1.571  0.00  0.00    +0.210 HD
ENDBRANCH  23  26
BRANCH  22  28
ATOM     28  O   UNL     1      -5.098   4.678   2.724  0.00  0.00    -0.386 OA
ATOM     29  H   UNL     1      -5.969   5.092   2.791  0.00  0.00    +0.210 HD
ENDBRANCH  22  28
BRANCH  21  30
ATOM     30  O   UNL     1      -2.259   4.761   2.381  0.00  0.00    -0.385 OA
ATOM     31  H   UNL     1      -2.585   4.749   3.291  0.00  0.00    +0.210 HD
ENDBRANCH  21  30
BRANCH  24  32
ATOM     32  C   UNL     1      -5.536   3.535  -2.037  0.00  0.00    +0.190 C 
BRANCH  32  33
ATOM     33  O   UNL     1      -4.942   3.708  -3.325  0.00  0.00    -0.392 OA
ATOM     34  H   UNL     1      -5.433   3.287  -4.044  0.00  0.00    +0.210 HD
ENDBRANCH  32  33
ENDBRANCH  24  32
ENDBRANCH   4  20
BRANCH   7  35
ATOM     35  C   UNL     1       0.002  -0.004   0.002  0.00  0.00    +0.102 C 
ATOM     36  N   UNL     1       0.018  -1.140  -0.004  0.00  0.00    -0.191 NA
ENDBRANCH   7  35
TORSDOF 9
