REMARK  Name = ZINC00307196
REMARK  5 active torsions:
REMARK  status: ('A' for Active; 'I' for Inactive)
REMARK    1  A    between atoms: C_1  and  C_2
REMARK    2  A    between atoms: C_2  and  C_4
REMARK    3  A    between atoms: C_2  and  N_11
REMARK    4  A    between atoms: C_12  and  C_14
REMARK    5  A    between atoms: C_18  and  N_20
REMARK                            x       y       z     vdW  Elec       q    Type
REMARK                         _______ _______ _______ _____ _____    ______ ____
ROOT
ATOM      1  N   UNL     1      -0.016   1.344   0.009  0.00  0.00    -0.305 N 
ATOM      2  C   UNL     1       0.002  -0.004   0.002  0.00  0.00    +0.245 C 
ATOM      3  O   UNL     1       1.063  -0.597  -0.011  0.00  0.00    -0.270 OA
ATOM      4  H   UNL     1      -0.863   1.817   0.016  0.00  0.00    +0.150 HD
ENDROOT
BRANCH   2   5
ATOM      5  C   UNL     1      -1.268  -0.761   0.010  0.00  0.00    +0.039 A 
ATOM      6  C   UNL     1      -2.488  -0.082   0.025  0.00  0.00    +0.013 A 
ATOM      7  C   UNL     1      -3.670  -0.794   0.033  0.00  0.00    +0.003 A 
ATOM      8  C   UNL     1      -3.647  -2.178   0.025  0.00  0.00    +0.033 A 
ATOM      9  C   UNL     1      -2.442  -2.856   0.010  0.00  0.00    +0.127 A 
ATOM     10  C   UNL     1      -1.253  -2.156  -0.003  0.00  0.00    +0.045 A 
BRANCH   9  11
ATOM     11  N   UNL     1      -2.427  -4.336   0.001  0.00  0.00    +0.056 N 
ATOM     12  O   UNL     1      -3.476  -4.955   0.008  0.00  0.00    -0.126 OA
ATOM     13  O   UNL     1      -1.367  -4.935  -0.013  0.00  0.00    -0.126 OA
ENDBRANCH   9  11
ENDBRANCH   2   5
BRANCH   1  15
ATOM     14  C   UNL     1       1.731   2.254  -1.440  0.00  0.00    +0.033 C 
ATOM     15  C   UNL     1       1.242   2.093   0.001  0.00  0.00    +0.100 C 
BRANCH  15  16
ATOM     16  C   UNL     1       1.021   3.453   0.611  0.00  0.00    -0.027 A 
ATOM     17  C   UNL     1      -0.135   4.157   0.329  0.00  0.00    +0.007 A 
ATOM     18  C   UNL     1      -0.341   5.402   0.892  0.00  0.00    +0.020 A 
ATOM     19  C   UNL     1       0.614   5.949   1.730  0.00  0.00    +0.041 A 
ATOM     20  C   UNL     1       1.773   5.246   2.009  0.00  0.00    +0.020 A 
ATOM     21  C   UNL     1       1.976   3.999   1.449  0.00  0.00    +0.007 A 
ATOM     22 CL   UNL     1       0.359   7.516   2.433  0.00  0.00    -0.084 Cl
ENDBRANCH  15  16
ENDBRANCH   1  15
TORSDOF 4
