REMARK  Name = ZINC02418134
REMARK  7 active torsions:
REMARK  status: ('A' for Active; 'I' for Inactive)
REMARK    1  A    between atoms: C_1  and  C_2
REMARK    2  A    between atoms: C_3  and  N_15
REMARK    3  A    between atoms: N_6  and  C_9
REMARK    4  A    between atoms: N_7  and  C_8
REMARK    5  A    between atoms: C_16  and  C_18
REMARK    6  A    between atoms: N_20  and  N_21
REMARK    7  A    between atoms: C_22  and  C_23
REMARK                            x       y       z     vdW  Elec       q    Type
REMARK                         _______ _______ _______ _____ _____    ______ ____
ROOT
ATOM      1  N   UNL     1       0.161  -0.368  -2.503  0.00  0.00    -0.272 N 
ATOM      2  C   UNL     1      -0.336  -1.066  -3.544  0.00  0.00    +0.305 C 
ATOM      3  O   UNL     1      -0.837  -2.157  -3.359  0.00  0.00    -0.265 OA
ATOM      4  H   UNL     1       0.625   0.470  -2.659  0.00  0.00    +0.155 HD
ENDROOT
BRANCH   1   7
ATOM      5  C   UNL     1      -1.230   1.153  -0.231  0.00  0.00    +0.067 C 
ATOM      6  C   UNL     1      -0.599  -0.214  -0.166  0.00  0.00    +0.059 A 
ATOM      7  C   UNL     1       0.007  -0.853  -1.194  0.00  0.00    +0.122 A 
ATOM      8  C   UNL     1       0.472  -2.145  -0.686  0.00  0.00    +0.293 A 
ATOM      9  O   UNL     1       1.065  -3.001  -1.317  0.00  0.00    -0.264 OA
ATOM     10  N   UNL     1       0.118  -2.206   0.615  0.00  0.00    -0.216 N 
ATOM     11  N   UNL     1      -0.539  -1.014   0.942  0.00  0.00    -0.282 N 
ATOM     12  C   UNL     1      -1.079  -0.678   2.262  0.00  0.00    +0.171 C 
BRANCH  10  13
ATOM     13  C   UNL     1       0.368  -3.272   1.485  0.00  0.00    +0.067 A 
ATOM     14  C   UNL     1      -0.651  -3.770   2.285  0.00  0.00    +0.028 A 
ATOM     15  C   UNL     1      -0.401  -4.823   3.143  0.00  0.00    +0.002 A 
ATOM     16  C   UNL     1       0.863  -5.381   3.206  0.00  0.00    +0.000 A 
ATOM     17  C   UNL     1       1.880  -4.887   2.410  0.00  0.00    +0.002 A 
ATOM     18  C   UNL     1       1.635  -3.837   1.546  0.00  0.00    +0.028 A 
ENDBRANCH  10  13
ENDBRANCH   1   7
BRANCH   2  19
ATOM     19  C   UNL     1      -0.270  -0.500  -4.920  0.00  0.00    +0.318 C 
ATOM     20  O   UNL     1       0.231   0.591  -5.104  0.00  0.00    -0.263 OA
ATOM     21  N   UNL     1      -0.766  -1.198  -5.960  0.00  0.00    -0.199 N 
ATOM     22  H   UNL     1      -1.167  -2.069  -5.813  0.00  0.00    +0.178 HD
BRANCH  21  23
ATOM     23  N   UNL     1      -0.705  -0.666  -7.255  0.00  0.00    -0.187 NA
ATOM     24  C   UNL     1      -1.185  -1.341  -8.260  0.00  0.00    +0.145 C 
BRANCH  24  25
ATOM     25  C   UNL     1      -1.120  -0.784  -9.613  0.00  0.00    +0.032 A 
ATOM     26  C   UNL     1      -1.571  -1.329 -10.805  0.00  0.00    +0.017 A 
ATOM     27  C   UNL     1      -1.395  -0.607 -11.961  0.00  0.00    +0.008 A 
ATOM     28  C   UNL     1      -0.789   0.608 -11.901  0.00  0.00    +0.046 A 
ATOM     29  S   UNL     1      -0.446   0.777 -10.157  0.00  0.00    -0.096 S 
ENDBRANCH  24  25
ENDBRANCH  21  23
ENDBRANCH   2  19
TORSDOF 5
