REMARK  Name = ZINC09135752
REMARK  7 active torsions:
REMARK  status: ('A' for Active; 'I' for Inactive)
REMARK    1  A    between atoms: C_1  and  N_2
REMARK    2  A    between atoms: C_10  and  C_12
REMARK    3  A    between atoms: C_12  and  C_14
REMARK    4  A    between atoms: C_12  and  N_60
REMARK    5  A    between atoms: C_14  and  N_15
REMARK    6  A    between atoms: C_16  and  C_18
REMARK    7  A    between atoms: N_20  and  C_21
REMARK                            x       y       z     vdW  Elec       q    Type
REMARK                         _______ _______ _______ _____ _____    ______ ____
ROOT
ATOM      1  C   UNL     1       2.693  -2.608   4.313  0.00  0.00    -0.020 C 
ENDROOT
BRANCH   1  11
ATOM      2  C   UNL     1       0.063  -0.951  -1.185  0.00  0.00    +0.129 C 
ATOM      3  N   UNL     1       0.883  -0.018  -0.402  0.00  0.00    -0.333 N 
ATOM      4  C   UNL     1       0.179   1.247  -0.187  0.00  0.00    +0.105 C 
ATOM      5  C   UNL     1       1.069   2.167   0.658  0.00  0.00    +0.024 C 
ATOM      6  C   UNL     1       1.167   1.567   2.063  0.00  0.00    +0.038 C 
ATOM      7  C   UNL     1       1.474   0.094   1.964  0.00  0.00    -0.026 A 
ATOM      8  C   UNL     1       1.319  -0.611   0.782  0.00  0.00    +0.033 A 
ATOM      9  C   UNL     1       1.610  -1.976   0.756  0.00  0.00    +0.023 A 
ATOM     10  C   UNL     1       2.051  -2.618   1.893  0.00  0.00    +0.004 A 
ATOM     11  C   UNL     1       2.208  -1.909   3.069  0.00  0.00    -0.059 A 
ATOM     12  C   UNL     1       1.921  -0.558   3.103  0.00  0.00    +0.007 A 
ENDBRANCH   1  11
BRANCH   1  17
ATOM     13  C   UNL     1       2.089  -4.364   5.887  0.00  0.00    -0.078 C 
ATOM     14  C   UNL     1       0.872  -5.310   6.051  0.00  0.00    -0.020 C 
ATOM     15  C   UNL     1      -0.246  -4.570   5.281  0.00  0.00    -0.020 C 
ATOM     16  C   UNL     1       0.489  -3.630   4.308  0.00  0.00    -0.078 C 
ATOM     17  N   UNL     1       1.919  -3.870   4.512  0.00  0.00    +0.385 N 
ATOM     18  H   UNL     1       2.251  -4.577   3.845  0.00  0.00    -0.081 HD
ENDBRANCH   1  17
BRANCH   1  19
ATOM     19  C   UNL     1       4.182  -2.929   4.170  0.00  0.00    +0.094 C 
BRANCH  19  20
ATOM     20  N   UNL     1       4.710  -3.386   5.458  0.00  0.00    -0.309 N 
ATOM     21  C   UNL     1       5.962  -3.878   5.537  0.00  0.00    +0.299 C 
ATOM     22  O   UNL     1       6.652  -3.943   4.542  0.00  0.00    -0.265 OA
ATOM     23  H   UNL     1       4.157  -3.334   6.254  0.00  0.00    +0.149 HD
BRANCH  21  24
ATOM     24  C   UNL     1       6.499  -4.343   6.851  0.00  0.00    +0.303 C 
ATOM     25  O   UNL     1       5.809  -4.278   7.847  0.00  0.00    -0.265 OA
ATOM     26  N   UNL     1       7.751  -4.836   6.930  0.00  0.00    -0.276 N 
ATOM     27  H   UNL     1       8.329  -4.820   6.151  0.00  0.00    +0.155 HD
BRANCH  26  28
ATOM     28  C   UNL     1       8.218  -5.368   8.135  0.00  0.00    +0.052 A 
ATOM     29  C   UNL     1       7.319  -5.863   9.072  0.00  0.00    +0.025 A 
ATOM     30  C   UNL     1       7.784  -6.393  10.259  0.00  0.00    +0.002 A 
ATOM     31  C   UNL     1       9.142  -6.423  10.522  0.00  0.00    +0.002 A 
ATOM     32  C   UNL     1      10.039  -5.926   9.595  0.00  0.00    +0.022 A 
ATOM     33  C   UNL     1       9.582  -5.399   8.402  0.00  0.00    +0.062 A 
ATOM     34 CL   UNL     1      10.709  -4.775   7.238  0.00  0.00    -0.082 Cl
ENDBRANCH  26  28
ENDBRANCH  21  24
ENDBRANCH  19  20
ENDBRANCH   1  19
TORSDOF 6
