REMARK  Name = ZINC51753219
REMARK  5 active torsions:
REMARK  status: ('A' for Active; 'I' for Inactive)
REMARK    1  A    between atoms: C_1  and  C_2
REMARK    2  A    between atoms: C_5  and  C_8
REMARK    3  A    between atoms: C_8  and  C_9
REMARK    4  A    between atoms: C_13  and  N_15
REMARK    5  A    between atoms: N_15  and  N_16
REMARK                            x       y       z     vdW  Elec       q    Type
REMARK                         _______ _______ _______ _____ _____    ______ ____
ROOT
ATOM      1  C   UNL     1       1.487  -4.759  -0.032  0.00  0.00    +0.136 A 
ATOM      2  N   UNL     1       2.088  -4.953  -1.188  0.00  0.00    -0.236 NA
ATOM      3  C   UNL     1       3.344  -5.378  -1.243  0.00  0.00    +0.050 A 
ATOM      4  C   UNL     1       4.021  -5.618  -0.066  0.00  0.00    +0.015 A 
ATOM      5  C   UNL     1       3.357  -5.403   1.142  0.00  0.00    +0.139 A 
ATOM      6  N   UNL     1       2.099  -4.971   1.115  0.00  0.00    -0.216 NA
ATOM      7  C   UNL     1       5.424  -6.091  -0.366  0.00  0.00    +0.041 C 
ATOM      8  C   UNL     1       5.394  -6.529  -1.846  0.00  0.00    +0.011 C 
ATOM      9  C   UNL     1       4.245  -5.673  -2.421  0.00  0.00    +0.056 C 
ENDROOT
BRANCH   5  10
ATOM     10  N   UNL     1       3.997  -5.631   2.349  0.00  0.00    -0.267 N 
ATOM     11  H   UNL     1       4.916  -5.942   2.360  0.00  0.00    +0.167 HD
BRANCH  10  12
ATOM     12  N   UNL     1       3.336  -5.417   3.525  0.00  0.00    -0.255 NA
ATOM     13  H   UNL     1       2.482  -5.953   3.562  0.00  0.00    +0.140 HD
ATOM     14  H   UNL     1       3.927  -5.624   4.316  0.00  0.00    +0.140 HD
ENDBRANCH  10  12
ENDBRANCH   5  10
BRANCH   1  15
ATOM     15  C   UNL     1       0.059  -4.275  -0.021  0.00  0.00    +0.111 C 
BRANCH  15  20
ATOM     16  C   UNL     1      -0.018   1.503   0.010  0.00  0.00    +0.044 C 
ATOM     17  C   UNL     1       0.002  -0.004   0.002  0.00  0.00    -0.050 A 
ATOM     18  C   UNL     1       0.006  -0.689  -1.199  0.00  0.00    +0.003 A 
ATOM     19  C   UNL     1       0.025  -2.071  -1.206  0.00  0.00    +0.004 A 
ATOM     20  C   UNL     1       0.040  -2.768  -0.013  0.00  0.00    -0.040 A 
ATOM     21  C   UNL     1       0.037  -2.084   1.188  0.00  0.00    +0.004 A 
ATOM     22  C   UNL     1       0.023  -0.702   1.195  0.00  0.00    +0.003 A 
ENDBRANCH  15  20
ENDBRANCH   1  15
TORSDOF 4
