REMARK  Name = ZINC38743362
REMARK  6 active torsions:
REMARK  status: ('A' for Active; 'I' for Inactive)
REMARK    1  A    between atoms: C_1  and  O_2
REMARK    2  A    between atoms: O_2  and  C_3
REMARK    3  A    between atoms: C_6  and  C_9
REMARK    4  A    between atoms: C_11  and  C_15
REMARK    5  A    between atoms: C_23  and  C_25
REMARK    6  A    between atoms: C_25  and  C_26
REMARK                            x       y       z     vdW  Elec       q    Type
REMARK                         _______ _______ _______ _____ _____    ______ ____
ROOT
ATOM      1  C   UNL     1       2.628  -4.798   6.770  0.00  0.00    +0.206 C 
ATOM      2  N   UNL     1       2.346  -6.170   6.283  0.00  0.00    -0.231 NA
ATOM      3  N   UNL     1       2.852  -7.093   7.314  0.00  0.00    -0.224 NA
ATOM      4  C   UNL     1       2.831  -6.265   8.537  0.00  0.00    +0.240 C 
ATOM      5  N   UNL     1       3.394  -4.972   8.025  0.00  0.00    -0.206 N 
ATOM      6  N   UNL     1       4.422  -4.472   8.795  0.00  0.00    -0.178 NA
ATOM      7  C   UNL     1       5.035  -5.166   9.696  0.00  0.00    +0.099 C 
ATOM      8  S   UNL     1       4.150  -6.756   9.708  0.00  0.00    -0.067 S 
ATOM      9  H   UNL     1       1.357  -6.304   6.132  0.00  0.00    +0.143 HD
ATOM     10  H   UNL     1       2.247  -7.895   7.410  0.00  0.00    +0.144 HD
ENDROOT
BRANCH   1  13
ATOM     11  C   UNL     1       2.577  -2.541   4.295  0.00  0.00    +0.091 C 
ATOM     12  C   UNL     1       2.697  -3.875   4.440  0.00  0.00    +0.034 C 
ATOM     13  C   UNL     1       3.462  -4.032   5.742  0.00  0.00    +0.190 C 
ATOM     14  N   UNL     1       3.679  -2.642   6.174  0.00  0.00    -0.176 NA
ATOM     15  N   UNL     1       3.173  -1.896   5.332  0.00  0.00    -0.154 NA
BRANCH  11  19
ATOM     16  C   UNL     1       0.626  -0.618   1.041  0.00  0.00    +0.120 A 
ATOM     17  C   UNL     1       1.202   0.142   2.050  0.00  0.00    +0.046 A 
ATOM     18  C   UNL     1       1.835  -0.479   3.107  0.00  0.00    +0.013 A 
ATOM     19  C   UNL     1       1.896  -1.870   3.161  0.00  0.00    +0.002 A 
ATOM     20  C   UNL     1       1.317  -2.631   2.146  0.00  0.00    +0.013 A 
ATOM     21  C   UNL     1       0.681  -2.005   1.095  0.00  0.00    +0.046 A 
BRANCH  16  23
ATOM     22  C   UNL     1      -0.017   1.425   0.010  0.00  0.00    +0.277 C 
ATOM     23  O   UNL     1       0.002  -0.004   0.002  0.00  0.00    -0.495 OA
ENDBRANCH  16  23
ENDBRANCH  11  19
ENDBRANCH   1  13
BRANCH   7  24
ATOM     24  C   UNL     1       6.206  -4.752  10.549  0.00  0.00    +0.099 C 
BRANCH  24  25
ATOM     25  C   UNL     1       6.605  -3.340  10.205  0.00  0.00    -0.041 A 
ATOM     26  C   UNL     1       7.537  -3.109   9.210  0.00  0.00    +0.004 A 
ATOM     27  C   UNL     1       7.903  -1.813   8.894  0.00  0.00    +0.000 A 
ATOM     28  C   UNL     1       7.336  -0.750   9.572  0.00  0.00    +0.000 A 
ATOM     29  C   UNL     1       6.404  -0.982  10.566  0.00  0.00    +0.000 A 
ATOM     30  C   UNL     1       6.035  -2.277  10.879  0.00  0.00    +0.004 A 
ENDBRANCH  24  25
ENDBRANCH   7  24
TORSDOF 5
