REMARK  Name = ZINC39352275
REMARK  9 active torsions:
REMARK  status: ('A' for Active; 'I' for Inactive)
REMARK    1  A    between atoms: C_1  and  C_2
REMARK    2  A    between atoms: C_8  and  C_18
REMARK    3  A    between atoms: C_10  and  C_16
REMARK    4  A    between atoms: C_11  and  N_15
REMARK    5  A    between atoms: C_21  and  O_26
REMARK    6  A    between atoms: C_22  and  O_24
REMARK    7  A    between atoms: O_24  and  C_25
REMARK    8  A    between atoms: O_26  and  C_27
REMARK    9  A    between atoms: C_27  and  C_28
REMARK                            x       y       z     vdW  Elec       q    Type
REMARK                         _______ _______ _______ _____ _____    ______ ____
ROOT
ATOM      1  C   UNL     1      -0.018   1.503   0.010  0.00  0.00    +0.063 C 
ATOM      2  C   UNL     1       0.002  -0.004   0.002  0.00  0.00    +0.034 C 
ATOM      3  N   UNL     1       0.005  -0.613  -1.159  0.00  0.00    -0.185 NA
ATOM      4  C   UNL     1       0.032  -1.941  -1.288  0.00  0.00    +0.248 C 
ATOM      5  O   UNL     1       0.016  -2.462  -2.386  0.00  0.00    -0.273 OA
ATOM      6  C   UNL     1       0.086  -2.782  -0.028  0.00  0.00    +0.155 C 
ATOM      7  C   UNL     1      -1.166  -3.666  -0.021  0.00  0.00    +0.084 C 
ATOM      8  C   UNL     1      -1.326  -4.310   1.328  0.00  0.00    +0.095 C 
ATOM      9  C   UNL     1      -0.755  -3.819   2.450  0.00  0.00    +0.198 C 
ATOM     10  O   UNL     1       0.023  -2.711   2.430  0.00  0.00    -0.445 OA
ATOM     11  C   UNL     1       0.071  -2.013   1.283  0.00  0.00    +0.122 C 
ATOM     12  C   UNL     1       0.023  -0.667   1.232  0.00  0.00    +0.063 C 
ENDROOT
BRANCH   7  13
ATOM     13  C   UNL     1      -1.030  -4.736  -1.073  0.00  0.00    -0.034 A 
ATOM     14  C   UNL     1       0.013  -5.640  -1.007  0.00  0.00    +0.008 A 
ATOM     15  C   UNL     1       0.142  -6.623  -1.970  0.00  0.00    +0.050 A 
ATOM     16  C   UNL     1      -0.777  -6.704  -3.004  0.00  0.00    +0.162 A 
ATOM     17  C   UNL     1      -1.827  -5.794  -3.071  0.00  0.00    +0.162 A 
ATOM     18  C   UNL     1      -1.953  -4.814  -2.100  0.00  0.00    +0.053 A 
BRANCH  17  19
ATOM     19  O   UNL     1      -2.731  -5.870  -4.084  0.00  0.00    -0.491 OA
ATOM     20  C   UNL     1      -3.783  -4.903  -4.088  0.00  0.00    +0.277 C 
ENDBRANCH  17  19
BRANCH  16  21
ATOM     21  O   UNL     1      -0.651  -7.671  -3.953  0.00  0.00    -0.484 OA
BRANCH  21  22
ATOM     22  C   UNL     1       0.452  -8.570  -3.821  0.00  0.00    +0.264 C 
BRANCH  22  23
ATOM     23  C   UNL     1       0.428  -9.564  -4.954  0.00  0.00    -0.010 A 
ATOM     24  C   UNL     1      -0.266 -10.752  -4.816  0.00  0.00    +0.008 A 
ATOM     25  C   UNL     1      -0.288 -11.664  -5.854  0.00  0.00    +0.020 A 
ATOM     26  C   UNL     1       0.384 -11.387  -7.032  0.00  0.00    +0.041 A 
ATOM     27  C   UNL     1       1.077 -10.198  -7.169  0.00  0.00    +0.020 A 
ATOM     28  C   UNL     1       1.094  -9.285  -6.132  0.00  0.00    +0.008 A 
ATOM     29 CL   UNL     1       0.356 -12.533  -8.336  0.00  0.00    -0.084 Cl
ENDBRANCH  22  23
ENDBRANCH  21  22
ENDBRANCH  16  21
ENDBRANCH   7  13
BRANCH   9  30
ATOM     30  N   UNL     1      -0.969  -4.462   3.644  0.00  0.00    -0.328 N 
ATOM     31  H   UNL     1      -1.524  -5.258   3.674  0.00  0.00    +0.145 HD
ATOM     32  H   UNL     1      -0.566  -4.122   4.457  0.00  0.00    +0.145 HD
ENDBRANCH   9  30
BRANCH   8  33
ATOM     33  C   UNL     1      -2.119  -5.498   1.429  0.00  0.00    +0.100 C 
ATOM     34  N   UNL     1      -2.749  -6.440   1.508  0.00  0.00    -0.191 NA
ENDBRANCH   8  33
TORSDOF 7
