REMARK  Name = ZINC39841135
REMARK  8 active torsions:
REMARK  status: ('A' for Active; 'I' for Inactive)
REMARK    1  A    between atoms: C_1  and  C_2
REMARK    2  A    between atoms: C_14  and  C_28
REMARK    3  A    between atoms: C_15  and  N_16
REMARK    4  A    between atoms: N_17  and  C_18
REMARK    5  A    between atoms: C_18  and  C_19
REMARK    6  A    between atoms: C_19  and  C_20
REMARK    7  A    between atoms: C_23  and  O_26
REMARK    8  A    between atoms: O_26  and  C_27
REMARK                            x       y       z     vdW  Elec       q    Type
REMARK                         _______ _______ _______ _____ _____    ______ ____
ROOT
ATOM      1  C   UNL     1       2.135   1.805   0.711  0.00  0.00    +0.047 C 
ATOM      2  C   UNL     1       1.630   0.416   0.417  0.00  0.00    -0.007 A 
ATOM      3  C   UNL     1       1.690  -0.079  -0.849  0.00  0.00    +0.008 A 
ATOM      4  C   UNL     1       1.216  -1.374  -1.110  0.00  0.00    +0.019 A 
ATOM      5  C   UNL     1       0.704  -2.123  -0.110  0.00  0.00    +0.096 A 
ATOM      6  N   UNL     1       0.639  -1.637   1.164  0.00  0.00    -0.267 N 
ATOM      7  C   UNL     1       1.097  -0.379   1.454  0.00  0.00    +0.145 A 
ATOM      8  N   UNL     1       1.054   0.126   2.682  0.00  0.00    -0.211 NA
ATOM      9  C   UNL     1       0.565  -0.562   3.718  0.00  0.00    +0.150 A 
ATOM     10  C   UNL     1       0.075  -1.878   3.499  0.00  0.00    +0.083 A 
ATOM     11  C   UNL     1       0.118  -2.418   2.139  0.00  0.00    +0.268 A 
ATOM     12  O   UNL     1      -0.288  -3.540   1.895  0.00  0.00    -0.267 OA
ATOM     13  C   UNL     1      -0.439  -2.612   4.565  0.00  0.00    +0.033 A 
ATOM     14  C   UNL     1      -0.452  -2.014   5.827  0.00  0.00    +0.076 A 
ATOM     15  C   UNL     1       0.052  -0.702   5.973  0.00  0.00    +0.110 A 
ATOM     16  N   UNL     1       0.533  -0.033   4.943  0.00  0.00    -0.313 N 
ENDROOT
BRANCH  14  17
ATOM     17  C   UNL     1      -0.984  -2.741   6.990  0.00  0.00    +0.253 C 
ATOM     18  O   UNL     1      -0.902  -2.253   8.101  0.00  0.00    -0.270 OA
ATOM     19  N   UNL     1      -1.561  -3.947   6.824  0.00  0.00    -0.261 N 
ATOM     20  C   UNL     1      -2.063  -4.634   7.922  0.00  0.00    +0.165 A 
ATOM     21  N   UNL     1      -2.069  -4.264   9.185  0.00  0.00    -0.233 NA
ATOM     22  C   UNL     1      -2.589  -5.038  10.120  0.00  0.00    +0.120 A 
ATOM     23  C   UNL     1      -3.113  -6.222   9.719  0.00  0.00    +0.068 A 
ATOM     24  S   UNL     1      -2.818  -6.138   7.960  0.00  0.00    -0.061 S 
ATOM     25  H   UNL     1      -1.626  -4.336   5.938  0.00  0.00    +0.157 HD
ENDBRANCH  14  17
BRANCH  15  26
ATOM     26  N   UNL     1       0.041  -0.109   7.219  0.00  0.00    -0.344 N 
ATOM     27  H   UNL     1       0.119  -0.655   8.016  0.00  0.00    +0.144 HD
ATOM     28  H   UNL     1      -0.043   0.854   7.296  0.00  0.00    +0.144 HD
ENDBRANCH  15  26
BRANCH  16  29
ATOM     29  C   UNL     1       1.044   1.325   5.148  0.00  0.00    +0.129 C 
BRANCH  29  30
ATOM     30  C   UNL     1      -0.092   2.332   4.953  0.00  0.00    +0.057 C 
BRANCH  30  31
ATOM     31  C   UNL     1       0.434   3.729   5.164  0.00  0.00    -0.045 A 
ATOM     32  C   UNL     1       0.413   4.290   6.428  0.00  0.00    +0.007 A 
ATOM     33  C   UNL     1       0.894   5.571   6.624  0.00  0.00    +0.046 A 
ATOM     34  C   UNL     1       1.399   6.292   5.552  0.00  0.00    +0.120 A 
ATOM     35  C   UNL     1       1.419   5.726   4.285  0.00  0.00    +0.046 A 
ATOM     36  C   UNL     1       0.942   4.444   4.096  0.00  0.00    +0.007 A 
BRANCH  34  37
ATOM     37  O   UNL     1       1.872   7.552   5.742  0.00  0.00    -0.495 OA
ATOM     38  C   UNL     1       2.376   8.236   4.593  0.00  0.00    +0.277 C 
ENDBRANCH  34  37
ENDBRANCH  30  31
ENDBRANCH  29  30
ENDBRANCH  16  29
TORSDOF 6
