REMARK  Name = ZINC00238482
REMARK  10 active torsions:
REMARK  status: ('A' for Active; 'I' for Inactive)
REMARK    1  A    between atoms: C_1  and  C_2
REMARK    2  A    between atoms: C_2  and  C_3
REMARK    3  A    between atoms: C_5  and  C_12
REMARK    4  A    between atoms: C_6  and  O_11
REMARK    5  A    between atoms: C_8  and  O_9
REMARK    6  A    between atoms: O_9  and  C_10
REMARK    7  A    between atoms: C_13  and  C_18
REMARK    8  A    between atoms: C_14  and  C_17
REMARK    9  A    between atoms: C_21  and  O_24
REMARK   10  A    between atoms: O_24  and  C_25
REMARK                            x       y       z     vdW  Elec       q    Type
REMARK                         _______ _______ _______ _____ _____    ______ ____
ROOT
ATOM      1  C   UNL     1      -3.931  -1.822   2.484  0.00  0.00    +0.179 A 
ATOM      2  C   UNL     1      -5.276  -2.096   2.669  0.00  0.00    +0.052 A 
ATOM      3  C   UNL     1      -5.497  -2.209   4.059  0.00  0.00    +0.089 A 
ATOM      4  N   UNL     1      -4.364  -2.016   4.670  0.00  0.00    -0.082 NA
ATOM      5  O   UNL     1      -3.360  -1.776   3.703  0.00  0.00    -0.354 OA
ATOM      6  C   UNL     1      -6.819  -2.503   4.721  0.00  0.00    +0.070 C 
ENDROOT
BRANCH   1   9
ATOM      7  C   UNL     1      -2.826  -2.328  -1.064  0.00  0.00    -0.005 A 
ATOM      8  C   UNL     1      -3.464  -2.518   0.142  0.00  0.00    +0.022 A 
ATOM      9  C   UNL     1      -3.250  -1.623   1.193  0.00  0.00    +0.062 A 
ATOM     10  C   UNL     1      -2.385  -0.533   1.013  0.00  0.00    +0.131 A 
ATOM     11  C   UNL     1      -1.750  -0.353  -0.202  0.00  0.00    +0.092 A 
ATOM     12  C   UNL     1      -1.964  -1.251  -1.238  0.00  0.00    +0.127 A 
BRANCH   7  14
ATOM     13  C   UNL     1      -1.959  -4.360  -2.191  0.00  0.00    +0.009 C 
ATOM     14  C   UNL     1      -3.057  -3.295  -2.197  0.00  0.00    +0.035 C 
ENDBRANCH   7  14
BRANCH  12  15
ATOM     15  O   UNL     1      -1.335  -1.074  -2.428  0.00  0.00    -0.495 OA
ATOM     16  C   UNL     1      -0.463   0.052  -2.540  0.00  0.00    +0.277 C 
ENDBRANCH  12  15
BRANCH  10  17
ATOM     17  O   UNL     1      -2.172   0.342   2.029  0.00  0.00    -0.506 OA
ATOM     18  H   UNL     1      -1.387   0.146   2.559  0.00  0.00    +0.292 HD
ENDBRANCH  10  17
ENDBRANCH   1   9
BRANCH   2  19
ATOM     19  C   UNL     1      -6.295  -2.244   1.603  0.00  0.00    -0.012 A 
ATOM     20  C   UNL     1      -6.651  -1.147   0.820  0.00  0.00    +0.012 A 
ATOM     21  C   UNL     1      -7.600  -1.288  -0.171  0.00  0.00    +0.046 A 
ATOM     22  C   UNL     1      -8.201  -2.521  -0.389  0.00  0.00    +0.120 A 
ATOM     23  C   UNL     1      -7.849  -3.615   0.390  0.00  0.00    +0.046 A 
ATOM     24  C   UNL     1      -6.896  -3.482   1.378  0.00  0.00    +0.012 A 
BRANCH  22  25
ATOM     25  O   UNL     1      -9.136  -2.656  -1.366  0.00  0.00    -0.495 OA
ATOM     26  C   UNL     1      -9.713  -3.952  -1.536  0.00  0.00    +0.277 C 
ENDBRANCH  22  25
ENDBRANCH   2  19
TORSDOF 6
