REMARK  Name = ZINC37912791
REMARK  6 active torsions:
REMARK  status: ('A' for Active; 'I' for Inactive)
REMARK    1  A    between atoms: C_1  and  C_2
REMARK    2  A    between atoms: C_2  and  C_3
REMARK    3  A    between atoms: N_8  and  S_9
REMARK    4  A    between atoms: S_9  and  C_12
REMARK    5  A    between atoms: C_14  and  N_20
REMARK    6  A    between atoms: C_15  and  C_19
REMARK                            x       y       z     vdW  Elec       q    Type
REMARK                         _______ _______ _______ _____ _____    ______ ____
ROOT
ATOM      1  C   UNL     1      -2.071   1.577   2.408  0.00  0.00    +0.109 A 
ATOM      2  C   UNL     1      -2.159   2.357   1.271  0.00  0.00    +0.051 A 
ATOM      3  C   UNL     1      -3.404   2.713   0.768  0.00  0.00    +0.031 A 
ATOM      4  C   UNL     1      -4.558   2.283   1.411  0.00  0.00    -0.011 A 
ATOM      5  C   UNL     1      -4.464   1.503   2.548  0.00  0.00    +0.047 A 
ATOM      6  C   UNL     1      -3.221   1.146   3.042  0.00  0.00    +0.049 A 
ATOM      7 CL   UNL     1      -5.905   0.966   3.352  0.00  0.00    -0.083 Cl
ATOM      8  C   UNL     1      -5.910   2.668   0.869  0.00  0.00    +0.047 C 
ENDROOT
BRANCH   1   9
ATOM      9  S   UNL     1      -0.492   1.125   3.045  0.00  0.00    +0.061 S 
ATOM     10  O   UNL     1      -0.650   0.971   4.449  0.00  0.00    -0.153 OA
ATOM     11  O   UNL     1       0.448   2.027   2.479  0.00  0.00    -0.153 OA
BRANCH   9  16
ATOM     12  C   UNL     1       0.685  -0.645   1.250  0.00  0.00    +0.080 C 
ATOM     13  C   UNL     1       0.774  -2.177   1.090  0.00  0.00    +0.022 C 
ATOM     14  C   UNL     1       0.474  -2.695   2.521  0.00  0.00    +0.019 C 
ATOM     15  C   UNL     1      -0.575  -1.665   3.010  0.00  0.00    +0.110 C 
ATOM     16  N   UNL     1      -0.132  -0.375   2.442  0.00  0.00    -0.174 NA
BRANCH  12  18
ATOM     17  C   UNL     1       0.943  -0.200  -1.195  0.00  0.00    +0.005 C 
ATOM     18  C   UNL     1       0.022  -0.031   0.015  0.00  0.00    +0.017 C 
ENDBRANCH  12  18
ENDBRANCH   9  16
ENDBRANCH   1   9
BRANCH   3  19
ATOM     19  N   UNL     1      -3.495   3.502  -0.381  0.00  0.00    -0.358 N 
ATOM     20  H   UNL     1      -2.688   3.801  -0.829  0.00  0.00    +0.142 HD
ATOM     21  H   UNL     1      -4.365   3.750  -0.731  0.00  0.00    +0.142 HD
ENDBRANCH   3  19
TORSDOF 4
