REMARK  Name = ZINC13640323
REMARK  6 active torsions:
REMARK  status: ('A' for Active; 'I' for Inactive)
REMARK    1  A    between atoms: C_4  and  C_7
REMARK    2  A    between atoms: C_7  and  O_8
REMARK    3  A    between atoms: O_8  and  C_9
REMARK    4  A    between atoms: C_16  and  C_25
REMARK    5  A    between atoms: C_28  and  O_32
REMARK    6  A    between atoms: C_30  and  O_31
REMARK                            x       y       z     vdW  Elec       q    Type
REMARK                         _______ _______ _______ _____ _____    ______ ____
ROOT
ATOM      1  C   UNL     1      -1.580   6.494  -1.592  0.00  0.00    +0.142 A 
ATOM      2  C   UNL     1      -2.952   6.390  -1.713  0.00  0.00    +0.047 A 
ATOM      3  C   UNL     1      -3.604   5.253  -1.271  0.00  0.00    +0.004 A 
ATOM      4  C   UNL     1      -2.877   4.226  -0.700  0.00  0.00    +0.006 A 
ATOM      5  C   UNL     1      -1.507   4.324  -0.567  0.00  0.00    -0.016 A 
ATOM      6  C   UNL     1      -0.832   5.458  -1.021  0.00  0.00    +0.074 A 
ATOM      7  N   UNL     1       0.552   5.628  -0.944  0.00  0.00    -0.334 N 
ATOM      8  C   UNL     1       1.311   4.569  -0.260  0.00  0.00    +0.109 C 
ATOM      9  C   UNL     1       0.681   3.248  -0.649  0.00  0.00    +0.029 C 
ATOM     10  C   UNL     1      -0.708   3.251   0.063  0.00  0.00    +0.049 C 
ATOM     11  C   UNL     1      -1.111   1.824   0.017  0.00  0.00    -0.023 C 
ATOM     12  C   UNL     1      -0.013   1.076   0.008  0.00  0.00    -0.030 C 
ATOM     13  C   UNL     1       1.229   1.972   0.001  0.00  0.00    +0.033 C 
ATOM     14  H   UNL     1       0.785   6.537  -0.573  0.00  0.00    +0.147 HD
ENDROOT
BRANCH   8  15
ATOM     15  C   UNL     1       1.229   4.758   1.233  0.00  0.00    +0.015 A 
ATOM     16  C   UNL     1       0.185   5.478   1.781  0.00  0.00    +0.012 A 
ATOM     17  C   UNL     1       0.107   5.652   3.149  0.00  0.00    +0.046 A 
ATOM     18  C   UNL     1       1.078   5.105   3.977  0.00  0.00    +0.120 A 
ATOM     19  C   UNL     1       2.126   4.383   3.429  0.00  0.00    +0.091 A 
ATOM     20  C   UNL     1       2.200   4.205   2.056  0.00  0.00    +0.125 A 
BRANCH  20  21
ATOM     21  O   UNL     1       3.224   3.492   1.516  0.00  0.00    -0.506 OA
ATOM     22  H   UNL     1       3.999   4.026   1.293  0.00  0.00    +0.292 HD
ENDBRANCH  20  21
BRANCH  18  23
ATOM     23  O   UNL     1       1.000   5.278   5.322  0.00  0.00    -0.507 OA
ATOM     24  H   UNL     1       0.503   4.586   5.780  0.00  0.00    +0.292 HD
ENDBRANCH  18  23
ENDBRANCH   8  15
BRANCH   1  25
ATOM     25  O   UNL     1      -0.950   7.617  -2.032  0.00  0.00    -0.486 OA
BRANCH  25  26
ATOM     26  C   UNL     1      -1.768   8.638  -2.605  0.00  0.00    +0.264 C 
BRANCH  26  30
ATOM     27  C   UNL     1       0.687  11.918  -3.814  0.00  0.00    +0.000 A 
ATOM     28  C   UNL     1       0.424  10.889  -4.699  0.00  0.00    +0.000 A 
ATOM     29  C   UNL     1      -0.371   9.827  -4.307  0.00  0.00    +0.007 A 
ATOM     30  C   UNL     1      -0.902   9.795  -3.032  0.00  0.00    -0.010 A 
ATOM     31  C   UNL     1      -0.644  10.827  -2.149  0.00  0.00    +0.007 A 
ATOM     32  C   UNL     1       0.154  11.886  -2.539  0.00  0.00    +0.000 A 
ENDBRANCH  26  30
ENDBRANCH  25  26
ENDBRANCH   1  25
TORSDOF 6
