REMARK  Name = ZINC19374119
REMARK  6 active torsions:
REMARK  status: ('A' for Active; 'I' for Inactive)
REMARK    1  A    between atoms: C_4  and  C_7
REMARK    2  A    between atoms: C_10  and  C_13
REMARK    3  A    between atoms: C_13  and  C_15
REMARK    4  A    between atoms: C_13  and  O_34
REMARK    5  A    between atoms: C_15  and  N_16
REMARK    6  A    between atoms: C_23  and  O_33
REMARK                            x       y       z     vdW  Elec       q    Type
REMARK                         _______ _______ _______ _____ _____    ______ ____
ROOT
ATOM      1  N   UNL     1       7.840  -2.192   1.342  0.00  0.00    +0.382 N 
ATOM      2  C   UNL     1       8.875  -1.398   0.667  0.00  0.00    -0.075 C 
ATOM      3  C   UNL     1      10.154  -2.229   0.539  0.00  0.00    +0.029 C 
ATOM      4  C   UNL     1      10.628  -2.647   1.932  0.00  0.00    +0.110 C 
ATOM      5  C   UNL     1       9.515  -3.424   2.637  0.00  0.00    +0.029 C 
ATOM      6  C   UNL     1       8.255  -2.558   2.702  0.00  0.00    -0.075 C 
ATOM      7  C   UNL     1      11.871  -3.535   1.804  0.00  0.00    +0.084 C 
ATOM      8  C   UNL     1      12.927  -2.773   1.000  0.00  0.00    +0.152 C 
ATOM      9  C   UNL     1      13.072  -1.376   1.548  0.00  0.00    +0.025 A 
ATOM     10  C   UNL     1      14.207  -0.650   1.229  0.00  0.00    +0.048 A 
ATOM     11  C   UNL     1      14.371   0.636   1.709  0.00  0.00    +0.124 A 
ATOM     12  C   UNL     1      13.396   1.203   2.514  0.00  0.00    +0.042 A 
ATOM     13  C   UNL     1      12.264   0.482   2.834  0.00  0.00    +0.049 A 
ATOM     14  C   UNL     1      12.097  -0.812   2.353  0.00  0.00    +0.127 A 
ATOM     15  O   UNL     1      10.970  -1.490   2.694  0.00  0.00    -0.485 OA
ATOM     16  F   UNL     1      15.480   1.340   1.393  0.00  0.00    -0.205 F 
ATOM     17  H   UNL     1       7.706  -3.122   0.771  0.00  0.00    -0.082 HD
ENDROOT
BRANCH   8  18
ATOM     18  O   UNL     1      14.180  -3.454   1.096  0.00  0.00    -0.387 OA
ATOM     19  H   UNL     1      15.065  -3.053   0.580  0.00  0.00    +0.210 HD
ENDBRANCH   8  18
BRANCH   1  20
ATOM     20  C   UNL     1       6.556  -1.479   1.357  0.00  0.00    -0.042 C 
BRANCH  20  21
ATOM     21  C   UNL     1       6.205  -1.030  -0.063  0.00  0.00    +0.128 C 
BRANCH  21  25
ATOM     22  C   UNL     1       2.427   0.971  -0.033  0.00  0.00    -0.018 A 
ATOM     23  C   UNL     1       2.481  -0.422  -0.016  0.00  0.00    +0.009 A 
ATOM     24  C   UNL     1       3.703  -1.062  -0.032  0.00  0.00    +0.007 A 
ATOM     25  C   UNL     1       4.873  -0.325  -0.052  0.00  0.00    -0.021 A 
ATOM     26  C   UNL     1       4.825   1.057  -0.063  0.00  0.00    +0.007 A 
ATOM     27  C   UNL     1       3.608   1.708  -0.054  0.00  0.00    +0.009 A 
BRANCH  22  31
ATOM     28  C   UNL     1      -1.331   2.961  -0.002  0.00  0.00    +0.000 A 
ATOM     29  C   UNL     1      -1.283   1.578   0.003  0.00  0.00    +0.001 A 
ATOM     30  C   UNL     1      -0.067   0.927  -0.002  0.00  0.00    +0.008 A 
ATOM     31  C   UNL     1       1.115   1.665  -0.022  0.00  0.00    -0.018 A 
ATOM     32  C   UNL     1       1.061   3.057  -0.033  0.00  0.00    +0.008 A 
ATOM     33  C   UNL     1      -0.161   3.698  -0.023  0.00  0.00    +0.001 A 
ENDBRANCH  22  31
ENDBRANCH  21  25
BRANCH  21  34
ATOM     34  O   UNL     1       6.132  -2.173  -0.919  0.00  0.00    -0.389 OA
ATOM     35  H   UNL     1       7.014  -2.816  -1.054  0.00  0.00    +0.210 HD
ENDBRANCH  21  34
ENDBRANCH  20  21
ENDBRANCH   1  20
TORSDOF 6
