REMARK  Name = ZINC39664455
REMARK  8 active torsions:
REMARK  status: ('A' for Active; 'I' for Inactive)
REMARK    1  A    between atoms: C_1  and  C_2
REMARK    2  A    between atoms: C_5  and  C_9
REMARK    3  A    between atoms: C_6  and  C_8
REMARK    4  A    between atoms: C_13  and  C_22
REMARK    5  A    between atoms: N_24  and  C_25
REMARK    6  A    between atoms: C_25  and  C_26
REMARK    7  A    between atoms: C_26  and  C_28
REMARK    8  A    between atoms: C_26  and  N_34
REMARK                            x       y       z     vdW  Elec       q    Type
REMARK                         _______ _______ _______ _____ _____    ______ ____
ROOT
ATOM      1  C   UNL     1       0.923  -5.885   0.415  0.00  0.00    +0.247 C 
ATOM      2  O   UNL     1       1.345  -6.529   1.355  0.00  0.00    -0.270 OA
ATOM      3  N   UNL     1       0.784  -6.467  -0.793  0.00  0.00    -0.296 N 
ATOM      4  C   UNL     1       0.394  -5.825  -2.070  0.00  0.00    +0.121 C 
ATOM      5  C   UNL     1       1.289  -6.500  -3.135  0.00  0.00    +0.100 C 
ATOM      6  C   UNL     1       1.674  -7.856  -2.521  0.00  0.00    -0.004 C 
ATOM      7  C   UNL     1       0.995  -7.892  -1.145  0.00  0.00    +0.115 C 
ATOM      8  C   UNL     1       1.160  -8.996  -3.395  0.00  0.00    -0.010 C 
ATOM      9  C   UNL     1       1.605 -10.333  -2.796  0.00  0.00    -0.082 C 
ATOM     10  N   UNL     1       3.070 -10.373  -2.717  0.00  0.00    +0.379 N 
ATOM     11  C   UNL     1       3.551  -9.331  -1.802  0.00  0.00    -0.082 C 
ATOM     12  C   UNL     1       3.188  -7.952  -2.359  0.00  0.00    -0.010 C 
ATOM     13  H   UNL     1       3.363 -11.277  -2.380  0.00  0.00    -0.086 HD
ATOM     14  H   UNL     1       3.459 -10.218  -3.635  0.00  0.00    -0.086 HD
ENDROOT
BRANCH   1  19
ATOM     15  C   UNL     1      -0.491  -0.352   1.122  0.00  0.00    +0.044 C 
ATOM     16  C   UNL     1      -0.121  -1.801   0.937  0.00  0.00    -0.050 A 
ATOM     17  C   UNL     1       0.721  -2.170  -0.098  0.00  0.00    +0.004 A 
ATOM     18  C   UNL     1       1.064  -3.495  -0.272  0.00  0.00    +0.013 A 
ATOM     19  C   UNL     1       0.560  -4.464   0.597  0.00  0.00    +0.040 A 
ATOM     20  C   UNL     1      -0.289  -4.085   1.638  0.00  0.00    -0.038 A 
ATOM     21  C   UNL     1      -0.620  -2.756   1.805  0.00  0.00    +0.007 A 
ATOM     22  C   UNL     1      -0.838  -5.124   2.581  0.00  0.00    +0.044 C 
ENDBRANCH   1  19
BRANCH   5  23
ATOM     23  C   UNL     1       0.521  -6.699  -4.416  0.00  0.00    +0.218 C 
ATOM     24  O   UNL     1      -0.670  -6.925  -4.380  0.00  0.00    -0.275 OA
ATOM     25  N   UNL     1       1.157  -6.627  -5.601  0.00  0.00    -0.313 N 
ATOM     26  H   UNL     1       2.110  -6.446  -5.630  0.00  0.00    +0.149 HD
BRANCH  25  27
ATOM     27  C   UNL     1       0.411  -6.821  -6.847  0.00  0.00    +0.127 C 
BRANCH  27  28
ATOM     28  C   UNL     1       1.362  -6.689  -8.038  0.00  0.00    +0.104 C 
BRANCH  28  29
ATOM     29  C   UNL     1       0.575  -6.766  -9.320  0.00  0.00    -0.029 A 
ATOM     30  C   UNL     1       1.015  -7.572 -10.354  0.00  0.00    +0.005 A 
ATOM     31  C   UNL     1       0.293  -7.643 -11.531  0.00  0.00    +0.000 A 
ATOM     32  C   UNL     1      -0.870  -6.908 -11.674  0.00  0.00    +0.000 A 
ATOM     33  C   UNL     1      -1.310  -6.103 -10.640  0.00  0.00    +0.000 A 
ATOM     34  C   UNL     1      -0.590  -6.036  -9.461  0.00  0.00    +0.005 A 
ENDBRANCH  28  29
BRANCH  28  35
ATOM     35  N   UNL     1       2.058  -5.397  -7.968  0.00  0.00    -0.290 NA
ATOM     36  C   UNL     1       1.110  -4.280  -8.090  0.00  0.00    +0.113 C 
ATOM     37  C   UNL     1       1.868  -2.957  -7.952  0.00  0.00    +0.175 C 
ATOM     38  O   UNL     1       2.902  -2.901  -8.939  0.00  0.00    -0.377 OA
ATOM     39  C   UNL     1       3.843  -3.973  -8.848  0.00  0.00    +0.175 C 
ATOM     40  C   UNL     1       3.105  -5.307  -8.995  0.00  0.00    +0.113 C 
ENDBRANCH  28  35
ENDBRANCH  27  28
ENDBRANCH  25  27
ENDBRANCH   5  23
TORSDOF 6
