REMARK  Name = ZINC36492616
REMARK  10 active torsions:
REMARK  status: ('A' for Active; 'I' for Inactive)
REMARK    1  A    between atoms: C_3  and  N_36
REMARK    2  A    between atoms: C_6  and  C_7
REMARK    3  A    between atoms: N_9  and  C_10
REMARK    4  A    between atoms: N_9  and  C_16
REMARK    5  A    between atoms: C_16  and  C_18
REMARK    6  A    between atoms: C_16  and  C_27
REMARK    7  A    between atoms: C_19  and  O_26
REMARK    8  A    between atoms: C_21  and  O_25
REMARK    9  A    between atoms: C_23  and  O_24
REMARK   10  A    between atoms: N_29  and  C_30
REMARK                            x       y       z     vdW  Elec       q    Type
REMARK                         _______ _______ _______ _____ _____    ______ ____
ROOT
ATOM      1  C   UNL     1      -2.597  -2.681  -0.018  0.00  0.00    +0.200 C 
ENDROOT
BRANCH   1   2
ATOM      2  C   UNL     1      -2.244  -3.588  -1.168  0.00  0.00    +0.065 A 
ATOM      3  C   UNL     1      -2.383  -4.961  -1.036  0.00  0.00    +0.129 A 
ATOM      4  C   UNL     1      -2.058  -5.796  -2.095  0.00  0.00    +0.091 A 
ATOM      5  C   UNL     1      -1.596  -5.258  -3.286  0.00  0.00    +0.124 A 
ATOM      6  C   UNL     1      -1.458  -3.884  -3.418  0.00  0.00    +0.091 A 
ATOM      7  C   UNL     1      -1.787  -3.049  -2.361  0.00  0.00    +0.129 A 
BRANCH   7   8
ATOM      8  O   UNL     1      -1.657  -1.703  -2.493  0.00  0.00    -0.506 OA
ATOM      9  H   UNL     1      -0.788  -1.364  -2.236  0.00  0.00    +0.292 HD
ENDBRANCH   7   8
BRANCH   5  10
ATOM     10  O   UNL     1      -1.277  -6.076  -4.323  0.00  0.00    -0.507 OA
ATOM     11  H   UNL     1      -2.014  -6.258  -4.921  0.00  0.00    +0.292 HD
ENDBRANCH   5  10
BRANCH   3  12
ATOM     12  O   UNL     1      -2.836  -5.489   0.132  0.00  0.00    -0.506 OA
ATOM     13  H   UNL     1      -3.791  -5.637   0.152  0.00  0.00    +0.292 HD
ENDBRANCH   3  12
ENDBRANCH   1   2
BRANCH   1  14
ATOM     14  C   UNL     1      -2.812  -3.506   1.225  0.00  0.00    +0.239 C 
ATOM     15  O   UNL     1      -1.944  -3.568   2.069  0.00  0.00    -0.273 OA
ATOM     16  N   UNL     1      -3.969  -4.174   1.398  0.00  0.00    -0.311 N 
ATOM     17  H   UNL     1      -4.632  -4.188   0.690  0.00  0.00    +0.149 HD
BRANCH  16  18
ATOM     18  C   UNL     1      -4.226  -4.881   2.655  0.00  0.00    +0.073 C 
ATOM     19  C   UNL     1      -3.599  -6.276   2.593  0.00  0.00    +0.022 C 
ATOM     20  C   UNL     1      -3.867  -7.014   3.906  0.00  0.00    +0.002 C 
ATOM     21  C   UNL     1      -5.377  -7.142   4.121  0.00  0.00    +0.000 C 
ATOM     22  C   UNL     1      -6.003  -5.748   4.183  0.00  0.00    +0.002 C 
ATOM     23  C   UNL     1      -5.735  -5.009   2.869  0.00  0.00    +0.022 C 
ENDBRANCH  16  18
ENDBRANCH   1  14
BRANCH   1  26
ATOM     24  C   UNL     1      -1.735  -0.406   0.133  0.00  0.00    +0.248 C 
ATOM     25  O   UNL     1      -2.877   0.010   0.097  0.00  0.00    -0.270 OA
ATOM     26  N   UNL     1      -1.504  -1.732   0.209  0.00  0.00    -0.279 N 
BRANCH  24  32
ATOM     27  C   UNL     1      -0.771   1.816  -0.449  0.00  0.00    +0.015 A 
ATOM     28  C   UNL     1       0.292   2.695  -0.481  0.00  0.00    +0.033 A 
ATOM     29  C   UNL     1       1.523   2.316   0.024  0.00  0.00    +0.126 A 
ATOM     30  C   UNL     1       1.698   1.055   0.564  0.00  0.00    +0.033 A 
ATOM     31  C   UNL     1       0.644   0.165   0.602  0.00  0.00    +0.015 A 
ATOM     32  C   UNL     1      -0.601   0.541   0.095  0.00  0.00    +0.037 A 
BRANCH  29  33
ATOM     33  N   UNL     1       2.659   3.265  -0.015  0.00  0.00    +0.056 N 
ATOM     34  O   UNL     1       2.509   4.368  -0.486  0.00  0.00    -0.126 OA
ATOM     35  O   UNL     1       3.736   2.937   0.426  0.00  0.00    -0.126 OA
ENDBRANCH  29  33
ENDBRANCH  24  32
BRANCH  26  36
ATOM     36  C   UNL     1      -0.159  -2.224   0.518  0.00  0.00    +0.077 C 
ATOM     37  C   UNL     1      -0.034  -3.681   0.069  0.00  0.00    +0.022 C 
ATOM     38  C   UNL     1       1.371  -4.196   0.391  0.00  0.00    +0.002 C 
ATOM     39  C   UNL     1       1.614  -4.104   1.899  0.00  0.00    +0.000 C 
ATOM     40  C   UNL     1       1.489  -2.646   2.348  0.00  0.00    +0.002 C 
ATOM     41  C   UNL     1       0.084  -2.132   2.025  0.00  0.00    +0.022 C 
ENDBRANCH  26  36
ENDBRANCH   1  26
TORSDOF 10
