REMARK  Name = ZINC39675829
REMARK  10 active torsions:
REMARK  status: ('A' for Active; 'I' for Inactive)
REMARK    1  A    between atoms: C_1  and  N_2
REMARK    2  A    between atoms: N_2  and  C_3
REMARK    3  A    between atoms: N_2  and  C_4
REMARK    4  A    between atoms: C_4  and  C_6
REMARK    5  A    between atoms: C_4  and  C_36
REMARK    6  A    between atoms: C_6  and  N_7
REMARK    7  A    between atoms: C_8  and  C_10
REMARK    8  A    between atoms: C_21  and  C_23
REMARK    9  A    between atoms: C_28  and  O_29
REMARK   10  A    between atoms: O_29  and  C_30
REMARK                            x       y       z     vdW  Elec       q    Type
REMARK                         _______ _______ _______ _____ _____    ______ ____
ROOT
ATOM      1  C   UNL     1       0.089  -4.050   1.452  0.00  0.00    +0.100 C 
ATOM      2  C   UNL     1      -0.445  -3.522   2.802  0.00  0.00    +0.121 C 
ATOM      3  N   UNL     1      -1.101  -4.694   3.429  0.00  0.00    -0.296 N 
ATOM      4  C   UNL     1      -0.210  -5.833   3.102  0.00  0.00    +0.115 C 
ATOM      5  C   UNL     1       0.245  -5.566   1.654  0.00  0.00    -0.004 C 
ATOM      6  C   UNL     1      -0.646  -6.324   0.674  0.00  0.00    -0.010 C 
ATOM      7  C   UNL     1      -0.431  -7.829   0.856  0.00  0.00    -0.082 C 
ATOM      8  N   UNL     1       0.980  -8.156   0.619  0.00  0.00    +0.379 N 
ATOM      9  C   UNL     1       1.823  -7.496   1.623  0.00  0.00    -0.082 C 
ATOM     10  C   UNL     1       1.703  -5.977   1.474  0.00  0.00    -0.010 C 
ATOM     11  C   UNL     1      -2.248  -4.718   4.137  0.00  0.00    +0.252 C 
ATOM     12  O   UNL     1      -2.608  -5.747   4.675  0.00  0.00    -0.270 OA
ATOM     13  H   UNL     1       1.107  -9.155   0.679  0.00  0.00    -0.086 HD
ATOM     14  H   UNL     1       1.247  -7.841  -0.302  0.00  0.00    -0.086 HD
ENDROOT
BRANCH  11  15
ATOM     15  C   UNL     1      -3.065  -3.496   4.258  0.00  0.00    +0.099 A 
ATOM     16  C   UNL     1      -2.458  -2.239   4.354  0.00  0.00    +0.020 A 
ATOM     17  C   UNL     1      -3.270  -1.124   4.465  0.00  0.00    +0.021 A 
ATOM     18  C   UNL     1      -4.644  -1.282   4.478  0.00  0.00    +0.114 A 
ATOM     19  N   UNL     1      -5.196  -2.476   4.386  0.00  0.00    -0.220 NA
ATOM     20  C   UNL     1      -4.466  -3.573   4.273  0.00  0.00    +0.233 A 
BRANCH  20  21
ATOM     21  O   UNL     1      -5.075  -4.779   4.176  0.00  0.00    -0.437 OA
BRANCH  21  22
ATOM     22  C   UNL     1      -6.431  -4.804   4.085  0.00  0.00    +0.130 A 
ATOM     23  C   UNL     1      -7.194  -5.165   5.186  0.00  0.00    +0.046 A 
ATOM     24  C   UNL     1      -8.572  -5.189   5.091  0.00  0.00    +0.004 A 
ATOM     25  C   UNL     1      -9.191  -4.853   3.901  0.00  0.00    +0.000 A 
ATOM     26  C   UNL     1      -8.432  -4.493   2.802  0.00  0.00    +0.004 A 
ATOM     27  C   UNL     1      -7.054  -4.462   2.893  0.00  0.00    +0.046 A 
ENDBRANCH  21  22
ENDBRANCH  20  21
ENDBRANCH  11  15
BRANCH   1  29
ATOM     28  N   UNL     1      -0.486  -3.728  -0.932  0.00  0.00    -0.316 N 
ATOM     29  C   UNL     1      -0.899  -3.766   0.350  0.00  0.00    +0.218 C 
ATOM     30  O   UNL     1      -2.066  -3.571   0.617  0.00  0.00    -0.275 OA
ATOM     31  H   UNL     1       0.447  -3.884  -1.146  0.00  0.00    +0.149 HD
BRANCH  28  32
ATOM     32  C   UNL     1      -1.447  -3.453  -2.003  0.00  0.00    +0.093 C 
BRANCH  32  33
ATOM     33  C   UNL     1      -0.707  -3.355  -3.339  0.00  0.00    -0.021 C 
BRANCH  33  34
ATOM     34  C   UNL     1      -0.137  -4.703  -3.698  0.00  0.00    -0.059 A 
ATOM     35  C   UNL     1       1.038  -5.135  -3.112  0.00  0.00    +0.002 A 
ATOM     36  C   UNL     1       1.561  -6.371  -3.441  0.00  0.00    +0.000 A 
ATOM     37  C   UNL     1       0.908  -7.177  -4.355  0.00  0.00    +0.000 A 
ATOM     38  C   UNL     1      -0.268  -6.745  -4.940  0.00  0.00    +0.000 A 
ATOM     39  C   UNL     1      -0.793  -5.511  -4.608  0.00  0.00    +0.002 A 
ENDBRANCH  33  34
BRANCH  33  41
ATOM     40  C   UNL     1       1.041  -2.223  -4.529  0.00  0.00    -0.096 C 
ATOM     41  N   UNL     1       0.383  -2.377  -3.225  0.00  0.00    +0.382 N 
ATOM     42  C   UNL     1      -0.163  -1.082  -2.796  0.00  0.00    -0.096 C 
ATOM     43  H   UNL     1       1.055  -2.700  -2.545  0.00  0.00    -0.082 HD
ENDBRANCH  33  41
ENDBRANCH  32  33
ENDBRANCH  28  32
ENDBRANCH   1  29
TORSDOF 8
