REMARK  Name = ZINC58423491
REMARK  8 active torsions:
REMARK  status: ('A' for Active; 'I' for Inactive)
REMARK    1  A    between atoms: C_1  and  C_2
REMARK    2  A    between atoms: C_5  and  N_11
REMARK    3  A    between atoms: C_7  and  N_8
REMARK    4  A    between atoms: C_12  and  C_14
REMARK    5  A    between atoms: N_17  and  C_26
REMARK    6  A    between atoms: C_18  and  N_19
REMARK    7  A    between atoms: C_20  and  C_25
REMARK    8  A    between atoms: C_23  and  C_24
REMARK                            x       y       z     vdW  Elec       q    Type
REMARK                         _______ _______ _______ _____ _____    ______ ____
ROOT
ATOM      1  N   UNL     1      -0.303  -3.996   0.366  0.00  0.00    -0.281 N 
ATOM      2  C   UNL     1      -0.573  -4.742  -0.724  0.00  0.00    +0.253 C 
ATOM      3  O   UNL     1      -0.774  -4.202  -1.796  0.00  0.00    -0.270 OA
ATOM      4  H   UNL     1      -0.209  -4.420   1.233  0.00  0.00    +0.155 HD
ENDROOT
BRANCH   1   9
ATOM      5  C   UNL     1       0.281   1.626  -0.121  0.00  0.00    +0.046 C 
ATOM      6  C   UNL     1       0.125   0.132   0.008  0.00  0.00    -0.020 A 
ATOM      7  C   UNL     1       0.894  -0.565   0.922  0.00  0.00    +0.007 A 
ATOM      8  C   UNL     1       0.754  -1.933   1.043  0.00  0.00    +0.024 A 
ATOM      9  C   UNL     1      -0.160  -2.609   0.246  0.00  0.00    +0.036 A 
ATOM     10  C   UNL     1      -0.931  -1.907  -0.671  0.00  0.00    +0.056 A 
ATOM     11  C   UNL     1      -0.789  -0.537  -0.783  0.00  0.00    +0.131 A 
BRANCH  11  12
ATOM     12  N   UNL     1      -1.614   0.214  -1.756  0.00  0.00    +0.057 N 
ATOM     13  O   UNL     1      -2.035   1.311  -1.473  0.00  0.00    -0.126 OA
ATOM     14  O   UNL     1      -1.868  -0.271  -2.835  0.00  0.00    -0.126 OA
ENDBRANCH  11  12
ENDBRANCH   1   9
BRANCH   2  15
ATOM     15  C   UNL     1      -0.624  -6.207  -0.617  0.00  0.00    +0.099 A 
ATOM     16  C   UNL     1      -0.420  -6.972   0.554  0.00  0.00    +0.149 A 
ATOM     17  N   UNL     1      -0.547  -8.232   0.244  0.00  0.00    -0.177 NA
ATOM     18  N   UNL     1      -0.835  -8.341  -1.121  0.00  0.00    -0.250 N 
ATOM     19  C   UNL     1      -0.889  -7.102  -1.647  0.00  0.00    +0.148 A 
ATOM     20  C   UNL     1      -1.050  -9.592  -1.853  0.00  0.00    +0.174 C 
BRANCH  19  21
ATOM     21  N   UNL     1      -1.155  -6.779  -2.973  0.00  0.00    -0.302 N 
ATOM     22  C   UNL     1      -0.224  -6.655  -3.966  0.00  0.00    +0.022 A 
ATOM     23  C   UNL     1      -0.866  -6.334  -5.107  0.00  0.00    +0.023 A 
ATOM     24  C   UNL     1      -2.243  -6.258  -4.812  0.00  0.00    +0.023 A 
ATOM     25  C   UNL     1      -2.393  -6.540  -3.502  0.00  0.00    +0.022 A 
ATOM     26  C   UNL     1      -3.698  -6.580  -2.751  0.00  0.00    +0.064 C 
ATOM     27  C   UNL     1       1.264  -6.842  -3.812  0.00  0.00    +0.064 C 
ENDBRANCH  19  21
ENDBRANCH   2  15
TORSDOF 4
