REMARK  Name = ZINC55844326
REMARK  8 active torsions:
REMARK  status: ('A' for Active; 'I' for Inactive)
REMARK    1  A    between atoms: C_1  and  C_2
REMARK    2  A    between atoms: C_4  and  C_8
REMARK    3  A    between atoms: C_5  and  C_7
REMARK    4  A    between atoms: N_10  and  C_11
REMARK    5  A    between atoms: C_11  and  C_12
REMARK    6  A    between atoms: N_14  and  C_15
REMARK    7  A    between atoms: C_18  and  N_21
REMARK    8  A    between atoms: N_24  and  C_25
REMARK                            x       y       z     vdW  Elec       q    Type
REMARK                         _______ _______ _______ _____ _____    ______ ____
ROOT
ATOM      1  C   UNL     1      -4.964  -4.219   0.023  0.00  0.00    +0.234 C 
ATOM      2  O   UNL     1      -5.323  -3.061   0.044  0.00  0.00    -0.274 OA
ATOM      3  N   UNL     1      -5.880  -5.208   0.011  0.00  0.00    -0.284 N 
ATOM      4  H   UNL     1      -5.595  -6.132  -0.073  0.00  0.00    +0.155 HD
ENDROOT
BRANCH   3   5
ATOM      5  C   UNL     1      -7.242  -4.902   0.122  0.00  0.00    +0.034 A 
ATOM      6  C   UNL     1      -8.091  -5.755   0.816  0.00  0.00    +0.025 A 
ATOM      7  C   UNL     1      -9.434  -5.453   0.925  0.00  0.00    +0.025 A 
ATOM      8  C   UNL     1      -9.936  -4.298   0.341  0.00  0.00    +0.035 A 
ATOM      9  C   UNL     1      -9.087  -3.446  -0.353  0.00  0.00    +0.025 A 
ATOM     10  C   UNL     1      -7.743  -3.744  -0.457  0.00  0.00    +0.025 A 
BRANCH   8  11
ATOM     11  N   UNL     1     -11.299  -3.992   0.451  0.00  0.00    -0.269 N 
ATOM     12  C   UNL     1     -11.938  -3.387  -0.569  0.00  0.00    +0.304 C 
ATOM     13  O   UNL     1     -11.316  -3.031  -1.551  0.00  0.00    -0.253 OA
ATOM     14  N   UNL     1     -13.268  -3.177  -0.501  0.00  0.00    -0.296 N 
ATOM     15  H   UNL     1     -11.782  -4.216   1.262  0.00  0.00    +0.156 HD
ATOM     16  H   UNL     1     -13.764  -3.461   0.282  0.00  0.00    +0.151 HD
BRANCH  14  17
ATOM     17  C   UNL     1     -13.963  -2.519  -1.611  0.00  0.00    +0.075 C 
ATOM     18  C   UNL     1     -14.996  -1.447  -1.260  0.00  0.00    +0.024 C 
ATOM     19  C   UNL     1     -15.456  -2.810  -1.780  0.00  0.00    +0.024 C 
ENDBRANCH  14  17
ENDBRANCH   8  11
ENDBRANCH   3   5
BRANCH   1  20
ATOM     20  C   UNL     1      -3.494  -4.553   0.009  0.00  0.00    +0.200 C 
BRANCH  20  23
ATOM     21  C   UNL     1      -1.365  -3.368   0.016  0.00  0.00    +0.248 C 
ATOM     22  O   UNL     1      -0.800  -4.444  -0.005  0.00  0.00    -0.270 OA
ATOM     23  N   UNL     1      -2.712  -3.314   0.025  0.00  0.00    -0.303 N 
ATOM     24  H   UNL     1      -3.163  -2.456   0.041  0.00  0.00    +0.150 HD
BRANCH  21  28
ATOM     25  C   UNL     1      -0.043   1.560   0.090  0.00  0.00    +0.086 C 
ATOM     26  C   UNL     1      -0.016   0.053   0.065  0.00  0.00    +0.103 A 
ATOM     27  C   UNL     1      -1.094  -0.745   0.058  0.00  0.00    +0.057 A 
ATOM     28  C   UNL     1      -0.579  -2.122   0.032  0.00  0.00    +0.077 A 
ATOM     29  C   UNL     1       0.780  -2.004   0.025  0.00  0.00    +0.114 A 
ATOM     30  O   UNL     1       1.092  -0.705   0.040  0.00  0.00    -0.464 OA
ATOM     31  C   UNL     1       1.764  -3.146   0.000  0.00  0.00    +0.087 C 
ENDBRANCH  21  28
ENDBRANCH  20  23
ENDBRANCH   1  20
TORSDOF 6
