REMARK  Name = ZINC38547552
REMARK  11 active torsions:
REMARK  status: ('A' for Active; 'I' for Inactive)
REMARK    1  A    between atoms: C_1  and  C_2
REMARK    2  A    between atoms: C_6  and  N_8
REMARK    3  A    between atoms: N_8  and  C_9
REMARK    4  A    between atoms: C_9  and  C_11
REMARK    5  A    between atoms: C_9  and  C_19
REMARK    6  A    between atoms: C_15  and  O_17
REMARK    7  A    between atoms: O_17  and  C_18
REMARK    8  A    between atoms: C_20  and  C_33
REMARK    9  A    between atoms: C_21  and  C_32
REMARK   10  A    between atoms: C_23  and  N_24
REMARK   11  A    between atoms: C_25  and  C_27
REMARK                            x       y       z     vdW  Elec       q    Type
REMARK                         _______ _______ _______ _____ _____    ______ ____
ROOT
ATOM      1  C   UNL     1       0.049  -4.117   2.476  0.00  0.00    +0.135 C 
ENDROOT
BRANCH   1   2
ATOM      2  C   UNL     1       0.766  -4.666   3.682  0.00  0.00    +0.009 A 
ATOM      3  C   UNL     1       1.767  -5.609   3.537  0.00  0.00    -0.033 A 
ATOM      4  C   UNL     1       2.392  -6.081   4.643  0.00  0.00    -0.008 A 
ATOM      5  S   UNL     1       1.567  -5.187   5.949  0.00  0.00    -0.078 S 
ATOM      6  C   UNL     1       0.444  -4.238   4.935  0.00  0.00    +0.078 A 
ATOM      7  C   UNL     1       3.499  -7.099   4.744  0.00  0.00    +0.052 C 
ATOM      8  C   UNL     1       2.157  -6.105   2.169  0.00  0.00    +0.045 C 
BRANCH   6   9
ATOM      9  N   UNL     1      -0.515  -3.301   5.325  0.00  0.00    -0.273 N 
ATOM     10  C   UNL     1      -0.760  -3.092   6.634  0.00  0.00    +0.284 C 
ATOM     11  O   UNL     1      -0.144  -3.720   7.476  0.00  0.00    -0.266 OA
ATOM     12  H   UNL     1      -1.005  -2.801   4.654  0.00  0.00    +0.156 HD
BRANCH  10  13
ATOM     13  C   UNL     1      -1.767  -2.109   7.044  0.00  0.00    +0.189 A 
ATOM     14  C   UNL     1      -2.108  -1.797   8.329  0.00  0.00    +0.054 A 
ATOM     15  C   UNL     1      -3.106  -0.813   8.254  0.00  0.00    +0.042 A 
ATOM     16  C   UNL     1      -3.328  -0.570   6.943  0.00  0.00    +0.196 A 
ATOM     17  O   UNL     1      -2.515  -1.349   6.217  0.00  0.00    -0.458 OA
ENDBRANCH  10  13
ENDBRANCH   6   9
ENDBRANCH   1   2
BRANCH   1  18
ATOM     18  C   UNL     1      -1.341  -4.698   2.411  0.00  0.00    -0.019 A 
ATOM     19  C   UNL     1      -2.388  -4.056   3.046  0.00  0.00    +0.006 A 
ATOM     20  C   UNL     1      -3.664  -4.586   2.989  0.00  0.00    +0.004 A 
ATOM     21  C   UNL     1      -3.895  -5.759   2.296  0.00  0.00    +0.045 A 
ATOM     22  C   UNL     1      -2.846  -6.404   1.657  0.00  0.00    +0.120 A 
ATOM     23  C   UNL     1      -1.568  -5.867   1.712  0.00  0.00    +0.051 A 
BRANCH  22  24
ATOM     24  O   UNL     1      -3.071  -7.558   0.975  0.00  0.00    -0.495 OA
ATOM     25  C   UNL     1      -4.413  -8.049   0.957  0.00  0.00    +0.277 C 
ENDBRANCH  22  24
ENDBRANCH   1  18
BRANCH   1  26
ATOM     26  N   UNL     1      -0.036  -2.659   2.580  0.00  0.00    -0.320 N 
ATOM     27  H   UNL     1       0.090  -2.225   3.438  0.00  0.00    +0.148 HD
BRANCH  26  33
ATOM     28  C   UNL     1      -0.695   1.680   0.666  0.00  0.00    +0.063 C 
ATOM     29  C   UNL     1      -0.619   0.184   0.499  0.00  0.00    +0.014 A 
ATOM     30  C   UNL     1      -0.808  -0.372  -0.750  0.00  0.00    +0.021 A 
ATOM     31  C   UNL     1      -0.737  -1.751  -0.899  0.00  0.00    +0.005 A 
ATOM     32  C   UNL     1      -0.477  -2.523   0.220  0.00  0.00    +0.041 A 
ATOM     33  C   UNL     1      -0.297  -1.895   1.448  0.00  0.00    +0.097 A 
ATOM     34  N   UNL     1      -0.367  -0.576   1.548  0.00  0.00    -0.347 N 
ATOM     35  H   UNL     1      -0.235  -0.160   2.413  0.00  0.00    +0.167 HD
ENDBRANCH  26  33
ENDBRANCH   1  26
TORSDOF 7
