REMARK  Name = ZINC38688993
REMARK  6 active torsions:
REMARK  status: ('A' for Active; 'I' for Inactive)
REMARK    1  A    between atoms: C_1  and  C_2
REMARK    2  A    between atoms: C_6  and  N_8
REMARK    3  A    between atoms: C_9  and  C_20
REMARK    4  A    between atoms: C_21  and  C_22
REMARK    5  A    between atoms: C_25  and  O_31
REMARK    6  A    between atoms: O_31  and  C_32
REMARK                            x       y       z     vdW  Elec       q    Type
REMARK                         _______ _______ _______ _____ _____    ______ ____
ROOT
ATOM      1  N   UNL     1       0.051  -2.797   2.392  0.00  0.00    -0.245 N 
ATOM      2  C   UNL     1      -0.035  -4.258   2.369  0.00  0.00    +0.190 C 
ATOM      3  N   UNL     1       0.729  -4.830   3.483  0.00  0.00    -0.322 N 
ATOM      4  C   UNL     1       0.623  -4.243   4.739  0.00  0.00    +0.041 A 
ATOM      5  C   UNL     1       0.788  -4.976   5.902  0.00  0.00    +0.024 A 
ATOM      6  C   UNL     1       0.685  -4.346   7.128  0.00  0.00    +0.002 A 
ATOM      7  C   UNL     1       0.419  -2.988   7.202  0.00  0.00    +0.001 A 
ATOM      8  C   UNL     1       0.247  -2.244   6.053  0.00  0.00    +0.015 A 
ATOM      9  C   UNL     1       0.344  -2.868   4.810  0.00  0.00    +0.058 A 
ATOM     10  C   UNL     1       0.150  -2.123   3.555  0.00  0.00    +0.254 C 
ATOM     11  O   UNL     1       0.076  -0.909   3.568  0.00  0.00    -0.270 OA
ATOM     12  H   UNL     1       1.296  -5.605   3.346  0.00  0.00    +0.148 HD
ENDROOT
BRANCH   1  18
ATOM     13  C   UNL     1       2.480  -0.966  -1.470  0.00  0.00    +0.044 C 
ATOM     14  C   UNL     1       1.199  -1.186  -0.707  0.00  0.00    -0.049 A 
ATOM     15  C   UNL     1       0.007  -0.688  -1.200  0.00  0.00    +0.003 A 
ATOM     16  C   UNL     1      -1.171  -0.887  -0.502  0.00  0.00    +0.002 A 
ATOM     17  C   UNL     1      -1.159  -1.587   0.689  0.00  0.00    +0.023 A 
ATOM     18  C   UNL     1       0.036  -2.089   1.186  0.00  0.00    +0.039 A 
ATOM     19  C   UNL     1       1.216  -1.891   0.480  0.00  0.00    +0.027 A 
ENDBRANCH   1  18
BRANCH   2  20
ATOM     20  C   UNL     1      -1.479  -4.674   2.492  0.00  0.00    +0.015 C 
ATOM     21  C   UNL     1      -2.053  -5.396   1.519  0.00  0.00    +0.005 C 
BRANCH  21  22
ATOM     22  C   UNL     1      -3.404  -5.786   1.634  0.00  0.00    -0.019 C 
ATOM     23  C   UNL     1      -4.141  -6.534   0.726  0.00  0.00    +0.006 A 
ATOM     24  C   UNL     1      -3.815  -7.112  -0.523  0.00  0.00    +0.056 A 
ATOM     25  C   UNL     1      -4.760  -7.807  -1.210  0.00  0.00    +0.121 A 
ATOM     26  C   UNL     1      -6.061  -7.968  -0.711  0.00  0.00    +0.047 A 
ATOM     27  C   UNL     1      -6.441  -7.442   0.476  0.00  0.00    +0.029 A 
ATOM     28  C   UNL     1      -5.508  -6.701   1.253  0.00  0.00    +0.043 A 
ATOM     29  N   UNL     1      -5.629  -6.101   2.417  0.00  0.00    -0.380 N 
ATOM     30  C   UNL     1      -4.349  -5.482   2.775  0.00  0.00    +0.149 C 
ATOM     31  H   UNL     1      -6.436  -6.074   2.955  0.00  0.00    +0.160 HD
BRANCH  25  32
ATOM     32  O   UNL     1      -4.436  -8.358  -2.410  0.00  0.00    -0.495 OA
ATOM     33  C   UNL     1      -5.465  -9.079  -3.092  0.00  0.00    +0.277 C 
ENDBRANCH  25  32
ENDBRANCH  21  22
ENDBRANCH   2  20
TORSDOF 4
