REMARK  Name = ZINC36007419
REMARK  7 active torsions:
REMARK  status: ('A' for Active; 'I' for Inactive)
REMARK    1  A    between atoms: C_1  and  C_2
REMARK    2  A    between atoms: C_5  and  C_33
REMARK    3  A    between atoms: C_10  and  C_12
REMARK    4  A    between atoms: C_12  and  N_13
REMARK    5  A    between atoms: N_16  and  C_19
REMARK    6  A    between atoms: C_19  and  C_21
REMARK    7  A    between atoms: C_19  and  C_27
REMARK                            x       y       z     vdW  Elec       q    Type
REMARK                         _______ _______ _______ _____ _____    ______ ____
ROOT
ATOM      1  N   UNL     1       4.448  -4.132   3.275  0.00  0.00    +0.387 N 
ATOM      2  C   UNL     1       4.174  -4.262   1.838  0.00  0.00    -0.063 C 
ATOM      3  C   UNL     1       5.223  -5.174   1.199  0.00  0.00    +0.067 C 
ATOM      4  N   UNL     1       6.560  -4.602   1.411  0.00  0.00    -0.291 NA
ATOM      5  C   UNL     1       6.839  -4.443   2.845  0.00  0.00    +0.067 C 
ATOM      6  C   UNL     1       5.776  -3.536   3.470  0.00  0.00    -0.063 C 
ATOM      7  H   UNL     1       4.422  -5.044   3.706  0.00  0.00    -0.081 HD
ENDROOT
BRANCH   1   8
ATOM      8  C   UNL     1       3.430  -3.270   3.891  0.00  0.00    +0.019 C 
BRANCH   8  16
ATOM      9  C   UNL     1       0.104   0.280   5.024  0.00  0.00    +0.009 C 
ATOM     10  C   UNL     1       0.102  -1.057   4.281  0.00  0.00    +0.004 C 
ATOM     11  C   UNL     1      -1.299  -1.670   4.336  0.00  0.00    +0.009 C 
ATOM     12  C   UNL     1      -1.310  -2.992   3.565  0.00  0.00    +0.004 C 
ATOM     13  C   UNL     1      -0.329  -3.969   4.220  0.00  0.00    +0.111 C 
ATOM     14  N   UNL     1       0.992  -3.329   4.303  0.00  0.00    -0.303 N 
ATOM     15  C   UNL     1       1.100  -2.012   4.944  0.00  0.00    +0.111 C 
ATOM     16  C   UNL     1       2.083  -3.939   3.799  0.00  0.00    +0.199 C 
ATOM     17  O   UNL     1       1.981  -5.027   3.272  0.00  0.00    -0.278 OA
ATOM     18  C   UNL     1      -0.890  -2.741   2.115  0.00  0.00    +0.009 C 
ENDBRANCH   8  16
ENDBRANCH   1   8
BRANCH   4  19
ATOM     19  C   UNL     1       7.592  -5.421   0.761  0.00  0.00    +0.174 C 
BRANCH  19  20
ATOM     20  C   UNL     1       8.936  -4.759   0.924  0.00  0.00    +0.242 C 
ATOM     21  O   UNL     1       9.007  -3.554   1.044  0.00  0.00    -0.273 OA
ATOM     22  N   UNL     1      10.058  -5.505   0.937  0.00  0.00    -0.239 N 
ATOM     23  C   UNL     1      11.260  -4.912   1.083  0.00  0.00    +0.303 C 
ATOM     24  O   UNL     1      11.331  -3.705   1.202  0.00  0.00    -0.253 OA
ATOM     25  N   UNL     1      12.382  -5.658   1.095  0.00  0.00    -0.313 N 
ATOM     26  H   UNL     1      10.001  -6.468   0.841  0.00  0.00    +0.159 HD
ATOM     27  H   UNL     1      12.325  -6.622   1.000  0.00  0.00    +0.146 HD
ATOM     28  H   UNL     1      13.247  -5.231   1.200  0.00  0.00    +0.146 HD
ENDBRANCH  19  20
BRANCH  19  29
ATOM     29  C   UNL     1       7.275  -5.560  -0.705  0.00  0.00    -0.021 A 
ATOM     30  C   UNL     1       6.904  -4.450  -1.440  0.00  0.00    +0.005 A 
ATOM     31  C   UNL     1       6.613  -4.577  -2.785  0.00  0.00    +0.000 A 
ATOM     32  C   UNL     1       6.693  -5.815  -3.396  0.00  0.00    +0.000 A 
ATOM     33  C   UNL     1       7.065  -6.925  -2.661  0.00  0.00    +0.000 A 
ATOM     34  C   UNL     1       7.360  -6.797  -1.317  0.00  0.00    +0.005 A 
ENDBRANCH  19  29
ENDBRANCH   4  19
TORSDOF 5
