REMARK  Name = ZINC65135403
REMARK  9 active torsions:
REMARK  status: ('A' for Active; 'I' for Inactive)
REMARK    1  A    between atoms: C_1  and  C_2
REMARK    2  A    between atoms: C_2  and  C_3
REMARK    3  A    between atoms: C_2  and  C_4
REMARK    4  A    between atoms: C_4  and  C_5
REMARK    5  A    between atoms: C_5  and  N_6
REMARK    6  A    between atoms: N_9  and  N_10
REMARK    7  A    between atoms: C_11  and  C_13
REMARK    8  A    between atoms: C_16  and  N_18
REMARK    9  A    between atoms: C_19  and  C_21
REMARK                            x       y       z     vdW  Elec       q    Type
REMARK                         _______ _______ _______ _____ _____    ______ ____
ROOT
ATOM      1  N   UNL     1      -5.360  -3.464  -0.087  0.00  0.00    -0.229 N 
ATOM      2  C   UNL     1      -6.624  -3.930  -0.077  0.00  0.00    +0.267 C 
ATOM      3  O   UNL     1      -6.833  -5.126  -0.174  0.00  0.00    -0.268 OA
ATOM      4  H   UNL     1      -5.194  -2.511  -0.010  0.00  0.00    +0.173 HD
ENDROOT
BRANCH   1   8
ATOM      5  N   UNL     1      -2.790  -2.565  -0.111  0.00  0.00    -0.298 N 
ATOM      6  C   UNL     1      -3.021  -3.888  -0.217  0.00  0.00    +0.316 C 
ATOM      7  O   UNL     1      -2.088  -4.662  -0.322  0.00  0.00    -0.251 OA
ATOM      8  N   UNL     1      -4.285  -4.355  -0.208  0.00  0.00    -0.218 N 
ATOM      9  H   UNL     1      -3.534  -1.948  -0.027  0.00  0.00    +0.150 HD
ATOM     10  H   UNL     1      -4.451  -5.307  -0.285  0.00  0.00    +0.174 HD
BRANCH   5  11
ATOM     11  C   UNL     1      -1.416  -2.058  -0.121  0.00  0.00    +0.106 C 
BRANCH  11  12
ATOM     12  C   UNL     1      -1.433  -0.534   0.013  0.00  0.00    +0.022 C 
BRANCH  12  14
ATOM     13  C   UNL     1      -0.019   1.526   0.010  0.00  0.00    +0.007 C 
ATOM     14  C   UNL     1       0.002  -0.004   0.002  0.00  0.00    -0.016 C 
ATOM     15  C   UNL     1       0.742  -0.511   1.242  0.00  0.00    +0.007 C 
ENDBRANCH  12  14
ENDBRANCH  11  12
ENDBRANCH   5  11
ENDBRANCH   1   8
BRANCH   2  16
ATOM     16  C   UNL     1      -7.745  -3.001   0.049  0.00  0.00    +0.077 A 
ATOM     17  C   UNL     1      -9.105  -3.275   0.084  0.00  0.00    +0.022 A 
ATOM     18  C   UNL     1      -9.932  -2.189   0.211  0.00  0.00    +0.032 A 
ATOM     19  C   UNL     1      -9.368  -0.937   0.291  0.00  0.00    +0.073 A 
ATOM     20  S   UNL     1      -7.716  -1.226   0.203  0.00  0.00    -0.069 S 
BRANCH  19  21
ATOM     21  N   UNL     1     -10.016   0.284   0.421  0.00  0.00    -0.273 N 
ATOM     22  C   UNL     1      -9.299   1.424   0.485  0.00  0.00    +0.284 C 
ATOM     23  O   UNL     1      -8.084   1.382   0.429  0.00  0.00    -0.266 OA
ATOM     24  H   UNL     1     -10.984   0.317   0.465  0.00  0.00    +0.156 HD
BRANCH  22  25
ATOM     25  C   UNL     1      -9.983   2.713   0.622  0.00  0.00    +0.189 A 
ATOM     26  C   UNL     1      -9.381   3.937   0.693  0.00  0.00    +0.054 A 
ATOM     27  C   UNL     1     -10.408   4.885   0.819  0.00  0.00    +0.042 A 
ATOM     28  C   UNL     1     -11.577   4.207   0.819  0.00  0.00    +0.196 A 
ATOM     29  O   UNL     1     -11.317   2.899   0.695  0.00  0.00    -0.458 OA
ENDBRANCH  22  25
ENDBRANCH  19  21
ENDBRANCH   2  16
TORSDOF 7
