REMARK  Name = ZINC19418685
REMARK  7 active torsions:
REMARK  status: ('A' for Active; 'I' for Inactive)
REMARK    1  A    between atoms: C_3  and  C_6
REMARK    2  A    between atoms: C_7  and  C_27
REMARK    3  A    between atoms: C_8  and  N_26
REMARK    4  A    between atoms: C_10  and  S_14
REMARK    5  A    between atoms: C_11  and  C_12
REMARK    6  A    between atoms: S_14  and  C_15
REMARK    7  A    between atoms: C_15  and  C_16
REMARK                            x       y       z     vdW  Elec       q    Type
REMARK                         _______ _______ _______ _____ _____    ______ ____
ROOT
ATOM      1  C   UNL     1       1.189   2.162   0.002  0.00  0.00    +0.029 A 
ATOM      2  C   UNL     1       1.107   3.573   0.010  0.00  0.00    +0.101 A 
ATOM      3  C   UNL     1      -0.161   4.180   0.025  0.00  0.00    +0.136 A 
ATOM      4  N   UNL     1      -1.266   3.451   0.032  0.00  0.00    -0.224 NA
ATOM      5  C   UNL     1      -1.239   2.126   0.019  0.00  0.00    +0.117 A 
ATOM      6  C   UNL     1      -0.017   1.428   0.010  0.00  0.00    +0.093 A 
ENDROOT
BRANCH   1   9
ATOM      7  C   UNL     1       4.604   0.749  -0.753  0.00  0.00    +0.008 A 
ATOM      8  C   UNL     1       3.463   1.478  -0.999  0.00  0.00    +0.016 A 
ATOM      9  C   UNL     1       2.491   1.480  -0.014  0.00  0.00    +0.022 A 
ATOM     10  S   UNL     1       3.227   0.432   1.229  0.00  0.00    -0.097 S 
ATOM     11  C   UNL     1       4.716   0.071   0.417  0.00  0.00    +0.046 A 
ENDBRANCH   1   9
BRANCH   3  12
ATOM     12  N   UNL     1      -0.256   5.558   0.033  0.00  0.00    -0.342 N 
ATOM     13  H   UNL     1      -1.244   6.041   0.045  0.00  0.00    +0.144 HD
ATOM     14  H   UNL     1       0.657   6.172   0.028  0.00  0.00    +0.144 HD
ENDBRANCH   3  12
BRANCH   6  15
ATOM     15  C   UNL     1       0.002  -0.004   0.002  0.00  0.00    +0.102 C 
ATOM     16  N   UNL     1       0.018  -1.140  -0.004  0.00  0.00    -0.191 NA
ENDBRANCH   6  15
BRANCH   2  17
ATOM     17  C   UNL     1       2.296   4.372   0.003  0.00  0.00    +0.103 C 
ATOM     18  N   UNL     1       3.239   5.005  -0.003  0.00  0.00    -0.191 NA
ENDBRANCH   2  17
BRANCH   5  19
ATOM     19  S   UNL     1      -2.754   1.227   0.022  0.00  0.00    -0.098 S 
BRANCH  19  20
ATOM     20  C   UNL     1      -3.934   2.599   0.035  0.00  0.00    +0.129 C 
BRANCH  20  21
ATOM     21  C   UNL     1      -5.339   2.053   0.039  0.00  0.00    +0.036 A 
ATOM     22  C   UNL     1      -6.073   2.078   1.172  0.00  0.00    +0.092 A 
ATOM     23  C   UNL     1      -7.392   1.564   1.149  0.00  0.00    +0.254 A 
ATOM     24  O   UNL     1      -8.075   1.581   2.157  0.00  0.00    -0.268 OA
ATOM     25  N   UNL     1      -7.883   1.051   0.003  0.00  0.00    -0.275 N 
ATOM     26  H   UNL     1      -8.905   0.645  -0.025  0.00  0.00    +0.173 HD
ATOM     27  C   UNL     1      -7.127   1.034  -1.111  0.00  0.00    +0.327 A 
ATOM     28  O   UNL     1      -7.583   0.568  -2.137  0.00  0.00    -0.247 OA
ATOM     29  N   UNL     1      -5.874   1.524  -1.104  0.00  0.00    -0.311 N 
ATOM     30  H   UNL     1      -5.279   1.498  -2.029  0.00  0.00    +0.170 HD
ENDBRANCH  20  21
ENDBRANCH  19  20
ENDBRANCH   5  19
TORSDOF 7
