REMARK  Name = ZINC14975146
REMARK  12 active torsions:
REMARK  status: ('A' for Active; 'I' for Inactive)
REMARK    1  A    between atoms: C_1  and  C_2
REMARK    2  A    between atoms: C_5  and  C_8
REMARK    3  A    between atoms: C_8  and  N_57
REMARK    4  A    between atoms: C_14  and  C_16
REMARK    5  A    between atoms: C_16  and  C_17
REMARK    6  A    between atoms: N_19  and  C_20
REMARK    7  A    between atoms: C_20  and  C_21
REMARK    8  A    between atoms: C_21  and  C_22
REMARK    9  A    between atoms: C_22  and  O_23
REMARK   10  A    between atoms: O_23  and  C_24
REMARK   11  A    between atoms: C_24  and  C_25
REMARK   12  A    between atoms: C_24  and  C_26
REMARK                            x       y       z     vdW  Elec       q    Type
REMARK                         _______ _______ _______ _____ _____    ______ ____
ROOT
ATOM      1  C   UNL     1      -3.487  -0.727   1.307  0.00  0.00    -0.058 C 
ATOM      2  C   UNL     1      -4.773   0.085   1.473  0.00  0.00    +0.085 C 
ATOM      3  N   UNL     1      -4.761   1.232   0.571  0.00  0.00    -0.318 N 
ATOM      4  C   UNL     1      -3.643   1.700   0.005  0.00  0.00    +0.200 C 
ATOM      5  O   UNL     1      -3.719   2.678  -0.709  0.00  0.00    -0.278 OA
ATOM      6  C   UNL     1      -2.298   1.065   0.216  0.00  0.00    +0.028 C 
ATOM      7  H   UNL     1      -5.601   1.675   0.373  0.00  0.00    +0.149 HD
ATOM      8  N   UNL     1      -2.343   0.201   1.411  0.00  0.00    +0.391 N 
ATOM      9  H   UNL     1      -2.462   0.788   2.245  0.00  0.00    -0.080 HD
ENDROOT
BRANCH   8  10
ATOM     10  C   UNL     1      -1.080  -0.561   1.534  0.00  0.00    -0.042 C 
BRANCH  10  15
ATOM     11  C   UNL     1      -1.510  -4.234   5.974  0.00  0.00    +0.044 C 
ATOM     12  C   UNL     1      -1.397  -3.276   4.816  0.00  0.00    -0.050 A 
ATOM     13  C   UNL     1      -1.765  -3.680   3.546  0.00  0.00    +0.003 A 
ATOM     14  C   UNL     1      -1.662  -2.802   2.484  0.00  0.00    +0.002 A 
ATOM     15  C   UNL     1      -1.192  -1.519   2.692  0.00  0.00    -0.064 A 
ATOM     16  C   UNL     1      -0.819  -1.116   3.960  0.00  0.00    +0.002 A 
ATOM     17  C   UNL     1      -0.925  -1.993   5.023  0.00  0.00    +0.003 A 
ENDBRANCH  10  15
ENDBRANCH   8  10
BRANCH   6  18
ATOM     18  C   UNL     1      -1.249   2.158   0.432  0.00  0.00    +0.089 C 
BRANCH  18  19
ATOM     19  C   UNL     1      -1.611   2.969   1.649  0.00  0.00    +0.212 C 
ATOM     20  O   UNL     1      -2.555   2.641   2.337  0.00  0.00    -0.276 OA
ATOM     21  N   UNL     1      -0.884   4.055   1.976  0.00  0.00    -0.315 N 
ATOM     22  H   UNL     1      -0.129   4.317   1.426  0.00  0.00    +0.149 HD
BRANCH  21  23
ATOM     23  C   UNL     1      -1.233   4.840   3.163  0.00  0.00    +0.106 C 
BRANCH  23  24
ATOM     24  C   UNL     1      -0.257   6.009   3.306  0.00  0.00    +0.047 C 
BRANCH  24  25
ATOM     25  C   UNL     1      -0.621   6.829   4.545  0.00  0.00    +0.161 C 
BRANCH  25  26
ATOM     26  O   UNL     1       0.291   7.921   4.679  0.00  0.00    -0.377 OA
BRANCH  26  27
ATOM     27  C   UNL     1       0.037   8.755   5.812  0.00  0.00    +0.112 C 
ATOM     28  C   UNL     1       0.818   8.228   7.017  0.00  0.00    +0.037 C 
ATOM     29  C   UNL     1       0.482  10.186   5.502  0.00  0.00    +0.037 C 
ENDBRANCH  26  27
ENDBRANCH  25  26
ENDBRANCH  24  25
ENDBRANCH  23  24
ENDBRANCH  21  23
ENDBRANCH  18  19
ENDBRANCH   6  18
TORSDOF 9
