REMARK  Name = ZINC09066426
REMARK  11 active torsions:
REMARK  status: ('A' for Active; 'I' for Inactive)
REMARK    1  A    between atoms: C_1  and  C_2
REMARK    2  A    between atoms: C_2  and  C_3
REMARK    3  A    between atoms: C_3  and  C_5
REMARK    4  A    between atoms: C_3  and  N_6
REMARK    5  A    between atoms: C_9  and  C_15
REMARK    6  A    between atoms: C_10  and  O_14
REMARK    7  A    between atoms: C_12  and  S_13
REMARK    8  A    between atoms: C_19  and  O_27
REMARK    9  A    between atoms: C_20  and  O_25
REMARK   10  A    between atoms: O_25  and  C_26
REMARK   11  A    between atoms: O_27  and  C_28
REMARK                            x       y       z     vdW  Elec       q    Type
REMARK                         _______ _______ _______ _____ _____    ______ ____
ROOT
ATOM      1  C   UNL     1      -2.846   4.228  -3.045  0.00  0.00    +0.001 C 
ATOM      2  C   UNL     1      -4.160   3.667  -2.567  0.00  0.00    -0.050 A 
ATOM      3  C   UNL     1      -4.453   2.341  -2.856  0.00  0.00    +0.052 A 
ATOM      4  C   UNL     1      -5.648   1.782  -2.441  0.00  0.00    +0.162 A 
ATOM      5  C   UNL     1      -6.561   2.556  -1.730  0.00  0.00    +0.162 A 
ATOM      6  C   UNL     1      -6.264   3.876  -1.443  0.00  0.00    +0.053 A 
ATOM      7  C   UNL     1      -5.064   4.432  -1.861  0.00  0.00    -0.044 A 
ATOM      8  C   UNL     1      -4.785   5.874  -1.522  0.00  0.00    +0.016 C 
ATOM      9  C   UNL     1      -3.649   6.406  -2.396  0.00  0.00    -0.077 C 
ATOM     10  N   UNL     1      -2.517   5.463  -2.320  0.00  0.00    +0.387 N 
ATOM     11  H   UNL     1      -1.686   5.895  -2.742  0.00  0.00    -0.085 HD
ATOM     12  H   UNL     1      -2.326   5.240  -1.337  0.00  0.00    -0.085 HD
ENDROOT
BRANCH   1  16
ATOM     13  N   UNL     1      -0.416   1.931  -1.340  0.00  0.00    -0.285 N 
ATOM     14  C   UNL     1      -1.399   2.840  -1.509  0.00  0.00    +0.260 A 
ATOM     15  O   UNL     1      -1.965   3.330  -0.545  0.00  0.00    -0.267 OA
ATOM     16  C   UNL     1      -1.756   3.214  -2.810  0.00  0.00    +0.069 A 
ATOM     17  C   UNL     1      -1.094   2.631  -3.877  0.00  0.00    +0.222 A 
ATOM     18  N   UNL     1      -0.131   1.733  -3.650  0.00  0.00    -0.189 NA
ATOM     19  C   UNL     1       0.205   1.387  -2.424  0.00  0.00    +0.172 A 
BRANCH  13  20
ATOM     20  C   UNL     1      -0.019   1.526   0.010  0.00  0.00    +0.089 C 
ATOM     21  C   UNL     1       0.438   2.755   0.798  0.00  0.00    +0.031 C 
BRANCH  20  23
ATOM     22  C   UNL     1      -1.600  -0.408  -0.009  0.00  0.00    +0.006 C 
ATOM     23  C   UNL     1      -1.210   0.879   0.720  0.00  0.00    +0.021 C 
ENDBRANCH  20  23
ENDBRANCH  13  20
BRANCH  19  24
ATOM     24  S   UNL     1       1.482   0.198  -2.181  0.00  0.00    -0.105 S 
ATOM     25  H   UNL     1       1.819  -0.077  -3.522  0.00  0.00    +0.110 HD
ENDBRANCH  19  24
BRANCH  17  26
ATOM     26  O   UNL     1      -1.420   2.970  -5.146  0.00  0.00    -0.492 OA
ATOM     27  H   UNL     1      -0.903   2.510  -5.822  0.00  0.00    +0.294 HD
ENDBRANCH  17  26
ENDBRANCH   1  16
BRANCH   5  28
ATOM     28  O   UNL     1      -7.739   2.016  -1.318  0.00  0.00    -0.491 OA
ATOM     29  C   UNL     1      -8.626   2.870  -0.593  0.00  0.00    +0.277 C 
ENDBRANCH   5  28
BRANCH   4  30
ATOM     30  O   UNL     1      -5.930   0.483  -2.727  0.00  0.00    -0.491 OA
ATOM     31  C   UNL     1      -4.945  -0.248  -3.460  0.00  0.00    +0.277 C 
ENDBRANCH   4  30
TORSDOF 7
