REMARK  Name = ZINC49640515
REMARK  7 active torsions:
REMARK  status: ('A' for Active; 'I' for Inactive)
REMARK    1  A    between atoms: C_4  and  C_8
REMARK    2  A    between atoms: C_8  and  C_9
REMARK    3  A    between atoms: N_14  and  C_15
REMARK    4  A    between atoms: C_15  and  C_17
REMARK    5  A    between atoms: C_17  and  N_18
REMARK    6  A    between atoms: N_18  and  C_19
REMARK    7  A    between atoms: C_19  and  C_20
REMARK                            x       y       z     vdW  Elec       q    Type
REMARK                         _______ _______ _______ _____ _____    ______ ____
ROOT
ATOM      1  C   UNL     1       4.166  -0.960   1.376  0.00  0.00    +0.013 A 
ATOM      2  C   UNL     1       3.993  -2.048   2.134  0.00  0.00    +0.095 A 
ATOM      3  N   UNL     1       4.507  -2.020   3.393  0.00  0.00    -0.342 N 
ATOM      4  C   UNL     1       5.161  -0.903   3.810  0.00  0.00    +0.163 A 
ATOM      5  S   UNL     1       5.079   0.112   2.471  0.00  0.00    -0.057 S 
ATOM      6  N   UNL     1       5.734  -0.670   4.993  0.00  0.00    -0.158 NA
ATOM      7  H   UNL     1       4.409  -2.783   3.983  0.00  0.00    +0.167 HD
ENDROOT
BRANCH   6   8
ATOM      8  C   UNL     1       5.705  -1.600   5.938  0.00  0.00    +0.221 C 
ATOM      9  O   UNL     1       5.156  -2.665   5.728  0.00  0.00    -0.276 OA
BRANCH   8  10
ATOM     10  C   UNL     1       6.352  -1.337   7.274  0.00  0.00    +0.018 C 
BRANCH  10  11
ATOM     11  N   UNL     1       6.184  -2.512   8.139  0.00  0.00    +0.389 N 
ATOM     12  H   UNL     1       5.200  -2.694   8.272  0.00  0.00    -0.085 HD
ATOM     13  H   UNL     1       6.619  -3.313   7.707  0.00  0.00    -0.085 HD
BRANCH  11  14
ATOM     14  C   UNL     1       6.814  -2.256   9.441  0.00  0.00    -0.006 C 
BRANCH  14  15
ATOM     15  C   UNL     1       6.642  -3.462  10.329  0.00  0.00    +0.088 A 
ATOM     16  C   UNL     1       7.494  -4.498  10.422  0.00  0.00    +0.042 A 
ATOM     17  C   UNL     1       6.944  -5.396  11.365  0.00  0.00    +0.041 A 
ATOM     18  C   UNL     1       5.790  -4.855  11.792  0.00  0.00    +0.195 A 
ATOM     19  O   UNL     1       5.614  -3.680  11.165  0.00  0.00    -0.470 OA
ENDBRANCH  14  15
ENDBRANCH  11  14
ENDBRANCH  10  11
ENDBRANCH   8  10
ENDBRANCH   6   8
BRANCH   1  20
ATOM     20  C   UNL     1       3.713  -0.707  -0.038  0.00  0.00    +0.082 C 
BRANCH  20  24
ATOM     21  C   UNL     1      -0.017   1.378   0.010  0.00  0.00    +0.003 A 
ATOM     22  C   UNL     1       1.171   2.086   0.002  0.00  0.00    +0.020 A 
ATOM     23  C   UNL     1       2.378   1.411  -0.013  0.00  0.00    +0.046 A 
ATOM     24  C   UNL     1       2.398   0.028  -0.021  0.00  0.00    -0.006 A 
ATOM     25  C   UNL     1       1.209  -0.680  -0.013  0.00  0.00    +0.046 A 
ATOM     26  C   UNL     1       0.002  -0.004   0.002  0.00  0.00    +0.020 A 
ATOM     27 CL   UNL     1       1.233  -2.416  -0.023  0.00  0.00    -0.083 Cl
ATOM     28 CL   UNL     1       3.869   2.300  -0.024  0.00  0.00    -0.083 Cl
ENDBRANCH  20  24
ENDBRANCH   1  20
TORSDOF 7
