REMARK  Name = ZINC12764578
REMARK  11 active torsions:
REMARK  status: ('A' for Active; 'I' for Inactive)
REMARK    1  A    between atoms: C_1  and  C_2
REMARK    2  A    between atoms: C_5  and  O_8
REMARK    3  A    between atoms: O_8  and  C_9
REMARK    4  A    between atoms: C_9  and  C_10
REMARK    5  A    between atoms: C_10  and  N_11
REMARK    6  A    between atoms: N_11  and  C_12
REMARK    7  A    between atoms: C_13  and  C_15
REMARK    8  A    between atoms: C_15  and  C_16
REMARK    9  A    between atoms: C_16  and  N_17
REMARK   10  A    between atoms: C_21  and  S_27
REMARK   11  A    between atoms: S_27  and  N_30
REMARK                            x       y       z     vdW  Elec       q    Type
REMARK                         _______ _______ _______ _____ _____    ______ ____
ROOT
ATOM      1  C   UNL     1      -1.385   6.220  -5.426  0.00  0.00    +0.138 C 
ENDROOT
BRANCH   1   2
ATOM      2  N   UNL     1      -1.758   4.873  -4.987  0.00  0.00    -0.274 N 
ATOM      3  C   UNL     1      -1.583   4.344  -3.708  0.00  0.00    +0.090 A 
ATOM      4  C   UNL     1      -1.053   4.853  -2.532  0.00  0.00    +0.031 A 
ATOM      5  C   UNL     1      -1.022   4.067  -1.397  0.00  0.00    +0.031 A 
ATOM      6  C   UNL     1      -1.507   2.771  -1.433  0.00  0.00    +0.109 A 
ATOM      7  C   UNL     1      -2.036   2.258  -2.602  0.00  0.00    +0.077 A 
ATOM      8  C   UNL     1      -2.077   3.041  -3.745  0.00  0.00    +0.159 A 
ATOM      9  O   UNL     1      -2.526   2.815  -5.004  0.00  0.00    -0.407 OA
ATOM     10  C   UNL     1      -2.332   3.917  -5.745  0.00  0.00    +0.421 A 
ATOM     11  O   UNL     1      -2.628   4.036  -6.918  0.00  0.00    -0.223 OA
BRANCH   6  12
ATOM     12  S   UNL     1      -1.456   1.774   0.019  0.00  0.00    +0.056 S 
ATOM     13  O   UNL     1      -2.472   0.792  -0.128  0.00  0.00    -0.153 OA
ATOM     14  O   UNL     1      -1.413   2.667   1.123  0.00  0.00    -0.153 OA
BRANCH  12  15
ATOM     15  N   UNL     1      -0.011   0.966   0.007  0.00  0.00    -0.204 NA
ATOM     16  H   UNL     1       0.002  -0.004   0.002  0.00  0.00    +0.144 HD
ATOM     17  H   UNL     1       0.822   1.462   0.002  0.00  0.00    +0.144 HD
ENDBRANCH  12  15
ENDBRANCH   6  12
ENDBRANCH   1   2
BRANCH   1  18
ATOM     18  C   UNL     1      -2.561   7.173  -5.201  0.00  0.00    +0.117 C 
BRANCH  18  21
ATOM     19  N   UNL     1      -3.062   9.570  -5.550  0.00  0.00    -0.301 N 
ATOM     20  C   UNL     1      -4.396   9.322  -4.998  0.00  0.00    +0.132 C 
ATOM     21  C   UNL     1      -2.177   8.559  -5.653  0.00  0.00    +0.217 C 
ATOM     22  O   UNL     1      -1.072   8.763  -6.110  0.00  0.00    -0.276 OA
BRANCH  19  23
ATOM     23  C   UNL     1      -2.689  10.917  -5.989  0.00  0.00    +0.148 C 
BRANCH  23  24
ATOM     24  C   UNL     1      -3.051  11.091  -7.465  0.00  0.00    +0.248 C 
BRANCH  24  25
ATOM     25  O   UNL     1      -4.471  11.022  -7.619  0.00  0.00    -0.490 OA
BRANCH  25  30
ATOM     26  C   UNL     1      -6.509  11.589 -12.838  0.00  0.00    +0.044 C 
ATOM     27  C   UNL     1      -5.964  11.437 -11.442  0.00  0.00    -0.050 A 
ATOM     28  C   UNL     1      -6.828  11.242 -10.381  0.00  0.00    +0.007 A 
ATOM     29  C   UNL     1      -6.331  11.103  -9.099  0.00  0.00    +0.046 A 
ATOM     30  C   UNL     1      -4.962  11.159  -8.878  0.00  0.00    +0.121 A 
ATOM     31  C   UNL     1      -4.097  11.361  -9.944  0.00  0.00    +0.046 A 
ATOM     32  C   UNL     1      -4.599  11.493 -11.224  0.00  0.00    +0.007 A 
ENDBRANCH  25  30
ENDBRANCH  24  25
ENDBRANCH  23  24
ENDBRANCH  19  23
ENDBRANCH  18  21
ENDBRANCH   1  18
TORSDOF 9
