REMARK  Name = ZINC36066200
REMARK  10 active torsions:
REMARK  status: ('A' for Active; 'I' for Inactive)
REMARK    1  A    between atoms: C_1  and  C_2
REMARK    2  A    between atoms: C_7  and  N_12
REMARK    3  A    between atoms: C_9  and  C_11
REMARK    4  A    between atoms: C_13  and  C_15
REMARK    5  A    between atoms: C_23  and  C_34
REMARK    6  A    between atoms: N_29  and  C_30
REMARK    7  A    between atoms: C_30  and  C_31
REMARK    8  A    between atoms: C_31  and  O_32
REMARK    9  A    between atoms: O_32  and  C_33
REMARK   10  A    between atoms: N_36  and  C_37
REMARK                            x       y       z     vdW  Elec       q    Type
REMARK                         _______ _______ _______ _____ _____    ______ ____
ROOT
ATOM      1  C   UNL     1       1.194  -4.226   3.575  0.00  0.00    +0.198 C 
ATOM      2  C   UNL     1       2.600  -4.712   3.400  0.00  0.00    +0.127 C 
ATOM      3  C   UNL     1       2.757  -5.645   2.213  0.00  0.00    +0.009 C 
ATOM      4  C   UNL     1       4.039  -5.977   2.185  0.00  0.00    +0.004 C 
ATOM      5  C   UNL     1       4.656  -5.286   3.407  0.00  0.00    +0.155 C 
ATOM      6  O   UNL     1       3.837  -4.045   3.484  0.00  0.00    -0.358 OA
ATOM      7  C   UNL     1       4.092  -6.153   4.599  0.00  0.00    +0.123 C 
ATOM      8  C   UNL     1       2.687  -5.566   4.728  0.00  0.00    +0.128 C 
ATOM      9  C   UNL     1       1.411  -6.301   4.652  0.00  0.00    +0.223 C 
ATOM     10  O   UNL     1       1.206  -7.431   5.039  0.00  0.00    -0.275 OA
ATOM     11  N   UNL     1       0.499  -5.459   4.061  0.00  0.00    -0.284 N 
ENDROOT
BRANCH   1  13
ATOM     12  N   UNL     1       0.665  -2.459   1.927  0.00  0.00    -0.311 N 
ATOM     13  C   UNL     1       0.616  -3.764   2.263  0.00  0.00    +0.237 C 
ATOM     14  O   UNL     1       0.107  -4.566   1.508  0.00  0.00    -0.274 OA
ATOM     15  H   UNL     1       1.072  -1.818   2.530  0.00  0.00    +0.149 HD
BRANCH  12  21
ATOM     16  C   UNL     1      -1.266   1.410  -0.469  0.00  0.00    +0.008 C 
ATOM     17  C   UNL     1      -0.875  -0.065  -0.576  0.00  0.00    -0.009 C 
ATOM     18  C   UNL     1       0.169  -0.238  -1.681  0.00  0.00    +0.003 C 
ATOM     19  C   UNL     1       0.560  -1.713  -1.788  0.00  0.00    +0.002 C 
ATOM     20  C   UNL     1       1.147  -2.182  -0.455  0.00  0.00    +0.022 C 
ATOM     21  C   UNL     1       0.103  -2.010   0.651  0.00  0.00    +0.076 C 
ATOM     22  C   UNL     1      -0.288  -0.535   0.757  0.00  0.00    +0.009 C 
ATOM     23  C   UNL     1      -1.331  -0.362   1.863  0.00  0.00    +0.009 C 
ENDBRANCH  12  21
ENDBRANCH   1  13
BRANCH   7  24
ATOM     24  C   UNL     1       4.057  -7.615   4.235  0.00  0.00    +0.224 C 
ATOM     25  O   UNL     1       2.999  -8.208   4.211  0.00  0.00    -0.275 OA
ATOM     26  N   UNL     1       5.200  -8.262   3.936  0.00  0.00    -0.285 N 
ATOM     27  H   UNL     1       6.036  -7.773   3.886  0.00  0.00    +0.155 HD
BRANCH  26  28
ATOM     28  C   UNL     1       5.181  -9.641   3.696  0.00  0.00    +0.033 A 
ATOM     29  C   UNL     1       6.056 -10.199   2.773  0.00  0.00    +0.025 A 
ATOM     30  C   UNL     1       6.035 -11.560   2.538  0.00  0.00    +0.022 A 
ATOM     31  C   UNL     1       5.144 -12.368   3.222  0.00  0.00    +0.041 A 
ATOM     32  C   UNL     1       4.271 -11.814   4.143  0.00  0.00    +0.022 A 
ATOM     33  C   UNL     1       4.292 -10.455   4.386  0.00  0.00    +0.025 A 
ATOM     34 CL   UNL     1       5.120 -14.078   2.925  0.00  0.00    -0.084 Cl
ENDBRANCH  26  28
ENDBRANCH   7  24
BRANCH  11  35
ATOM     35  C   UNL     1      -0.935  -5.729   3.926  0.00  0.00    +0.136 C 
BRANCH  35  36
ATOM     36  C   UNL     1      -1.681  -5.124   5.117  0.00  0.00    +0.178 C 
BRANCH  36  37
ATOM     37  O   UNL     1      -1.559  -3.701   5.084  0.00  0.00    -0.381 OA
ATOM     38  C   UNL     1      -2.225  -3.035   6.159  0.00  0.00    +0.194 C 
ENDBRANCH  36  37
ENDBRANCH  35  36
ENDBRANCH  11  35
TORSDOF 7
