REMARK  Name = ZINC09410522
REMARK  7 active torsions:
REMARK  status: ('A' for Active; 'I' for Inactive)
REMARK    1  A    between atoms: C_1  and  O_2
REMARK    2  A    between atoms: O_2  and  C_3
REMARK    3  A    between atoms: C_6  and  C_9
REMARK    4  A    between atoms: C_9  and  N_10
REMARK    5  A    between atoms: C_11  and  C_13
REMARK    6  A    between atoms: N_24  and  C_26
REMARK    7  A    between atoms: C_26  and  C_27
REMARK                            x       y       z     vdW  Elec       q    Type
REMARK                         _______ _______ _______ _____ _____    ______ ____
ROOT
ATOM      1  C   UNL     1       1.223  -4.487  -3.081  0.00  0.00    +0.122 C 
ATOM      2  C   UNL     1       2.577  -4.136  -3.810  0.00  0.00    +0.155 C 
ATOM      3  C   UNL     1       2.198  -4.293  -5.288  0.00  0.00    +0.004 C 
ATOM      4  C   UNL     1       2.071  -5.599  -5.473  0.00  0.00    +0.008 C 
ATOM      5  C   UNL     1       2.428  -6.240  -4.144  0.00  0.00    +0.116 C 
ATOM      6  C   UNL     1       1.240  -5.994  -3.130  0.00  0.00    +0.127 C 
ATOM      7  C   UNL     1       0.218  -6.875  -3.723  0.00  0.00    +0.223 C 
ATOM      8  O   UNL     1      -0.979  -6.679  -3.746  0.00  0.00    -0.275 OA
ATOM      9  N   UNL     1       0.867  -7.960  -4.241  0.00  0.00    -0.294 N 
ATOM     10  C   UNL     1       2.345  -7.734  -4.179  0.00  0.00    +0.148 C 
ATOM     11  O   UNL     1       3.382  -5.368  -3.584  0.00  0.00    -0.359 OA
ENDROOT
BRANCH   1  13
ATOM     12  N   UNL     1       1.218  -2.668  -1.405  0.00  0.00    -0.311 N 
ATOM     13  C   UNL     1       1.231  -3.992  -1.658  0.00  0.00    +0.220 C 
ATOM     14  O   UNL     1       1.249  -4.785  -0.740  0.00  0.00    -0.275 OA
ATOM     15  H   UNL     1       1.203  -2.034  -2.139  0.00  0.00    +0.149 HD
BRANCH  12  16
ATOM     16  C   UNL     1       1.226  -2.187  -0.021  0.00  0.00    +0.139 C 
BRANCH  16  20
ATOM     17  C   UNL     1       1.176   2.086   0.002  0.00  0.00    +0.120 A 
ATOM     18  C   UNL     1      -0.017   1.377   0.010  0.00  0.00    +0.046 A 
ATOM     19  C   UNL     1       0.002  -0.004   0.002  0.00  0.00    +0.009 A 
ATOM     20  C   UNL     1       1.208  -0.680  -0.013  0.00  0.00    -0.030 A 
ATOM     21  C   UNL     1       2.398   0.024  -0.021  0.00  0.00    +0.009 A 
ATOM     22  C   UNL     1       2.385   1.405  -0.013  0.00  0.00    +0.046 A 
BRANCH  17  24
ATOM     23  C   UNL     1       2.426   4.108   0.001  0.00  0.00    +0.277 C 
ATOM     24  O   UNL     1       1.160   3.445   0.010  0.00  0.00    -0.495 OA
ENDBRANCH  17  24
ENDBRANCH  16  20
ENDBRANCH  12  16
ENDBRANCH   1  13
BRANCH   9  25
ATOM     25  C   UNL     1       0.218  -9.156  -4.785  0.00  0.00    +0.143 C 
BRANCH  25  26
ATOM     26  C   UNL     1       0.034 -10.171  -3.686  0.00  0.00    -0.026 A 
ATOM     27  C   UNL     1       1.021 -11.107  -3.438  0.00  0.00    +0.009 A 
ATOM     28  C   UNL     1       0.859 -12.036  -2.428  0.00  0.00    +0.050 A 
ATOM     29  C   UNL     1      -0.299 -12.039  -1.667  0.00  0.00    +0.166 A 
ATOM     30  C   UNL     1      -1.296 -11.099  -1.920  0.00  0.00    +0.167 A 
ATOM     31  C   UNL     1      -1.124 -10.167  -2.930  0.00  0.00    +0.054 A 
ATOM     32  O   UNL     1      -2.324 -11.308  -1.046  0.00  0.00    -0.453 OA
ATOM     33  C   UNL     1      -2.125 -12.637  -0.529  0.00  0.00    +0.466 C 
ATOM     34  O   UNL     1      -0.703 -12.836  -0.635  0.00  0.00    -0.453 OA
ENDBRANCH  25  26
ENDBRANCH   9  25
TORSDOF 6
