REMARK  Name = ZINC40804686
REMARK  5 active torsions:
REMARK  status: ('A' for Active; 'I' for Inactive)
REMARK    1  A    between atoms: C_1  and  C_2
REMARK    2  A    between atoms: C_5  and  C_8
REMARK    3  A    between atoms: N_10  and  N_11
REMARK    4  A    between atoms: C_18  and  C_33
REMARK    5  A    between atoms: C_19  and  C_21
REMARK                            x       y       z     vdW  Elec       q    Type
REMARK                         _______ _______ _______ _____ _____    ______ ____
ROOT
ATOM      1  N   UNL     1      -0.005  -6.329   1.212  0.00  0.00    -0.184 NA
ATOM      2  C   UNL     1      -0.094  -6.998   2.321  0.00  0.00    +0.070 C 
ATOM      3  C   UNL     1      -0.256  -6.319   3.673  0.00  0.00    +0.058 C 
ATOM      4  C   UNL     1       0.651  -7.032   4.681  0.00  0.00    +0.014 C 
ATOM      5  C   UNL     1       0.197  -8.480   4.885  0.00  0.00    +0.075 C 
ATOM      6  C   UNL     1       0.088  -9.164   3.545  0.00  0.00    +0.115 A 
ATOM      7  C   UNL     1      -0.050  -8.476   2.362  0.00  0.00    +0.042 A 
ATOM      8  C   UNL     1      -0.125  -9.421   1.331  0.00  0.00    +0.009 A 
ATOM      9  C   UNL     1      -0.037 -10.647   1.929  0.00  0.00    +0.193 A 
ATOM     10  O   UNL     1       0.099 -10.465   3.265  0.00  0.00    -0.454 OA
ATOM     11  C   UNL     1      -0.273  -9.142  -0.143  0.00  0.00    +0.048 C 
ENDROOT
BRANCH   9  12
ATOM     12  C   UNL     1      -0.070 -11.941   1.239  0.00  0.00    +0.286 C 
ATOM     13  O   UNL     1      -0.321 -11.990   0.049  0.00  0.00    -0.266 OA
ATOM     14  N   UNL     1       0.177 -13.076   1.923  0.00  0.00    -0.265 N 
ATOM     15  C   UNL     1       0.463 -13.033   3.363  0.00  0.00    +0.114 C 
ATOM     16  C   UNL     1       1.657 -13.957   3.632  0.00  0.00    +0.024 C 
ATOM     17  C   UNL     1       1.262 -15.390   3.275  0.00  0.00    +0.038 C 
ATOM     18  C   UNL     1       0.679 -15.447   1.888  0.00  0.00    -0.026 A 
ATOM     19  C   UNL     1       0.160 -14.317   1.273  0.00  0.00    +0.040 A 
ATOM     20  C   UNL     1      -0.381 -14.404  -0.005  0.00  0.00    +0.024 A 
ATOM     21  C   UNL     1      -0.405 -15.618  -0.663  0.00  0.00    +0.002 A 
ATOM     22  C   UNL     1       0.110 -16.745  -0.051  0.00  0.00    +0.000 A 
ATOM     23  C   UNL     1       0.658 -16.659   1.219  0.00  0.00    +0.005 A 
ENDBRANCH   9  12
BRANCH   1  26
ATOM     24  C   UNL     1       0.040  -4.234   0.082  0.00  0.00    +0.263 C 
ATOM     25  O   UNL     1       0.164  -4.823  -0.975  0.00  0.00    -0.268 OA
ATOM     26  N   UNL     1      -0.052  -4.929   1.233  0.00  0.00    -0.203 N 
ATOM     27  H   UNL     1      -0.151  -4.459   2.076  0.00  0.00    +0.178 HD
BRANCH  24  32
ATOM     28  C   UNL     1      -0.154   1.516   0.167  0.00  0.00    +0.044 C 
ATOM     29  C   UNL     1      -0.104   0.010   0.145  0.00  0.00    -0.050 A 
ATOM     30  C   UNL     1       0.038  -0.656  -1.060  0.00  0.00    +0.004 A 
ATOM     31  C   UNL     1       0.085  -2.035  -1.087  0.00  0.00    +0.013 A 
ATOM     32  C   UNL     1      -0.010  -2.757   0.104  0.00  0.00    +0.038 A 
ATOM     33  C   UNL     1      -0.152  -2.079   1.315  0.00  0.00    +0.013 A 
ATOM     34  C   UNL     1      -0.193  -0.700   1.329  0.00  0.00    +0.004 A 
ENDBRANCH  24  32
ENDBRANCH   1  26
TORSDOF 3
