REMARK  Name = ZINC62244816
REMARK  5 active torsions:
REMARK  status: ('A' for Active; 'I' for Inactive)
REMARK    1  A    between atoms: C_1  and  C_2
REMARK    2  A    between atoms: C_7  and  N_8
REMARK    3  A    between atoms: C_9  and  C_15
REMARK    4  A    between atoms: C_10  and  C_13
REMARK    5  A    between atoms: C_13  and  N_14
REMARK                            x       y       z     vdW  Elec       q    Type
REMARK                         _______ _______ _______ _____ _____    ______ ____
ROOT
ATOM      1  N   UNL     1       0.168   0.117   2.335  0.00  0.00    -0.212 N 
ATOM      2  C   UNL     1       0.380  -0.353   3.605  0.00  0.00    +0.097 A 
ATOM      3  C   UNL     1       0.374   0.735   4.426  0.00  0.00    +0.074 A 
ATOM      4  N   UNL     1       0.169   1.826   3.691  0.00  0.00    -0.135 NA
ATOM      5  N   UNL     1       0.047   1.510   2.450  0.00  0.00    -0.060 NA
ENDROOT
BRANCH   1  12
ATOM      6  C   UNL     1      -2.007   0.593   0.563  0.00  0.00    +0.046 C 
ATOM      7  C   UNL     1      -0.951  -0.440   0.267  0.00  0.00    -0.025 A 
ATOM      8  C   UNL     1      -1.018  -1.184  -0.895  0.00  0.00    +0.005 A 
ATOM      9  C   UNL     1      -0.049  -2.132  -1.167  0.00  0.00    +0.000 A 
ATOM     10  C   UNL     1       0.990  -2.339  -0.278  0.00  0.00    +0.002 A 
ATOM     11  C   UNL     1       1.062  -1.598   0.885  0.00  0.00    +0.028 A 
ATOM     12  C   UNL     1       0.094  -0.640   1.159  0.00  0.00    +0.071 A 
ENDBRANCH   1  12
BRANCH   2  13
ATOM     13  C   UNL     1       0.575  -1.764   4.006  0.00  0.00    +0.021 A 
ATOM     14  C   UNL     1       1.858  -2.309   4.048  0.00  0.00    +0.011 A 
ATOM     15  C   UNL     1       2.034  -3.625   4.423  0.00  0.00    +0.001 A 
ATOM     16  C   UNL     1       0.941  -4.405   4.757  0.00  0.00    +0.001 A 
ATOM     17  C   UNL     1      -0.335  -3.872   4.717  0.00  0.00    +0.020 A 
ATOM     18  C   UNL     1      -0.524  -2.554   4.349  0.00  0.00    +0.050 A 
ATOM     19 CL   UNL     1      -2.125  -1.884   4.307  0.00  0.00    -0.083 Cl
ENDBRANCH   2  13
BRANCH   3  20
ATOM     20  C   UNL     1       0.569   0.708   5.920  0.00  0.00    -0.026 C 
BRANCH  20  21
ATOM     21  N   UNL     1       1.999   0.839   6.229  0.00  0.00    +0.382 N 
ATOM     22  H   UNL     1       2.130   0.820   7.230  0.00  0.00    -0.090 HD
ATOM     23  H   UNL     1       2.505   0.073   5.810  0.00  0.00    -0.090 HD
ATOM     24  H   UNL     1       2.345   1.712   5.861  0.00  0.00    -0.090 HD
ENDBRANCH  20  21
ENDBRANCH   3  20
TORSDOF 4
