REMARK  Name = ZINC36652185
REMARK  4 active torsions:
REMARK  status: ('A' for Active; 'I' for Inactive)
REMARK    1  A    between atoms: C_1  and  C_2
REMARK    2  A    between atoms: C_10  and  C_11
REMARK    3  A    between atoms: C_16  and  C_19
REMARK    4  A    between atoms: C_19  and  N_20
REMARK                            x       y       z     vdW  Elec       q    Type
REMARK                         _______ _______ _______ _____ _____    ______ ____
ROOT
ATOM      1  C   UNL     1       0.033  -0.383   2.483  0.00  0.00    +0.285 C 
ATOM      2  O   UNL     1       0.020   0.806   2.745  0.00  0.00    -0.266 OA
ATOM      3  N   UNL     1       0.055  -1.291   3.478  0.00  0.00    -0.258 N 
ATOM      4  C   UNL     1       0.063  -0.872   4.802  0.00  0.00    +0.165 A 
ATOM      5  N   UNL     1       0.089  -1.607   5.893  0.00  0.00    -0.231 NA
ATOM      6  C   UNL     1       0.093  -1.051   7.090  0.00  0.00    +0.034 A 
ATOM      7  C   UNL     1       0.069   0.303   7.141  0.00  0.00    +0.070 A 
ATOM      8  S   UNL     1       0.049   0.701   5.401  0.00  0.00    -0.060 S 
ATOM      9  H   UNL     1       0.065  -2.239   3.270  0.00  0.00    +0.157 HD
ENDROOT
BRANCH   1  19
ATOM     10  C   UNL     1      -0.018   1.503   0.010  0.00  0.00    +0.048 C 
ATOM     11  C   UNL     1       0.002  -0.004   0.002  0.00  0.00    +0.008 A 
ATOM     12  C   UNL     1       0.009  -0.877  -1.171  0.00  0.00    +0.025 A 
ATOM     13  C   UNL     1      -0.000  -0.654  -2.551  0.00  0.00    +0.012 A 
ATOM     14  C   UNL     1       0.010  -1.717  -3.409  0.00  0.00    +0.002 A 
ATOM     15  C   UNL     1       0.029  -3.016  -2.920  0.00  0.00    +0.024 A 
ATOM     16  C   UNL     1       0.038  -3.258  -1.562  0.00  0.00    +0.084 A 
ATOM     17  C   UNL     1       0.029  -2.191  -0.669  0.00  0.00    +0.154 A 
ATOM     18  O   UNL     1       0.034  -2.113   0.676  0.00  0.00    -0.448 OA
ATOM     19  C   UNL     1       0.024  -0.827   1.083  0.00  0.00    +0.194 A 
ATOM     20 CL   UNL     1       0.061  -4.889  -0.969  0.00  0.00    -0.080 Cl
ENDBRANCH   1  19
BRANCH   6  21
ATOM     21  C   UNL     1       0.123  -1.885   8.345  0.00  0.00    -0.022 C 
BRANCH  21  22
ATOM     22  N   UNL     1      -1.246  -2.282   8.702  0.00  0.00    +0.383 N 
ATOM     23  C   UNL     1      -2.028  -1.086   9.038  0.00  0.00    -0.078 C 
ATOM     24  C   UNL     1      -3.476  -1.485   9.332  0.00  0.00    -0.019 C 
ATOM     25  C   UNL     1      -3.501  -2.462  10.511  0.00  0.00    -0.004 C 
ATOM     26  C   UNL     1      -2.622  -3.671  10.178  0.00  0.00    -0.019 C 
ATOM     27  C   UNL     1      -1.206  -3.192   9.853  0.00  0.00    -0.078 C 
ATOM     28  H   UNL     1      -1.674  -2.752   7.918  0.00  0.00    -0.081 HD
ENDBRANCH  21  22
ENDBRANCH   6  21
TORSDOF 3
