REMARK  Name = ZINC04331422
REMARK  6 active torsions:
REMARK  status: ('A' for Active; 'I' for Inactive)
REMARK    1  A    between atoms: C_1  and  C_2
REMARK    2  A    between atoms: C_2  and  S_3
REMARK    3  A    between atoms: S_3  and  C_4
REMARK    4  A    between atoms: C_13  and  C_15
REMARK    5  A    between atoms: C_23  and  C_25
REMARK    6  A    between atoms: C_23  and  C_26
REMARK                            x       y       z     vdW  Elec       q    Type
REMARK                         _______ _______ _______ _____ _____    ______ ____
ROOT
ATOM      1  C   UNL     1      -1.979   2.452  -3.422  0.00  0.00    +0.192 A 
ATOM      2  N   UNL     1      -1.126   1.443  -3.527  0.00  0.00    -0.207 NA
ATOM      3  C   UNL     1      -0.482   0.980  -2.458  0.00  0.00    +0.126 A 
ATOM      4  C   UNL     1      -0.719   1.573  -1.221  0.00  0.00    +0.045 A 
ATOM      5  C   UNL     1      -1.621   2.625  -1.151  0.00  0.00    +0.133 A 
ATOM      6  N   UNL     1      -2.228   3.038  -2.260  0.00  0.00    -0.206 NA
ATOM      7  N   UNL     1      -1.878   3.228   0.068  0.00  0.00    -0.302 N 
ATOM      8  C   UNL     1      -1.578   2.586   1.238  0.00  0.00    +0.017 C 
ATOM      9  C   UNL     1      -0.699   1.563   1.263  0.00  0.00    +0.024 C 
ATOM     10  C   UNL     1      -0.013   1.086   0.008  0.00  0.00    +0.097 C 
ATOM     11  C   UNL     1      -0.390   0.905   2.468  0.00  0.00    +0.162 C 
ATOM     12  O   UNL     1       0.392  -0.025   2.454  0.00  0.00    -0.292 OA
ATOM     13  C   UNL     1      -1.006   1.330   3.772  0.00  0.00    +0.086 C 
ATOM     14  C   UNL     1      -1.342   2.824   3.700  0.00  0.00    -0.023 C 
ATOM     15  C   UNL     1      -2.264   3.053   2.500  0.00  0.00    +0.058 C 
ATOM     16  C   UNL     1      -0.056   3.634   3.525  0.00  0.00    +0.011 C 
ATOM     17  C   UNL     1      -2.053   3.255   4.985  0.00  0.00    +0.011 C 
ATOM     18  N   UNL     1       0.410  -0.075  -2.575  0.00  0.00    -0.343 N 
ATOM     19  H   UNL     1      -2.275   4.113   0.093  0.00  0.00    +0.153 HD
ATOM     20  H   UNL     1       0.875  -0.406  -1.791  0.00  0.00    +0.144 HD
ATOM     21  H   UNL     1       0.569  -0.482  -3.441  0.00  0.00    +0.144 HD
ENDROOT
BRANCH  10  22
ATOM     22  C   UNL     1       1.405   1.598  -0.003  0.00  0.00    +0.002 A 
ATOM     23  C   UNL     1       2.565   0.897  -0.012  0.00  0.00    +0.012 A 
ATOM     24  C   UNL     1       3.764   1.586  -0.025  0.00  0.00    +0.008 A 
ATOM     25  C   UNL     1       3.743   2.941  -0.017  0.00  0.00    +0.045 A 
ATOM     26  S   UNL     1       1.991   3.284   0.001  0.00  0.00    -0.101 S 
ENDBRANCH  10  22
BRANCH   1  27
ATOM     27  S   UNL     1      -2.804   3.030  -4.868  0.00  0.00    -0.086 S 
BRANCH  27  29
ATOM     28  C   UNL     1      -2.690   2.228  -7.477  0.00  0.00    +0.016 C 
ATOM     29  C   UNL     1      -2.103   1.906  -6.101  0.00  0.00    +0.074 C 
ENDBRANCH  27  29
ENDBRANCH   1  27
TORSDOF 3
