REMARK  Name = ZINC40685866
REMARK  5 active torsions:
REMARK  status: ('A' for Active; 'I' for Inactive)
REMARK    1  A    between atoms: C_1  and  C_2
REMARK    2  A    between atoms: C_6  and  N_8
REMARK    3  A    between atoms: C_10  and  N_26
REMARK    4  A    between atoms: C_11  and  S_15
REMARK    5  A    between atoms: S_15  and  C_16
REMARK                            x       y       z     vdW  Elec       q    Type
REMARK                         _______ _______ _______ _____ _____    ______ ____
ROOT
ATOM      1  N   UNL     1      -0.238  -2.640   2.385  0.00  0.00    -0.283 N 
ATOM      2  C   UNL     1      -0.291  -4.029   2.446  0.00  0.00    +0.149 A 
ATOM      3  C   UNL     1      -0.289  -4.685   3.678  0.00  0.00    +0.098 A 
ATOM      4  C   UNL     1      -0.344  -6.081   3.682  0.00  0.00    +0.127 A 
ATOM      5  N   UNL     1      -0.396  -6.727   2.519  0.00  0.00    -0.227 NA
ATOM      6  C   UNL     1      -0.397  -6.069   1.378  0.00  0.00    +0.224 A 
ATOM      7  N   UNL     1      -0.351  -4.753   1.330  0.00  0.00    -0.219 NA
ATOM      8  H   UNL     1      -0.123  -2.123   3.197  0.00  0.00    +0.155 HD
ENDROOT
BRANCH   1  14
ATOM      9  C   UNL     1      -0.565  -2.985  -2.380  0.00  0.00    +0.065 C 
ATOM     10  C   UNL     1      -0.509  -2.130  -1.140  0.00  0.00    +0.040 A 
ATOM     11  C   UNL     1      -0.570  -0.756  -1.257  0.00  0.00    +0.023 A 
ATOM     12  C   UNL     1      -0.518   0.027  -0.111  0.00  0.00    +0.005 A 
ATOM     13  C   UNL     1      -0.407  -0.604   1.115  0.00  0.00    +0.044 A 
ATOM     14  C   UNL     1      -0.351  -1.993   1.158  0.00  0.00    +0.124 A 
ATOM     15  N   UNL     1      -0.408  -2.705   0.043  0.00  0.00    -0.237 NA
ENDBRANCH   1  14
BRANCH   3  16
ATOM     16  N   UNL     1      -0.232  -3.962   4.880  0.00  0.00    -0.353 N 
ATOM     17  H   UNL     1      -0.194  -2.993   4.861  0.00  0.00    +0.142 HD
ATOM     18  H   UNL     1      -0.231  -4.432   5.728  0.00  0.00    +0.142 HD
ENDBRANCH   3  16
BRANCH   4  19
ATOM     19  S   UNL     1      -0.344  -6.972   5.202  0.00  0.00    -0.066 S 
BRANCH  19  20
ATOM     20  C   UNL     1      -0.274  -8.661   4.706  0.00  0.00    +0.040 A 
ATOM     21  C   UNL     1       0.904  -9.369   4.813  0.00  0.00    +0.017 A 
ATOM     22  C   UNL     1       0.973 -10.703   4.425  0.00  0.00    +0.002 A 
ATOM     23  C   UNL     1      -0.121 -11.345   3.928  0.00  0.00    +0.010 A 
ATOM     24  C   UNL     1      -1.340 -10.659   3.802  0.00  0.00    +0.001 A 
ATOM     25  C   UNL     1      -1.427  -9.302   4.199  0.00  0.00    +0.085 A 
ATOM     26  N   UNL     1      -2.585  -8.648   4.087  0.00  0.00    -0.254 NA
ATOM     27  C   UNL     1      -3.658  -9.238   3.618  0.00  0.00    +0.111 A 
ATOM     28  C   UNL     1      -3.644 -10.572   3.215  0.00  0.00    +0.020 A 
ATOM     29  C   UNL     1      -2.488 -11.294   3.292  0.00  0.00    +0.011 A 
ENDBRANCH  19  20
ENDBRANCH   4  19
TORSDOF 4
