REMARK  Name = ZINC64921373
REMARK  7 active torsions:
REMARK  status: ('A' for Active; 'I' for Inactive)
REMARK    1  A    between atoms: C_1  and  C_2
REMARK    2  A    between atoms: C_2  and  C_4
REMARK    3  A    between atoms: C_2  and  C_28
REMARK    4  A    between atoms: C_4  and  N_5
REMARK    5  A    between atoms: C_6  and  C_8
REMARK    6  A    between atoms: N_11  and  S_14
REMARK    7  A    between atoms: S_14  and  C_17
REMARK                            x       y       z     vdW  Elec       q    Type
REMARK                         _______ _______ _______ _____ _____    ______ ____
ROOT
ATOM      1  C   UNL     1       4.443  -0.023   2.090  0.00  0.00    +0.077 C 
ATOM      2  C   UNL     1       5.084  -0.616   0.834  0.00  0.00    +0.030 C 
ATOM      3  C   UNL     1       6.543  -0.160   0.746  0.00  0.00    +0.110 C 
ATOM      4  N   UNL     1       7.226  -0.516   1.997  0.00  0.00    -0.177 NA
ATOM      5  C   UNL     1       6.644  -0.073   3.271  0.00  0.00    +0.110 C 
ATOM      6  C   UNL     1       5.183  -0.530   3.330  0.00  0.00    +0.030 C 
ENDROOT
BRANCH   1   8
ATOM      7  N   UNL     1       2.148  -0.104   1.172  0.00  0.00    -0.315 N 
ATOM      8  C   UNL     1       2.997  -0.441   2.162  0.00  0.00    +0.216 C 
ATOM      9  O   UNL     1       2.598  -1.082   3.111  0.00  0.00    -0.276 OA
ATOM     10  H   UNL     1       2.467   0.409   0.412  0.00  0.00    +0.149 HD
BRANCH   7  11
ATOM     11  C   UNL     1       0.742  -0.511   1.242  0.00  0.00    +0.112 C 
BRANCH  11  13
ATOM     12  C   UNL     1      -0.019   1.526   0.010  0.00  0.00    +0.014 C 
ATOM     13  C   UNL     1       0.002  -0.004   0.002  0.00  0.00    +0.033 C 
BRANCH  13  14
ATOM     14  C   UNL     1      -1.412  -0.526   0.013  0.00  0.00    -0.043 A 
ATOM     15  C   UNL     1      -2.259  -0.204   1.056  0.00  0.00    +0.004 A 
ATOM     16  C   UNL     1      -3.556  -0.683   1.066  0.00  0.00    +0.000 A 
ATOM     17  C   UNL     1      -4.006  -1.482   0.032  0.00  0.00    +0.000 A 
ATOM     18  C   UNL     1      -3.159  -1.803  -1.012  0.00  0.00    +0.000 A 
ATOM     19  C   UNL     1      -1.863  -1.321  -1.024  0.00  0.00    +0.004 A 
ENDBRANCH  13  14
ENDBRANCH  11  13
ENDBRANCH   7  11
ENDBRANCH   1   8
BRANCH   4  20
ATOM     20  S   UNL     1       8.626  -1.401   1.972  0.00  0.00    +0.061 S 
ATOM     21  O   UNL     1       8.725  -2.041   3.237  0.00  0.00    -0.153 OA
ATOM     22  O   UNL     1       8.626  -2.127   0.750  0.00  0.00    -0.153 OA
BRANCH  20  23
ATOM     23  C   UNL     1       9.963  -0.259   1.879  0.00  0.00    +0.107 A 
ATOM     24  C   UNL     1      10.435   0.151   0.645  0.00  0.00    +0.032 A 
ATOM     25  C   UNL     1      11.485   1.049   0.564  0.00  0.00    +0.049 A 
ATOM     26  C   UNL     1      12.065   1.538   1.721  0.00  0.00    +0.142 A 
ATOM     27  C   UNL     1      11.589   1.125   2.964  0.00  0.00    +0.078 A 
ATOM     28  C   UNL     1      10.535   0.230   3.039  0.00  0.00    +0.055 A 
ATOM     29  N   UNL     1      12.188   1.627   4.129  0.00  0.00    -0.280 N 
ATOM     30  C   UNL     1      12.980   2.717   4.040  0.00  0.00    +0.255 C 
ATOM     31  O   UNL     1      13.534   3.150   5.029  0.00  0.00    -0.272 OA
ATOM     32  C   UNL     1      13.175   3.393   2.706  0.00  0.00    +0.325 C 
ATOM     33  O   UNL     1      13.097   2.422   1.659  0.00  0.00    -0.481 OA
ATOM     34  H   UNL     1      12.034   1.198   4.985  0.00  0.00    +0.155 HD
ENDBRANCH  20  23
ENDBRANCH   4  20
TORSDOF 6
