REMARK  Name = ZINC40940936
REMARK  6 active torsions:
REMARK  status: ('A' for Active; 'I' for Inactive)
REMARK    1  A    between atoms: C_3  and  C_9
REMARK    2  A    between atoms: C_9  and  C_11
REMARK    3  A    between atoms: C_9  and  N_21
REMARK    4  A    between atoms: C_11  and  C_12
REMARK    5  A    between atoms: C_12  and  C_17
REMARK    6  A    between atoms: C_17  and  C_18
REMARK                            x       y       z     vdW  Elec       q    Type
REMARK                         _______ _______ _______ _____ _____    ______ ____
ROOT
ATOM      1  C   UNL     1       3.257   3.029   2.266  0.00  0.00    -0.042 C 
ENDROOT
BRANCH   1   4
ATOM      2  C   UNL     1      -0.107   1.447   2.922  0.00  0.00    +0.020 A 
ATOM      3  C   UNL     1       1.188   1.894   3.100  0.00  0.00    +0.005 A 
ATOM      4  C   UNL     1       1.845   2.541   2.071  0.00  0.00    -0.043 A 
ATOM      5  C   UNL     1       1.205   2.742   0.860  0.00  0.00    +0.044 A 
ATOM      6  C   UNL     1      -0.091   2.294   0.681  0.00  0.00    +0.040 A 
ATOM      7  C   UNL     1      -0.748   1.647   1.712  0.00  0.00    +0.042 A 
ATOM      8 CL   UNL     1      -2.375   1.085   1.488  0.00  0.00    -0.083 Cl
ATOM      9 CL   UNL     1       2.029   3.555  -0.433  0.00  0.00    -0.083 Cl
ENDBRANCH   1   4
BRANCH   1  10
ATOM     10  N   UNL     1       3.541   3.143   3.703  0.00  0.00    +0.383 N 
ATOM     11  H   UNL     1       2.780   3.622   4.160  0.00  0.00    -0.089 HD
ATOM     12  H   UNL     1       3.644   2.221   4.099  0.00  0.00    -0.089 HD
ATOM     13  H   UNL     1       4.395   3.664   3.837  0.00  0.00    -0.089 HD
ENDBRANCH   1  10
BRANCH   1  14
ATOM     14  C   UNL     1       4.232   2.037   1.630  0.00  0.00    -0.004 C 
BRANCH  14  15
ATOM     15  C   UNL     1       5.646   2.622   1.657  0.00  0.00    -0.022 C 
ATOM     16  C   UNL     1       5.635   4.055   1.086  0.00  0.00    +0.007 C 
ATOM     17  C   UNL     1       5.528   4.962   2.337  0.00  0.00    +0.001 C 
ATOM     18  C   UNL     1       6.418   4.226   3.369  0.00  0.00    +0.001 C 
ATOM     19  C   UNL     1       6.144   2.731   3.109  0.00  0.00    +0.007 C 
BRANCH  15  20
ATOM     20  C   UNL     1       6.594   1.739   0.843  0.00  0.00    +0.102 C 
BRANCH  20  21
ATOM     21  C   UNL     1       7.981   2.326   0.877  0.00  0.00    +0.211 C 
ATOM     22  O   UNL     1       8.191   3.350   1.493  0.00  0.00    -0.276 OA
ATOM     23  N   UNL     1       8.989   1.714   0.225  0.00  0.00    -0.329 N 
ATOM     24  H   UNL     1       8.821   0.895  -0.268  0.00  0.00    +0.145 HD
ATOM     25  H   UNL     1       9.882   2.092   0.247  0.00  0.00    +0.145 HD
ENDBRANCH  20  21
ENDBRANCH  15  20
ENDBRANCH  14  15
ENDBRANCH   1  14
TORSDOF 6
