REMARK  Name = ZINC35702616
REMARK  2 active torsions:
REMARK  status: ('A' for Active; 'I' for Inactive)
REMARK    1  A    between atoms: C_10  and  C_12
REMARK    2  A    between atoms: C_15  and  N_18
REMARK                            x       y       z     vdW  Elec       q    Type
REMARK                         _______ _______ _______ _____ _____    ______ ____
ROOT
ATOM      1  C   UNL     1      -0.016   1.345   0.009  0.00  0.00    +0.019 A 
ATOM      2  C   UNL     1       1.322   1.785  -0.001  0.00  0.00    +0.024 A 
ATOM      3  C   UNL     1       2.107   0.690  -0.010  0.00  0.00    +0.040 A 
ATOM      4  N   UNL     1       1.302  -0.413  -0.023  0.00  0.00    -0.349 N 
ATOM      5  C   UNL     1       0.002  -0.004   0.002  0.00  0.00    +0.086 A 
ATOM      6  C   UNL     1       1.770  -1.803  -0.076  0.00  0.00    +0.123 C 
ATOM      7  C   UNL     1       2.891  -1.998   0.949  0.00  0.00    +0.037 C 
ATOM      8  C   UNL     1       4.234  -1.647   0.317  0.00  0.00    +0.083 C 
ATOM      9  N   UNL     1       4.090  -0.557  -0.649  0.00  0.00    -0.304 NA
ATOM     10  C   UNL     1       3.616   0.673  -0.000  0.00  0.00    +0.131 C 
ATOM     11  H   UNL     1       4.955  -0.395  -1.143  0.00  0.00    +0.123 HD
ENDROOT
BRANCH  10  12
ATOM     12  C   UNL     1       4.137   1.872  -0.751  0.00  0.00    -0.025 A 
ATOM     13  C   UNL     1       4.175   1.859  -2.132  0.00  0.00    +0.008 A 
ATOM     14  C   UNL     1       4.654   2.958  -2.821  0.00  0.00    +0.033 A 
ATOM     15  C   UNL     1       5.093   4.071  -2.127  0.00  0.00    +0.126 A 
ATOM     16  C   UNL     1       5.054   4.084  -0.745  0.00  0.00    +0.033 A 
ATOM     17  C   UNL     1       4.572   2.986  -0.057  0.00  0.00    +0.008 A 
BRANCH  15  18
ATOM     18  N   UNL     1       5.606   5.247  -2.864  0.00  0.00    +0.056 N 
ATOM     19  O   UNL     1       5.641   5.236  -4.072  0.00  0.00    -0.126 OA
ATOM     20  O   UNL     1       5.990   6.220  -2.258  0.00  0.00    -0.126 OA
ENDBRANCH  15  18
ENDBRANCH  10  12
TORSDOF 2
