REMARK  Name = ZINC65591111
REMARK  7 active torsions:
REMARK  status: ('A' for Active; 'I' for Inactive)
REMARK    1  A    between atoms: C_1  and  C_2
REMARK    2  A    between atoms: C_5  and  C_7
REMARK    3  A    between atoms: C_14  and  C_16
REMARK    4  A    between atoms: C_16  and  C_18
REMARK    5  A    between atoms: C_16  and  N_19
REMARK    6  A    between atoms: C_20  and  C_22
REMARK    7  A    between atoms: C_26  and  N_28
REMARK                            x       y       z     vdW  Elec       q    Type
REMARK                         _______ _______ _______ _____ _____    ______ ____
ROOT
ATOM      1  C   UNL     1       2.543  -5.294   0.540  0.00  0.00    +0.156 C 
ATOM      2  C   UNL     1       3.456  -5.634   1.720  0.00  0.00    +0.038 C 
ENDROOT
BRANCH   1   9
ATOM      3  C   UNL     1      -0.285  -3.064   1.857  0.00  0.00    +0.132 C 
ATOM      4  C   UNL     1      -1.712  -3.445   1.450  0.00  0.00    +0.029 C 
ATOM      5  C   UNL     1      -2.127  -4.718   2.190  0.00  0.00    +0.004 C 
ATOM      6  C   UNL     1      -1.192  -5.865   1.800  0.00  0.00    +0.019 C 
ATOM      7  C   UNL     1       0.241  -5.512   2.211  0.00  0.00    +0.108 C 
ATOM      8  N   UNL     1       0.599  -4.214   1.622  0.00  0.00    -0.291 N 
ATOM      9  C   UNL     1       1.715  -4.082   0.878  0.00  0.00    +0.236 C 
ATOM     10  O   UNL     1       2.052  -2.986   0.481  0.00  0.00    -0.274 OA
BRANCH   3  15
ATOM     11  C   UNL     1       1.706   1.457   1.058  0.00  0.00    +0.066 C 
ATOM     12  C   UNL     1       1.081   0.168   0.591  0.00  0.00    +0.046 A 
ATOM     13  C   UNL     1       0.862  -0.078  -0.726  0.00  0.00    +0.070 A 
ATOM     14  S   UNL     1       0.129  -1.704  -0.640  0.00  0.00    -0.078 S 
ATOM     15  C   UNL     1       0.180  -1.892   1.032  0.00  0.00    +0.099 A 
ATOM     16  N   UNL     1       0.727  -0.775   1.441  0.00  0.00    -0.247 NA
ENDBRANCH   3  15
ENDBRANCH   1   9
BRANCH   1  17
ATOM     17  N   UNL     1       3.360  -5.013  -0.644  0.00  0.00    -0.300 N 
ATOM     18  C   UNL     1       3.781  -6.025  -1.428  0.00  0.00    +0.245 C 
ATOM     19  O   UNL     1       3.484  -7.171  -1.153  0.00  0.00    -0.270 OA
ATOM     20  H   UNL     1       3.597  -4.098  -0.863  0.00  0.00    +0.150 HD
BRANCH  18  21
ATOM     21  C   UNL     1       4.605  -5.741  -2.622  0.00  0.00    +0.039 A 
ATOM     22  C   UNL     1       4.953  -4.426  -2.937  0.00  0.00    +0.013 A 
ATOM     23  C   UNL     1       5.723  -4.168  -4.053  0.00  0.00    +0.003 A 
ATOM     24  C   UNL     1       6.149  -5.210  -4.859  0.00  0.00    +0.033 A 
ATOM     25  C   UNL     1       5.807  -6.514  -4.552  0.00  0.00    +0.127 A 
ATOM     26  C   UNL     1       5.043  -6.787  -3.436  0.00  0.00    +0.045 A 
BRANCH  25  27
ATOM     27  N   UNL     1       6.267  -7.622  -5.420  0.00  0.00    +0.056 N 
ATOM     28  O   UNL     1       6.940  -7.385  -6.396  0.00  0.00    -0.126 OA
ATOM     29  O   UNL     1       5.969  -8.762  -5.154  0.00  0.00    -0.126 OA
ENDBRANCH  25  27
ENDBRANCH  18  21
ENDBRANCH   1  17
TORSDOF 5
