REMARK  Name = ZINC39671519
REMARK  4 active torsions:
REMARK  status: ('A' for Active; 'I' for Inactive)
REMARK    1  A    between atoms: C_6  and  C_11
REMARK    2  A    between atoms: C_11  and  N_12
REMARK    3  A    between atoms: C_13  and  C_15
REMARK    4  A    between atoms: C_26  and  C_28
REMARK                            x       y       z     vdW  Elec       q    Type
REMARK                         _______ _______ _______ _____ _____    ______ ____
ROOT
ATOM      1  C   UNL     1      -8.475   0.313   2.555  0.00  0.00    +0.100 C 
ATOM      2  C   UNL     1      -7.880   1.332   3.553  0.00  0.00    +0.121 C 
ATOM      3  N   UNL     1      -8.965   2.316   3.775  0.00  0.00    -0.296 N 
ATOM      4  C   UNL     1     -10.200   1.498   3.826  0.00  0.00    +0.115 C 
ATOM      5  C   UNL     1      -9.998   0.423   2.740  0.00  0.00    -0.004 C 
ATOM      6  C   UNL     1     -10.571  -0.913   3.204  0.00  0.00    -0.010 C 
ATOM      7  C   UNL     1     -12.093  -0.796   3.325  0.00  0.00    -0.082 C 
ATOM      8  N   UNL     1     -12.661  -0.423   2.024  0.00  0.00    +0.379 N 
ATOM      9  C   UNL     1     -12.177   0.905   1.628  0.00  0.00    -0.082 C 
ATOM     10  C   UNL     1     -10.658   0.860   1.436  0.00  0.00    -0.010 C 
ATOM     11  C   UNL     1      -8.854   3.653   3.903  0.00  0.00    +0.249 C 
ATOM     12  O   UNL     1      -9.833   4.321   4.177  0.00  0.00    -0.270 OA
ATOM     13  H   UNL     1     -12.384  -1.101   1.330  0.00  0.00    -0.086 HD
ATOM     14  H   UNL     1     -13.668  -0.406   2.090  0.00  0.00    -0.086 HD
ENDROOT
BRANCH  11  15
ATOM     15  C   UNL     1      -7.544   4.307   3.711  0.00  0.00    +0.073 A 
ATOM     16  C   UNL     1      -6.372   3.661   4.111  0.00  0.00    +0.036 A 
ATOM     17  C   UNL     1      -5.151   4.278   3.928  0.00  0.00    +0.042 A 
ATOM     18  C   UNL     1      -5.085   5.535   3.349  0.00  0.00    +0.023 A 
ATOM     19  C   UNL     1      -6.240   6.181   2.950  0.00  0.00    +0.040 A 
ATOM     20  C   UNL     1      -7.471   5.573   3.123  0.00  0.00    +0.136 A 
ATOM     21  F   UNL     1      -8.598   6.203   2.728  0.00  0.00    -0.205 F 
ATOM     22 CL   UNL     1      -3.694   3.476   4.425  0.00  0.00    -0.084 Cl
ENDBRANCH  11  15
BRANCH   1  24
ATOM     23  N   UNL     1      -7.999  -0.284   0.202  0.00  0.00    -0.309 N 
ATOM     24  C   UNL     1      -8.090   0.676   1.144  0.00  0.00    +0.219 C 
ATOM     25  O   UNL     1      -7.862   1.832   0.855  0.00  0.00    -0.275 OA
ATOM     26  H   UNL     1      -8.181  -1.209   0.433  0.00  0.00    +0.149 HD
BRANCH  23  27
ATOM     27  C   UNL     1      -7.625   0.068  -1.170  0.00  0.00    +0.157 C 
BRANCH  27  33
ATOM     28  C   UNL     1      -6.945  -4.986  -4.491  0.00  0.00    +0.001 A 
ATOM     29  C   UNL     1      -8.310  -4.833  -4.686  0.00  0.00    +0.002 A 
ATOM     30  C   UNL     1      -8.989  -3.780  -4.112  0.00  0.00    +0.026 A 
ATOM     31  C   UNL     1      -8.301  -2.860  -3.329  0.00  0.00    +0.047 A 
ATOM     32  N   UNL     1      -8.682  -1.731  -2.638  0.00  0.00    -0.357 N 
ATOM     33  C   UNL     1      -7.595  -1.177  -2.018  0.00  0.00    +0.034 A 
ATOM     34  H   UNL     1      -9.585  -1.381  -2.597  0.00  0.00    +0.166 HD
ATOM     35  C   UNL     1      -6.499  -1.907  -2.277  0.00  0.00    +0.032 A 
ATOM     36  C   UNL     1      -6.917  -3.019  -3.133  0.00  0.00    -0.000 A 
ATOM     37  C   UNL     1      -6.250  -4.096  -3.720  0.00  0.00    +0.010 A 
ENDBRANCH  27  33
ENDBRANCH  23  27
ENDBRANCH   1  24
TORSDOF 4
