REMARK  Name = ZINC02713957
REMARK  8 active torsions:
REMARK  status: ('A' for Active; 'I' for Inactive)
REMARK    1  A    between atoms: C_1  and  O_2
REMARK    2  A    between atoms: O_2  and  C_3
REMARK    3  A    between atoms: C_3  and  C_5
REMARK    4  A    between atoms: C_5  and  C_6
REMARK    5  A    between atoms: C_6  and  C_33
REMARK    6  A    between atoms: N_11  and  C_12
REMARK    7  A    between atoms: C_33  and  O_35
REMARK    8  A    between atoms: O_35  and  C_36
REMARK                            x       y       z     vdW  Elec       q    Type
REMARK                         _______ _______ _______ _____ _____    ______ ____
ROOT
ATOM      1  C   UNL     1       1.441  -2.683  -2.284  0.00  0.00    +0.218 C 
ATOM      2  N   UNL     1       1.296  -4.142  -2.492  0.00  0.00    -0.162 N 
ATOM      3  N   UNL     1       0.655  -4.508  -3.654  0.00  0.00    -0.153 NA
ATOM      4  C   UNL     1       0.203  -3.651  -4.519  0.00  0.00    +0.178 C 
ATOM      5  S   UNL     1       0.622  -2.066  -3.812  0.00  0.00    -0.049 S 
ATOM      6  N   UNL     1      -0.453  -3.907  -5.713  0.00  0.00    -0.293 N 
ATOM      7  C   UNL     1       1.767  -5.060  -1.594  0.00  0.00    +0.221 A 
ATOM      8  N   UNL     1       1.607  -6.393  -1.846  0.00  0.00    -0.293 N 
ATOM      9  H   UNL     1       1.161  -6.673  -2.661  0.00  0.00    +0.172 HD
ATOM     10  C   UNL     1       2.057  -7.325  -0.986  0.00  0.00    +0.261 A 
ATOM     11  O   UNL     1       1.907  -8.511  -1.226  0.00  0.00    -0.267 OA
ATOM     12  C   UNL     1       2.714  -6.905   0.214  0.00  0.00    +0.075 A 
ATOM     13  C   UNL     1       3.275  -7.738   1.280  0.00  0.00    -0.023 A 
ATOM     14  C   UNL     1       3.849  -7.098   2.318  0.00  0.00    -0.004 A 
ATOM     15  S   UNL     1       3.680  -5.373   1.947  0.00  0.00    -0.073 S 
ATOM     16  C   UNL     1       2.835  -5.516   0.392  0.00  0.00    +0.117 A 
ATOM     17  N   UNL     1       2.374  -4.647  -0.498  0.00  0.00    -0.207 NA
ATOM     18  C   UNL     1       4.489  -7.716   3.524  0.00  0.00    +0.043 C 
ATOM     19  C   UNL     1       4.071  -9.191   3.592  0.00  0.00    +0.005 C 
ATOM     20  C   UNL     1       4.263  -9.820   2.208  0.00  0.00    +0.005 C 
ATOM     21  C   UNL     1       3.223  -9.263   1.236  0.00  0.00    +0.037 C 
ATOM     22  H   UNL     1      -0.815  -3.173  -6.235  0.00  0.00    +0.154 HD
ENDROOT
BRANCH   6  23
ATOM     23  C   UNL     1      -0.594  -5.221  -6.165  0.00  0.00    +0.033 A 
ATOM     24  C   UNL     1      -1.640  -5.557  -7.016  0.00  0.00    +0.023 A 
ATOM     25  C   UNL     1      -1.775  -6.858  -7.461  0.00  0.00    +0.002 A 
ATOM     26  C   UNL     1      -0.872  -7.825  -7.060  0.00  0.00    +0.000 A 
ATOM     27  C   UNL     1       0.170  -7.494  -6.214  0.00  0.00    +0.002 A 
ATOM     28  C   UNL     1       0.316  -6.194  -5.770  0.00  0.00    +0.023 A 
ENDBRANCH   6  23
BRANCH   1  29
ATOM     29  C   UNL     1       2.892  -2.276  -2.237  0.00  0.00    +0.344 C 
ATOM     30  O   UNL     1       3.757  -3.106  -2.388  0.00  0.00    -0.247 OA
BRANCH  29  31
ATOM     31  O   UNL     1       3.222  -0.992  -2.027  0.00  0.00    -0.466 OA
ATOM     32  C   UNL     1       4.615  -0.678  -1.994  0.00  0.00    +0.280 C 
ENDBRANCH  29  31
ENDBRANCH   1  29
BRANCH   1  33
ATOM     33  C   UNL     1       0.697  -2.224  -1.029  0.00  0.00    +0.171 C 
BRANCH  33  34
ATOM     34  C   UNL     1      -0.700  -2.789  -1.037  0.00  0.00    +0.310 C 
ATOM     35  O   UNL     1      -1.099  -3.399  -2.001  0.00  0.00    -0.251 OA
BRANCH  34  37
ATOM     36  C   UNL     1      -2.811  -3.178  -0.050  0.00  0.00    +0.280 C 
ATOM     37  O   UNL     1      -1.500  -2.615   0.026  0.00  0.00    -0.468 OA
ENDBRANCH  34  37
ENDBRANCH  33  34
ENDBRANCH   1  33
TORSDOF 6
