REMARK  Name = ZINC45607051
REMARK  10 active torsions:
REMARK  status: ('A' for Active; 'I' for Inactive)
REMARK    1  A    between atoms: C_1  and  C_2
REMARK    2  A    between atoms: C_4  and  C_8
REMARK    3  A    between atoms: C_5  and  C_7
REMARK    4  A    between atoms: N_10  and  N_11
REMARK    5  A    between atoms: N_14  and  C_15
REMARK    6  A    between atoms: C_15  and  C_17
REMARK    7  A    between atoms: C_15  and  C_18
REMARK    8  A    between atoms: C_18  and  C_19
REMARK    9  A    between atoms: C_19  and  C_20
REMARK   10  A    between atoms: C_23  and  O_26
REMARK                            x       y       z     vdW  Elec       q    Type
REMARK                         _______ _______ _______ _____ _____    ______ ____
ROOT
ATOM      1  N   UNL     1      -3.464  -4.540  -0.007  0.00  0.00    -0.218 N 
ATOM      2  C   UNL     1      -4.811  -4.480  -0.001  0.00  0.00    +0.316 C 
ATOM      3  O   UNL     1      -5.465  -5.505  -0.003  0.00  0.00    -0.251 OA
ATOM      4  N   UNL     1      -5.432  -3.284   0.008  0.00  0.00    -0.296 N 
ATOM      5  H   UNL     1      -3.017  -5.400  -0.013  0.00  0.00    +0.174 HD
ATOM      6  H   UNL     1      -4.910  -2.466   0.010  0.00  0.00    +0.151 HD
ENDROOT
BRANCH   1   9
ATOM      7  C   UNL     1      -1.364  -3.418  -0.010  0.00  0.00    +0.263 C 
ATOM      8  O   UNL     1      -0.804  -4.497  -0.018  0.00  0.00    -0.269 OA
ATOM      9  N   UNL     1      -2.711  -3.358  -0.004  0.00  0.00    -0.229 N 
ATOM     10  H   UNL     1      -3.158  -2.498   0.002  0.00  0.00    +0.173 HD
BRANCH   7  14
ATOM     11  C   UNL     1      -0.018   1.503   0.010  0.00  0.00    +0.086 C 
ATOM     12  C   UNL     1       0.002  -0.004   0.002  0.00  0.00    +0.103 A 
ATOM     13  C   UNL     1      -1.081  -0.797   0.003  0.00  0.00    +0.057 A 
ATOM     14  C   UNL     1      -0.571  -2.176  -0.007  0.00  0.00    +0.079 A 
ATOM     15  C   UNL     1       0.788  -2.066  -0.013  0.00  0.00    +0.114 A 
ATOM     16  O   UNL     1       1.106  -0.767  -0.013  0.00  0.00    -0.464 OA
ATOM     17  C   UNL     1       1.766  -3.212  -0.024  0.00  0.00    +0.087 C 
ENDBRANCH   7  14
ENDBRANCH   1   9
BRANCH   4  18
ATOM     18  C   UNL     1      -6.896  -3.219   0.015  0.00  0.00    +0.072 C 
ATOM     19  C   UNL     1      -7.405  -3.329   1.453  0.00  0.00    +0.028 C 
BRANCH  18  20
ATOM     20  C   UNL     1      -7.350  -1.887  -0.586  0.00  0.00    +0.026 C 
BRANCH  20  21
ATOM     21  C   UNL     1      -6.949  -1.830  -2.062  0.00  0.00    +0.037 C 
BRANCH  21  22
ATOM     22  C   UNL     1      -7.396  -0.518  -2.653  0.00  0.00    -0.047 A 
ATOM     23  C   UNL     1      -8.651  -0.410  -3.223  0.00  0.00    +0.007 A 
ATOM     24  C   UNL     1      -9.063   0.791  -3.767  0.00  0.00    +0.045 A 
ATOM     25  C   UNL     1      -8.216   1.890  -3.740  0.00  0.00    +0.117 A 
ATOM     26  C   UNL     1      -6.958   1.780  -3.167  0.00  0.00    +0.045 A 
ATOM     27  C   UNL     1      -6.553   0.577  -2.620  0.00  0.00    +0.007 A 
BRANCH  25  28
ATOM     28  O   UNL     1      -8.620   3.073  -4.274  0.00  0.00    -0.507 OA
ATOM     29  H   UNL     1      -9.071   3.654  -3.647  0.00  0.00    +0.292 HD
ENDBRANCH  25  28
ENDBRANCH  21  22
ENDBRANCH  20  21
ENDBRANCH  18  20
ENDBRANCH   4  18
TORSDOF 7
