REMARK  Name = ZINC66442512
REMARK  6 active torsions:
REMARK  status: ('A' for Active; 'I' for Inactive)
REMARK    1  A    between atoms: C_1  and  C_2
REMARK    2  A    between atoms: C_5  and  N_11
REMARK    3  A    between atoms: C_7  and  C_8
REMARK    4  A    between atoms: C_12  and  C_14
REMARK    5  A    between atoms: C_15  and  C_16
REMARK    6  A    between atoms: C_19  and  N_22
REMARK                            x       y       z     vdW  Elec       q    Type
REMARK                         _______ _______ _______ _____ _____    ______ ____
ROOT
ATOM      1  N   UNL     1      -0.214  -4.109  -0.537  0.00  0.00    -0.282 N 
ATOM      2  C   UNL     1      -0.387  -4.528  -1.806  0.00  0.00    +0.241 C 
ATOM      3  O   UNL     1      -0.532  -3.716  -2.701  0.00  0.00    -0.270 OA
ATOM      4  H   UNL     1      -0.174  -4.754   0.186  0.00  0.00    +0.155 HD
ENDROOT
BRANCH   1   9
ATOM      5  C   UNL     1       0.268   1.437   0.604  0.00  0.00    +0.044 C 
ATOM      6  C   UNL     1       0.142  -0.034   0.298  0.00  0.00    -0.038 A 
ATOM      7  C   UNL     1      -0.483  -0.874   1.197  0.00  0.00    +0.006 A 
ATOM      8  C   UNL     1      -0.601  -2.223   0.921  0.00  0.00    +0.023 A 
ATOM      9  C   UNL     1      -0.092  -2.743  -0.263  0.00  0.00    +0.034 A 
ATOM     10  C   UNL     1       0.537  -1.907  -1.173  0.00  0.00    +0.036 A 
ATOM     11  C   UNL     1       0.652  -0.544  -0.896  0.00  0.00    +0.041 A 
BRANCH  11  12
ATOM     12  C   UNL     1       1.317   0.355  -1.864  0.00  0.00    +0.242 C 
ATOM     13  O   UNL     1       1.313   1.557  -1.678  0.00  0.00    -0.270 OA
ATOM     14  N   UNL     1       1.926  -0.157  -2.951  0.00  0.00    -0.325 N 
ATOM     15  H   UNL     1       1.928  -1.115  -3.099  0.00  0.00    +0.145 HD
ATOM     16  H   UNL     1       2.362   0.433  -3.586  0.00  0.00    +0.145 HD
ENDBRANCH  11  12
ENDBRANCH   1   9
BRANCH   2  17
ATOM     17  C   UNL     1      -0.402  -5.961  -2.108  0.00  0.00    +0.068 C 
ATOM     18  C   UNL     1      -0.575  -6.380  -3.378  0.00  0.00    +0.013 C 
BRANCH  18  19
ATOM     19  C   UNL     1      -0.589  -7.821  -3.681  0.00  0.00    -0.025 A 
ATOM     20  C   UNL     1      -0.429  -8.757  -2.654  0.00  0.00    +0.010 A 
ATOM     21  C   UNL     1      -0.444 -10.104  -2.946  0.00  0.00    +0.033 A 
ATOM     22  C   UNL     1      -0.617 -10.531  -4.252  0.00  0.00    +0.126 A 
ATOM     23  C   UNL     1      -0.775  -9.611  -5.273  0.00  0.00    +0.033 A 
ATOM     24  C   UNL     1      -0.768  -8.260  -4.996  0.00  0.00    +0.010 A 
BRANCH  22  25
ATOM     25  N   UNL     1      -0.631 -11.980  -4.557  0.00  0.00    +0.056 N 
ATOM     26  O   UNL     1      -0.493 -12.786  -3.667  0.00  0.00    -0.126 OA
ATOM     27  O   UNL     1      -0.781 -12.356  -5.696  0.00  0.00    -0.126 OA
ENDBRANCH  22  25
ENDBRANCH  18  19
ENDBRANCH   2  17
TORSDOF 5
