REMARK  Name = ZINC39360912
REMARK  10 active torsions:
REMARK  status: ('A' for Active; 'I' for Inactive)
REMARK    1  A    between atoms: C_1  and  C_2
REMARK    2  A    between atoms: C_2  and  O_3
REMARK    3  A    between atoms: O_3  and  C_4
REMARK    4  A    between atoms: C_4  and  C_6
REMARK    5  A    between atoms: C_8  and  N_16
REMARK    6  A    between atoms: N_16  and  C_17
REMARK    7  A    between atoms: C_17  and  N_19
REMARK    8  A    between atoms: N_19  and  C_20
REMARK    9  A    between atoms: C_24  and  C_27
REMARK   10  A    between atoms: C_25  and  C_26
REMARK                            x       y       z     vdW  Elec       q    Type
REMARK                         _______ _______ _______ _____ _____    ______ ____
ROOT
ATOM      1  C   UNL     1       1.463  -2.454   1.476  0.00  0.00    +0.234 C 
ATOM      2  C   UNL     1       2.957  -2.504   1.708  0.00  0.00    +0.052 C 
ATOM      3  C   UNL     1       3.259  -3.838   1.925  0.00  0.00    +0.018 A 
ATOM      4  C   UNL     1       4.475  -4.510   2.194  0.00  0.00    +0.011 A 
ATOM      5  C   UNL     1       4.476  -5.856   2.366  0.00  0.00    +0.001 A 
ATOM      6  C   UNL     1       3.299  -6.605   2.285  0.00  0.00    +0.002 A 
ATOM      7  C   UNL     1       2.099  -6.028   2.030  0.00  0.00    +0.026 A 
ATOM      8  C   UNL     1       2.017  -4.625   1.838  0.00  0.00    +0.045 A 
ATOM      9  N   UNL     1       0.990  -3.838   1.582  0.00  0.00    -0.367 N 
ATOM     10  H   UNL     1       0.069  -4.127   1.481  0.00  0.00    +0.161 HD
ENDROOT
BRANCH   1  11
ATOM     11  C   UNL     1       1.169  -1.909   0.101  0.00  0.00    +0.336 C 
ATOM     12  O   UNL     1       1.460  -2.554  -0.879  0.00  0.00    -0.248 OA
BRANCH  11  13
ATOM     13  O   UNL     1       0.586  -0.709  -0.034  0.00  0.00    -0.463 OA
BRANCH  13  15
ATOM     14  C   UNL     1      -0.328   1.123  -1.320  0.00  0.00    +0.048 C 
ATOM     15  C   UNL     1       0.337  -0.255  -1.366  0.00  0.00    +0.229 C 
ENDBRANCH  13  15
ENDBRANCH  11  13
ENDBRANCH   1  11
BRANCH   2  16
ATOM     16  N   UNL     1       3.824  -1.456   1.704  0.00  0.00    -0.297 N 
ATOM     17  H   UNL     1       4.779  -1.617   1.670  0.00  0.00    +0.154 HD
BRANCH  16  18
ATOM     18  C   UNL     1       3.354  -0.193   1.747  0.00  0.00    +0.139 C 
ATOM     19  S   UNL     1       1.681   0.091   1.970  0.00  0.00    -0.018 S 
BRANCH  18  20
ATOM     20  N   UNL     1       4.203   0.846   1.615  0.00  0.00    -0.296 N 
ATOM     21  H   UNL     1       5.158   0.688   1.558  0.00  0.00    +0.154 HD
BRANCH  20  22
ATOM     22  C   UNL     1       3.705   2.152   1.559  0.00  0.00    +0.036 A 
ATOM     23  C   UNL     1       2.758   2.576   2.482  0.00  0.00    +0.023 A 
ATOM     24  C   UNL     1       2.269   3.866   2.424  0.00  0.00    +0.002 A 
ATOM     25  C   UNL     1       2.722   4.736   1.448  0.00  0.00    +0.004 A 
ATOM     26  C   UNL     1       3.664   4.316   0.527  0.00  0.00    -0.046 A 
ATOM     27  C   UNL     1       4.162   3.029   0.584  0.00  0.00    -0.026 A 
ATOM     28  C   UNL     1       5.194   2.575  -0.416  0.00  0.00    +0.046 C 
ATOM     29  C   UNL     1       4.153   5.267  -0.535  0.00  0.00    +0.044 C 
ENDBRANCH  20  22
ENDBRANCH  18  20
ENDBRANCH  16  18
ENDBRANCH   2  16
TORSDOF 7
