REMARK  Name = ZINC25442994
REMARK  11 active torsions:
REMARK  status: ('A' for Active; 'I' for Inactive)
REMARK    1  A    between atoms: C_1  and  C_2
REMARK    2  A    between atoms: C_5  and  N_13
REMARK    3  A    between atoms: C_7  and  S_8
REMARK    4  A    between atoms: S_8  and  N_11
REMARK    5  A    between atoms: N_11  and  C_12
REMARK    6  A    between atoms: C_14  and  C_16
REMARK    7  A    between atoms: C_18  and  C_23
REMARK    8  A    between atoms: C_20  and  C_21
REMARK    9  A    between atoms: C_20  and  C_22
REMARK   10  A    between atoms: C_24  and  C_25
REMARK   11  A    between atoms: C_24  and  C_26
REMARK                            x       y       z     vdW  Elec       q    Type
REMARK                         _______ _______ _______ _____ _____    ______ ____
ROOT
ATOM      1  C   UNL     1       4.274   4.214   0.476  0.00  0.00    +0.046 C 
ATOM      2  C   UNL     1       3.068   3.334   0.267  0.00  0.00    -0.024 A 
ATOM      3  C   UNL     1       1.863   3.895  -0.115  0.00  0.00    +0.007 A 
ATOM      4  C   UNL     1       0.756   3.092  -0.307  0.00  0.00    +0.023 A 
ATOM      5  C   UNL     1       0.854   1.719  -0.116  0.00  0.00    +0.035 A 
ATOM      6  C   UNL     1       2.064   1.160   0.273  0.00  0.00    +0.052 A 
ATOM      7  C   UNL     1       3.169   1.969   0.458  0.00  0.00    +0.110 A 
ENDROOT
BRANCH   5   8
ATOM      8  N   UNL     1      -0.265   0.903  -0.309  0.00  0.00    -0.285 N 
ATOM      9  C   UNL     1      -0.113  -0.348  -0.788  0.00  0.00    +0.221 C 
ATOM     10  O   UNL     1       0.982  -0.733  -1.141  0.00  0.00    -0.275 OA
ATOM     11  H   UNL     1      -1.270   1.282  -0.070  0.00  0.00    +0.155 HD
BRANCH   9  12
ATOM     12  C   UNL     1      -1.302  -1.268  -0.886  0.00  0.00    +0.089 C 
ATOM     13  C   UNL     1      -1.695  -1.770  -2.276  0.00  0.00    +0.030 C 
ATOM     14  C   UNL     1      -1.039  -2.724  -1.275  0.00  0.00    -0.016 C 
ATOM     15  C   UNL     1       0.411  -3.134  -1.536  0.00  0.00    +0.012 C 
ATOM     16  C   UNL     1      -1.925  -3.796  -0.638  0.00  0.00    +0.012 C 
BRANCH  13  17
ATOM     17  C   UNL     1      -3.163  -1.960  -2.559  0.00  0.00    -0.023 C 
ATOM     18  C   UNL     1      -3.566  -2.224  -3.777  0.00  0.00    -0.079 C 
ATOM     19  C   UNL     1      -2.562  -2.338  -4.896  0.00  0.00    +0.038 C 
ATOM     20  C   UNL     1      -5.034  -2.413  -4.060  0.00  0.00    +0.038 C 
ENDBRANCH  13  17
ENDBRANCH   9  12
ENDBRANCH   5   8
BRANCH   7  21
ATOM     21  S   UNL     1       4.707   1.259   0.945  0.00  0.00    +0.058 S 
ATOM     22  O   UNL     1       4.474  -0.131   1.125  0.00  0.00    -0.153 OA
ATOM     23  O   UNL     1       5.687   1.757   0.044  0.00  0.00    -0.153 OA
BRANCH  21  24
ATOM     24  N   UNL     1       5.080   1.874   2.437  0.00  0.00    -0.193 NA
ATOM     25  C   UNL     1       4.234   1.559   3.591  0.00  0.00    +0.127 C 
ATOM     26  H   UNL     1       5.861   2.644   2.521  0.00  0.00    +0.148 HD
ENDBRANCH  21  24
ENDBRANCH   7  21
TORSDOF 5
