REMARK  Name = ZINC64423022
REMARK  5 active torsions:
REMARK  status: ('A' for Active; 'I' for Inactive)
REMARK    1  A    between atoms: C_1  and  C_2
REMARK    2  A    between atoms: C_9  and  N_12
REMARK    3  A    between atoms: C_13  and  C_15
REMARK    4  A    between atoms: C_15  and  N_16
REMARK    5  A    between atoms: C_17  and  C_19
REMARK                            x       y       z     vdW  Elec       q    Type
REMARK                         _______ _______ _______ _____ _____    ______ ____
ROOT
ATOM      1  N   UNL     1      -1.152  -0.851   4.471  0.00  0.00    -0.287 N 
ATOM      2  C   UNL     1      -1.189  -1.351   5.723  0.00  0.00    +0.232 C 
ATOM      3  O   UNL     1      -0.228  -1.940   6.169  0.00  0.00    -0.274 OA
ATOM      4  H   UNL     1      -1.921  -0.380   4.115  0.00  0.00    +0.151 HD
ENDROOT
BRANCH   1  13
ATOM      5  C   UNL     1      -0.018   1.503   0.010  0.00  0.00    +0.046 C 
ATOM      6  C   UNL     1       0.002  -0.004   0.002  0.00  0.00    -0.028 A 
ATOM      7  C   UNL     1       0.005  -0.673  -1.200  0.00  0.00    +0.005 A 
ATOM      8  C   UNL     1       0.024  -2.054  -1.249  0.00  0.00    +0.001 A 
ATOM      9  C   UNL     1       0.039  -2.767  -0.061  0.00  0.00    +0.016 A 
ATOM     10  C   UNL     1       0.036  -2.097   1.141  0.00  0.00    +0.032 A 
ATOM     11  C   UNL     1       0.023  -0.701   1.223  0.00  0.00    +0.046 A 
ATOM     12  N   UNL     1       0.027  -0.119   2.490  0.00  0.00    -0.316 N 
ATOM     13  C   UNL     1       0.050  -1.019   3.651  0.00  0.00    +0.224 C 
ATOM     14  S   UNL     1       0.051  -2.662   2.827  0.00  0.00    -0.082 S 
ATOM     15  H   UNL     1       0.015   0.845   2.600  0.00  0.00    +0.149 HD
ENDBRANCH   1  13
BRANCH   2  16
ATOM     16  C   UNL     1      -2.425  -1.178   6.567  0.00  0.00    +0.200 C 
BRANCH  16  17
ATOM     17  N   UNL     1      -2.216  -1.805   7.874  0.00  0.00    -0.303 N 
ATOM     18  C   UNL     1      -3.194  -1.775   8.801  0.00  0.00    +0.245 C 
ATOM     19  O   UNL     1      -4.250  -1.227   8.552  0.00  0.00    -0.270 OA
ATOM     20  H   UNL     1      -1.373  -2.242   8.073  0.00  0.00    +0.150 HD
BRANCH  18  21
ATOM     21  C   UNL     1      -2.982  -2.408  10.120  0.00  0.00    +0.049 C 
ATOM     22  C   UNL     1      -3.971  -2.381  11.050  0.00  0.00    -0.003 C 
ATOM     23  C   UNL     1      -3.692  -3.047  12.382  0.00  0.00    +0.126 C 
ATOM     24  C   UNL     1      -2.333  -3.687  12.564  0.00  0.00    +0.240 C 
ATOM     25  O   UNL     1      -2.046  -4.238  13.607  0.00  0.00    -0.273 OA
ATOM     26  N   UNL     1      -1.451  -3.638  11.558  0.00  0.00    -0.188 NA
ATOM     27  C   UNL     1      -1.711  -3.065  10.416  0.00  0.00    +0.113 C 
ENDBRANCH  18  21
ENDBRANCH  16  17
ENDBRANCH   2  16
TORSDOF 4
