REMARK  Name = ZINC60342669
REMARK  7 active torsions:
REMARK  status: ('A' for Active; 'I' for Inactive)
REMARK    1  A    between atoms: C_1  and  C_2
REMARK    2  A    between atoms: C_4  and  C_10
REMARK    3  A    between atoms: C_5  and  O_9
REMARK    4  A    between atoms: C_7  and  C_8
REMARK    5  A    between atoms: C_10  and  N_11
REMARK    6  A    between atoms: C_15  and  C_18
REMARK    7  A    between atoms: C_20  and  C_23
REMARK                            x       y       z     vdW  Elec       q    Type
REMARK                         _______ _______ _______ _____ _____    ______ ____
ROOT
ATOM      1  N   UNL     1       1.396  -3.247  -2.834  0.00  0.00    +0.383 N 
ATOM      2  C   UNL     1       1.801  -4.302  -1.897  0.00  0.00    -0.078 C 
ATOM      3  C   UNL     1       3.254  -4.699  -2.168  0.00  0.00    -0.018 C 
ATOM      4  C   UNL     1       3.377  -5.215  -3.605  0.00  0.00    +0.009 C 
ATOM      5  C   UNL     1       2.882  -4.133  -4.569  0.00  0.00    +0.061 C 
ATOM      6  C   UNL     1       1.443  -3.757  -4.210  0.00  0.00    -0.065 C 
ATOM      7  H   UNL     1       2.024  -2.462  -2.746  0.00  0.00    -0.081 HD
ENDROOT
BRANCH   5   8
ATOM      8  C   UNL     1       2.928  -4.659  -5.981  0.00  0.00    +0.229 A 
ATOM      9  N   UNL     1       3.624  -4.153  -6.959  0.00  0.00    -0.191 NA
ATOM     10  C   UNL     1       3.431  -4.870  -8.080  0.00  0.00    +0.202 A 
ATOM     11  N   UNL     1       2.600  -5.848  -7.814  0.00  0.00    -0.056 NA
ATOM     12  O   UNL     1       2.264  -5.728  -6.440  0.00  0.00    -0.337 OA
BRANCH  10  13
ATOM     13  C   UNL     1       4.055  -4.600  -9.399  0.00  0.00    +0.023 A 
ATOM     14  C   UNL     1       4.931  -3.526  -9.550  0.00  0.00    +0.014 A 
ATOM     15  C   UNL     1       5.509  -3.278 -10.778  0.00  0.00    +0.039 A 
ATOM     16  C   UNL     1       5.221  -4.095 -11.860  0.00  0.00    +0.123 A 
ATOM     17  C   UNL     1       4.351  -5.163 -11.713  0.00  0.00    +0.039 A 
ATOM     18  C   UNL     1       3.772  -5.422 -10.488  0.00  0.00    +0.014 A 
ATOM     19  F   UNL     1       5.790  -3.849 -13.060  0.00  0.00    -0.205 F 
ENDBRANCH  10  13
ENDBRANCH   5   8
BRANCH   1  20
ATOM     20  C   UNL     1       0.028  -2.814  -2.520  0.00  0.00    -0.039 C 
BRANCH  20  24
ATOM     21  C   UNL     1      -1.119  -2.966   2.348  0.00  0.00    +0.044 C 
ATOM     22  C   UNL     1      -0.541  -2.230   1.167  0.00  0.00    -0.047 A 
ATOM     23  C   UNL     1      -0.523  -2.831  -0.079  0.00  0.00    +0.009 A 
ATOM     24  C   UNL     1       0.007  -2.159  -1.163  0.00  0.00    -0.022 A 
ATOM     25  C   UNL     1       0.520  -0.880  -1.002  0.00  0.00    +0.118 A 
ATOM     26  C   UNL     1       0.500  -0.279   0.248  0.00  0.00    +0.049 A 
ATOM     27  C   UNL     1      -0.036  -0.954   1.329  0.00  0.00    -0.044 A 
ATOM     28  C   UNL     1      -0.063  -0.300   2.686  0.00  0.00    +0.044 C 
BRANCH  25  29
ATOM     29  O   UNL     1       1.042  -0.216  -2.067  0.00  0.00    -0.507 OA
ATOM     30  H   UNL     1       0.417   0.376  -2.506  0.00  0.00    +0.292 HD
ENDBRANCH  25  29
ENDBRANCH  20  24
ENDBRANCH   1  20
TORSDOF 5
