REMARK  Name = ZINC42297481
REMARK  6 active torsions:
REMARK  status: ('A' for Active; 'I' for Inactive)
REMARK    1  A    between atoms: C_1  and  C_2
REMARK    2  A    between atoms: C_2  and  C_3
REMARK    3  A    between atoms: C_2  and  C_4
REMARK    4  A    between atoms: C_4  and  C_6
REMARK    5  A    between atoms: C_4  and  N_11
REMARK    6  A    between atoms: C_15  and  N_18
REMARK                            x       y       z     vdW  Elec       q    Type
REMARK                         _______ _______ _______ _____ _____    ______ ____
ROOT
ATOM      1  N   UNL     1      -2.188   0.125   1.083  0.00  0.00    -0.321 N 
ATOM      2  C   UNL     1      -3.230  -0.546   1.712  0.00  0.00    +0.119 A 
ATOM      3  C   UNL     1      -3.616  -1.803   1.256  0.00  0.00    +0.046 A 
ATOM      4  C   UNL     1      -4.654  -2.459   1.892  0.00  0.00    +0.037 A 
ATOM      5  C   UNL     1      -5.274  -1.834   2.966  0.00  0.00    +0.144 A 
ATOM      6  C   UNL     1      -4.840  -0.586   3.365  0.00  0.00    +0.145 A 
ATOM      7  N   UNL     1      -3.843   0.015   2.743  0.00  0.00    -0.238 NA
ATOM      8  H   UNL     1      -1.968   1.032   1.343  0.00  0.00    +0.148 HD
ENDROOT
BRANCH   5   9
ATOM      9  N   UNL     1      -6.390  -2.499   3.676  0.00  0.00    +0.058 N 
ATOM     10  O   UNL     1      -6.766  -3.592   3.321  0.00  0.00    -0.126 OA
ATOM     11  O   UNL     1      -6.926  -1.950   4.610  0.00  0.00    -0.126 OA
ENDBRANCH   5   9
BRANCH   1  12
ATOM     12  C   UNL     1      -1.422  -0.540   0.025  0.00  0.00    +0.111 C 
BRANCH  12  13
ATOM     13  C   UNL     1      -2.123  -0.352  -1.296  0.00  0.00    +0.010 A 
ATOM     14  C   UNL     1      -2.295  -1.241  -2.305  0.00  0.00    +0.013 A 
ATOM     15  C   UNL     1      -2.980  -0.845  -3.438  0.00  0.00    +0.008 A 
ATOM     16  C   UNL     1      -3.460   0.421  -3.507  0.00  0.00    +0.045 A 
ATOM     17  S   UNL     1      -2.949   1.096  -1.935  0.00  0.00    -0.100 S 
ENDBRANCH  12  13
BRANCH  12  19
ATOM     18  C   UNL     1      -0.133   1.583  -0.253  0.00  0.00    +0.009 C 
ATOM     19  C   UNL     1      -0.021   0.070  -0.050  0.00  0.00    +0.008 C 
ATOM     20  C   UNL     1       0.730  -0.215   1.252  0.00  0.00    +0.009 C 
ENDBRANCH  12  19
ENDBRANCH   1  12
TORSDOF 4
