REMARK  Name = ZINC15729694
REMARK  7 active torsions:
REMARK  status: ('A' for Active; 'I' for Inactive)
REMARK    1  A    between atoms: C_1  and  C_2
REMARK    2  A    between atoms: C_3  and  C_14
REMARK    3  A    between atoms: N_5  and  C_7
REMARK    4  A    between atoms: C_16  and  C_19
REMARK    5  A    between atoms: N_21  and  C_22
REMARK    6  A    between atoms: C_22  and  C_23
REMARK    7  A    between atoms: C_23  and  N_49
REMARK                            x       y       z     vdW  Elec       q    Type
REMARK                         _______ _______ _______ _____ _____    ______ ____
ROOT
ATOM      1  C   UNL     1       1.828  -1.828  -0.026  0.00  0.00    +0.206 A 
ATOM      2  N   UNL     1       3.115  -2.232  -0.040  0.00  0.00    -0.183 NA
ATOM      3  C   UNL     1       3.072  -3.547  -0.046  0.00  0.00    +0.314 A 
ATOM      4  O   UNL     1       1.777  -3.897  -0.036  0.00  0.00    -0.328 OA
ATOM      5  N   UNL     1       1.081  -2.903  -0.019  0.00  0.00    -0.055 NA
ENDROOT
BRANCH   1   8
ATOM      6  C   UNL     1      -1.206  -0.905   0.008  0.00  0.00    +0.068 C 
ATOM      7  C   UNL     1       0.002  -0.004   0.002  0.00  0.00    +0.071 A 
ATOM      8  C   UNL     1       1.347  -0.424  -0.013  0.00  0.00    +0.063 A 
ATOM      9  C   UNL     1       2.128   0.696  -0.015  0.00  0.00    +0.126 A 
ATOM     10  N   UNL     1       1.305   1.766  -0.001  0.00  0.00    -0.239 N 
ATOM     11  N   UNL     1      -0.016   1.302   0.009  0.00  0.00    -0.171 NA
BRANCH  10  12
ATOM     12  C   UNL     1       1.705   3.110   0.002  0.00  0.00    +0.065 A 
ATOM     13  C   UNL     1       3.055   3.434  -0.004  0.00  0.00    +0.029 A 
ATOM     14  C   UNL     1       3.446   4.758  -0.006  0.00  0.00    +0.017 A 
ATOM     15  C   UNL     1       2.494   5.762   0.008  0.00  0.00    +0.018 A 
ATOM     16  C   UNL     1       1.147   5.442   0.019  0.00  0.00    +0.017 A 
ATOM     17  C   UNL     1       0.751   4.119   0.017  0.00  0.00    +0.029 A 
ATOM     18 BR   UNL     1       3.033   7.575   0.013  0.00  0.00    -0.050 Br
ENDBRANCH  10  12
ENDBRANCH   1   8
BRANCH   3  19
ATOM     19  C   UNL     1       4.234  -4.468  -0.062  0.00  0.00    +0.302 C 
ATOM     20  O   UNL     1       5.364  -4.020  -0.070  0.00  0.00    -0.265 OA
ATOM     21  N   UNL     1       4.038  -5.801  -0.067  0.00  0.00    -0.309 N 
ATOM     22  H   UNL     1       3.136  -6.159  -0.060  0.00  0.00    +0.149 HD
BRANCH  21  23
ATOM     23  C   UNL     1       5.186  -6.711  -0.082  0.00  0.00    +0.086 C 
BRANCH  23  24
ATOM     24  C   UNL     1       4.691  -8.158  -0.085  0.00  0.00    -0.060 C 
BRANCH  24  29
ATOM     25  C   UNL     1       6.792  -8.746   0.995  0.00  0.00    -0.079 C 
ATOM     26  C   UNL     1       7.605 -10.055   1.159  0.00  0.00    -0.020 C 
ATOM     27  C   UNL     1       6.540 -11.153   0.935  0.00  0.00    -0.020 C 
ATOM     28  C   UNL     1       5.416 -10.466   0.137  0.00  0.00    -0.079 C 
ATOM     29  N   UNL     1       5.859  -9.090  -0.089  0.00  0.00    +0.381 N 
ATOM     30  H   UNL     1       6.338  -9.024  -0.994  0.00  0.00    -0.082 HD
ENDBRANCH  24  29
ENDBRANCH  23  24
ENDBRANCH  21  23
ENDBRANCH   3  19
TORSDOF 6
