REMARK  Name = ZINC38746291
REMARK  4 active torsions:
REMARK  status: ('A' for Active; 'I' for Inactive)
REMARK    1  A    between atoms: N_9  and  N_10
REMARK    2  A    between atoms: N_10  and  C_11
REMARK    3  A    between atoms: C_11  and  C_12
REMARK    4  A    between atoms: N_14  and  C_15
REMARK                            x       y       z     vdW  Elec       q    Type
REMARK                         _______ _______ _______ _____ _____    ______ ____
ROOT
ATOM      1  C   UNL     1      -3.109  -1.436  -1.262  0.00  0.00    +0.234 C 
ATOM      2  O   UNL     1      -3.455  -1.974  -0.232  0.00  0.00    -0.274 OA
ATOM      3  N   UNL     1      -3.877  -1.534  -2.365  0.00  0.00    -0.284 N 
ATOM      4  H   UNL     1      -3.600  -1.104  -3.189  0.00  0.00    +0.152 HD
ENDROOT
BRANCH   3   5
ATOM      5  C   UNL     1      -5.130  -2.290  -2.319  0.00  0.00    +0.251 C 
ATOM      6  N   UNL     1      -6.209  -1.496  -1.727  0.00  0.00    -0.259 NA
ATOM      7  C   UNL     1      -7.145  -1.011  -2.411  0.00  0.00    +0.030 C 
ATOM      8  C   UNL     1      -8.250  -0.250  -1.756  0.00  0.00    +0.052 C 
ATOM      9  C   UNL     1      -8.439   1.116  -2.416  0.00  0.00    +0.006 C 
ATOM     10  C   UNL     1      -9.572   1.869  -1.714  0.00  0.00    +0.000 C 
ATOM     11  C   UNL     1      -9.774   3.231  -2.379  0.00  0.00    +0.000 C 
ATOM     12  C   UNL     1     -10.110   3.037  -3.859  0.00  0.00    +0.000 C 
ATOM     13  C   UNL     1      -8.867   3.313  -4.706  0.00  0.00    +0.000 C 
ATOM     14  C   UNL     1      -8.931   2.493  -5.995  0.00  0.00    +0.000 C 
ATOM     15  C   UNL     1      -7.600   1.770  -6.211  0.00  0.00    +0.000 C 
ATOM     16  C   UNL     1      -7.730   0.309  -5.777  0.00  0.00    +0.001 C 
ATOM     17  C   UNL     1      -6.711   0.008  -4.676  0.00  0.00    +0.020 C 
ATOM     18  C   UNL     1      -7.135  -1.246  -3.913  0.00  0.00    +0.094 C 
ATOM     19  S   UNL     1      -5.818  -2.543  -4.006  0.00  0.00    -0.106 S 
ENDBRANCH   3   5
BRANCH   1  20
ATOM     20  C   UNL     1      -1.819  -0.658  -1.309  0.00  0.00    +0.216 C 
BRANCH  20  21
ATOM     21  N   UNL     1      -1.173  -0.701   0.009  0.00  0.00    -0.272 N 
ATOM     22  H   UNL     1      -1.026  -1.654   0.309  0.00  0.00    +0.167 HD
BRANCH  21  31
ATOM     23  C   UNL     1      -0.017   1.365   0.009  0.00  0.00    +0.244 A 
ATOM     24  N   UNL     1       1.066   2.071   0.003  0.00  0.00    -0.159 NA
ATOM     25  N   UNL     1       2.334   1.479  -0.012  0.00  0.00    -0.237 N 
ATOM     26  H   UNL     1       3.131   2.031  -0.017  0.00  0.00    +0.192 HD
ATOM     27  C   UNL     1       2.438   0.131  -0.021  0.00  0.00    +0.331 A 
ATOM     28  O   UNL     1       3.525  -0.414  -0.034  0.00  0.00    -0.260 OA
ATOM     29  C   UNL     1       1.179  -0.667  -0.013  0.00  0.00    +0.335 A 
ATOM     30  O   UNL     1       1.210  -1.882  -0.020  0.00  0.00    -0.260 OA
ATOM     31  N   UNL     1       0.002  -0.004   0.002  0.00  0.00    -0.213 N 
ENDBRANCH  21  31
ENDBRANCH  20  21
ENDBRANCH   1  20
TORSDOF 4
