REMARK  Name = ZINC04855165
REMARK  9 active torsions:
REMARK  status: ('A' for Active; 'I' for Inactive)
REMARK    1  A    between atoms: C_1  and  C_2
REMARK    2  A    between atoms: N_4  and  C_5
REMARK    3  A    between atoms: C_7  and  O_28
REMARK    4  A    between atoms: C_9  and  O_27
REMARK    5  A    between atoms: C_11  and  C_25
REMARK    6  A    between atoms: C_14  and  O_16
REMARK    7  A    between atoms: O_16  and  C_17
REMARK    8  A    between atoms: C_17  and  C_18
REMARK    9  A    between atoms: C_25  and  O_26
REMARK                            x       y       z     vdW  Elec       q    Type
REMARK                         _______ _______ _______ _____ _____    ______ ____
ROOT
ATOM      1  C   UNL     1       2.865   3.841  -0.254  0.00  0.00    +0.160 C 
ATOM      2  C   UNL     1       2.995   5.367  -0.209  0.00  0.00    +0.171 C 
ATOM      3  C   UNL     1       2.513   5.870   1.155  0.00  0.00    +0.176 C 
ATOM      4  C   UNL     1       1.073   5.402   1.382  0.00  0.00    +0.178 C 
ATOM      5  O   UNL     1       1.017   3.977   1.297  0.00  0.00    -0.341 OA
ATOM      6  C   UNL     1       1.412   3.452   0.028  0.00  0.00    +0.274 C 
ENDROOT
BRANCH   1  10
ATOM      7  C   UNL     1       5.911   2.328   1.504  0.00  0.00    +0.109 C 
ATOM      8  C   UNL     1       5.014   2.941   0.459  0.00  0.00    +0.210 C 
ATOM      9  O   UNL     1       5.442   3.159  -0.654  0.00  0.00    -0.276 OA
ATOM     10  N   UNL     1       3.737   3.245   0.762  0.00  0.00    -0.305 N 
ATOM     11  H   UNL     1       3.394   3.070   1.652  0.00  0.00    +0.149 HD
ENDBRANCH   1  10
BRANCH   3  12
ATOM     12  O   UNL     1       3.354   5.342   2.183  0.00  0.00    -0.387 OA
ATOM     13  H   UNL     1       3.103   5.617   3.076  0.00  0.00    +0.210 HD
ENDBRANCH   3  12
BRANCH   2  14
ATOM     14  O   UNL     1       4.362   5.737  -0.399  0.00  0.00    -0.387 OA
ATOM     15  H   UNL     1       4.518   6.691  -0.376  0.00  0.00    +0.210 HD
ENDBRANCH   2  14
BRANCH   6  16
ATOM     16  O   UNL     1       1.294   2.028   0.043  0.00  0.00    -0.345 OA
BRANCH  16  17
ATOM     17  C   UNL     1      -0.055   1.557   0.074  0.00  0.00    +0.199 C 
BRANCH  17  18
ATOM     18  C   UNL     1      -0.061   0.050   0.088  0.00  0.00    -0.004 A 
ATOM     19  C   UNL     1       1.133  -0.646   0.071  0.00  0.00    +0.007 A 
ATOM     20  C   UNL     1       1.129  -2.028   0.083  0.00  0.00    +0.000 A 
ATOM     21  C   UNL     1      -0.071  -2.715   0.114  0.00  0.00    +0.001 A 
ATOM     22  C   UNL     1      -1.265  -2.020   0.131  0.00  0.00    +0.020 A 
ATOM     23  C   UNL     1      -1.261  -0.637   0.124  0.00  0.00    +0.046 A 
ATOM     24 CL   UNL     1      -2.761   0.237   0.153  0.00  0.00    -0.083 Cl
ENDBRANCH  17  18
ENDBRANCH  16  17
ENDBRANCH   6  16
BRANCH   4  25
ATOM     25  C   UNL     1       0.604   5.850   2.768  0.00  0.00    +0.190 C 
BRANCH  25  26
ATOM     26  O   UNL     1      -0.776   5.515   2.935  0.00  0.00    -0.392 OA
ATOM     27  H   UNL     1      -1.141   5.770   3.793  0.00  0.00    +0.210 HD
ENDBRANCH  25  26
ENDBRANCH   4  25
TORSDOF 8
