REMARK  Name = ZINC48126935
REMARK  7 active torsions:
REMARK  status: ('A' for Active; 'I' for Inactive)
REMARK    1  A    between atoms: C_1  and  C_2
REMARK    2  A    between atoms: C_2  and  O_3
REMARK    3  A    between atoms: O_3  and  C_4
REMARK    4  A    between atoms: C_9  and  N_10
REMARK    5  A    between atoms: N_13  and  C_14
REMARK    6  A    between atoms: N_13  and  C_15
REMARK    7  A    between atoms: C_15  and  C_16
REMARK                            x       y       z     vdW  Elec       q    Type
REMARK                         _______ _______ _______ _____ _____    ______ ____
ROOT
ATOM      1  N   UNL     1      -3.903  -1.565   0.031  0.00  0.00    -0.266 N 
ATOM      2  C   UNL     1      -5.138  -2.096  -0.061  0.00  0.00    +0.307 C 
ATOM      3  O   UNL     1      -5.282  -3.303  -0.067  0.00  0.00    -0.252 OA
ATOM      4  N   UNL     1      -6.214  -1.289  -0.148  0.00  0.00    -0.281 N 
ATOM      5  C   UNL     1      -6.040   0.166  -0.141  0.00  0.00    +0.134 C 
ATOM      6  H   UNL     1      -3.792  -0.604   0.101  0.00  0.00    +0.156 HD
ENDROOT
BRANCH   1  12
ATOM      7  C   UNL     1      -1.598  -1.982  -0.582  0.00  0.00    +0.142 A 
ATOM      8  C   UNL     1      -0.487  -2.810  -0.578  0.00  0.00    +0.049 A 
ATOM      9  C   UNL     1      -0.553  -4.052   0.025  0.00  0.00    +0.024 A 
ATOM     10  C   UNL     1      -1.726  -4.472   0.626  0.00  0.00    +0.043 A 
ATOM     11  C   UNL     1      -2.839  -3.651   0.626  0.00  0.00    +0.047 A 
ATOM     12  C   UNL     1      -2.778  -2.401   0.028  0.00  0.00    +0.078 A 
ATOM     13 CL   UNL     1      -1.802  -6.034   1.382  0.00  0.00    -0.083 Cl
BRANCH   7  14
ATOM     14  O   UNL     1      -1.535  -0.760  -1.175  0.00  0.00    -0.490 OA
BRANCH  14  16
ATOM     15  C   UNL     1      -0.413   1.001  -2.392  0.00  0.00    +0.048 C 
ATOM     16  C   UNL     1      -0.292  -0.396  -1.781  0.00  0.00    +0.226 C 
ENDBRANCH  14  16
ENDBRANCH   7  14
ENDBRANCH   1  12
BRANCH   4  17
ATOM     17  C   UNL     1      -7.556  -1.866  -0.249  0.00  0.00    +0.183 C 
BRANCH  17  18
ATOM     18  C   UNL     1      -8.126  -2.058   1.133  0.00  0.00    +0.122 A 
ATOM     19  C   UNL     1      -8.856  -1.157   1.815  0.00  0.00    +0.046 A 
ATOM     20  C   UNL     1      -9.179  -1.748   3.058  0.00  0.00    +0.041 A 
ATOM     21  C   UNL     1      -8.627  -2.975   3.062  0.00  0.00    +0.195 A 
ATOM     22  O   UNL     1      -7.995  -3.159   1.891  0.00  0.00    -0.466 OA
ENDBRANCH  17  18
ENDBRANCH   4  17
TORSDOF 5
