REMARK  Name = ZINC35375121
REMARK  7 active torsions:
REMARK  status: ('A' for Active; 'I' for Inactive)
REMARK    1  A    between atoms: C_1  and  C_2
REMARK    2  A    between atoms: C_2  and  C_3
REMARK    3  A    between atoms: C_3  and  C_5
REMARK    4  A    between atoms: C_3  and  C_6
REMARK    5  A    between atoms: C_6  and  N_7
REMARK    6  A    between atoms: C_8  and  C_10
REMARK    7  A    between atoms: N_23  and  C_24
REMARK                            x       y       z     vdW  Elec       q    Type
REMARK                         _______ _______ _______ _____ _____    ______ ____
ROOT
ATOM      1  C   UNL     1       1.750  -4.371  -4.019  0.00  0.00    +0.028 C 
ATOM      2  C   UNL     1       0.693  -3.927  -5.075  0.00  0.00    +0.061 C 
ATOM      3  S   UNL     1       1.005  -5.208  -6.367  0.00  0.00    -0.174 S 
ATOM      4  C   UNL     1       1.844  -6.451  -5.307  0.00  0.00    -0.016 C 
ATOM      5  N   UNL     1       1.768  -5.846  -3.961  0.00  0.00    +0.397 N 
ATOM      6  C   UNL     1       1.083  -7.767  -5.355  0.00  0.00    +0.017 C 
ATOM      7  C   UNL     1       1.773  -8.791  -4.446  0.00  0.00    +0.109 C 
ATOM      8  N   UNL     1       3.192  -8.871  -4.818  0.00  0.00    -0.285 N 
ATOM      9  C   UNL     1       3.989  -7.637  -4.845  0.00  0.00    +0.109 C 
ATOM     10  C   UNL     1       3.288  -6.620  -5.753  0.00  0.00    +0.017 C 
ATOM     11  C   UNL     1       3.752 -10.057  -5.129  0.00  0.00    +0.306 C 
ATOM     12  O   UNL     1       3.109 -11.082  -5.017  0.00  0.00    -0.252 OA
ATOM     13  N   UNL     1       5.027 -10.106  -5.564  0.00  0.00    -0.268 N 
ATOM     14  H   UNL     1       2.569  -6.144  -3.425  0.00  0.00    -0.083 HD
ATOM     15  H   UNL     1       5.562  -9.297  -5.590  0.00  0.00    +0.156 HD
ATOM     16  H   UNL     1       0.929  -6.167  -3.502  0.00  0.00    -0.083 HD
ENDROOT
BRANCH  13  17
ATOM     17  C   UNL     1       5.579 -11.323  -5.979  0.00  0.00    +0.049 A 
ATOM     18  C   UNL     1       4.749 -12.389  -6.304  0.00  0.00    +0.024 A 
ATOM     19  C   UNL     1       5.297 -13.589  -6.713  0.00  0.00    +0.002 A 
ATOM     20  C   UNL     1       6.670 -13.730  -6.801  0.00  0.00    +0.001 A 
ATOM     21  C   UNL     1       7.499 -12.672  -6.479  0.00  0.00    +0.017 A 
ATOM     22  C   UNL     1       6.957 -11.467  -6.074  0.00  0.00    +0.039 A 
ATOM     23 BR   UNL     1       8.092 -10.017  -5.640  0.00  0.00    -0.048 Br
ENDBRANCH  13  17
BRANCH   1  25
ATOM     24  N   UNL     1       1.306  -2.483  -2.483  0.00  0.00    -0.316 N 
ATOM     25  C   UNL     1       1.379  -3.816  -2.667  0.00  0.00    +0.200 C 
ATOM     26  O   UNL     1       1.147  -4.569  -1.746  0.00  0.00    -0.278 OA
ATOM     27  H   UNL     1       1.492  -1.881  -3.221  0.00  0.00    +0.149 HD
BRANCH  24  28
ATOM     28  C   UNL     1       0.946  -1.943  -1.170  0.00  0.00    +0.107 C 
BRANCH  28  29
ATOM     29  C   UNL     1       0.935  -0.415  -1.232  0.00  0.00    +0.003 C 
ATOM     30  C   UNL     1       2.352   0.095  -1.504  0.00  0.00    +0.009 C 
BRANCH  29  32
ATOM     31  C   UNL     1       0.309   1.667  -0.001  0.00  0.00    +0.004 C 
ATOM     32  C   UNL     1       0.439   0.146   0.102  0.00  0.00    +0.001 C 
ENDBRANCH  29  32
ENDBRANCH  28  29
ENDBRANCH  24  28
ENDBRANCH   1  25
TORSDOF 5
