REMARK  Name = ZINC02566383
REMARK  5 active torsions:
REMARK  status: ('A' for Active; 'I' for Inactive)
REMARK    1  A    between atoms: C_3  and  C_10
REMARK    2  A    between atoms: C_5  and  N_7
REMARK    3  A    between atoms: N_11  and  N_12
REMARK    4  A    between atoms: C_13  and  C_15
REMARK    5  A    between atoms: N_17  and  C_18
REMARK                            x       y       z     vdW  Elec       q    Type
REMARK                         _______ _______ _______ _____ _____    ______ ____
ROOT
ATOM      1  N   UNL     1      -1.222   7.355   0.025  0.00  0.00    -0.199 N 
ATOM      2  C   UNL     1      -2.398   8.013   0.046  0.00  0.00    +0.318 C 
ATOM      3  O   UNL     1      -3.441   7.391   0.049  0.00  0.00    -0.263 OA
ATOM      4  H   UNL     1      -0.389   7.852   0.023  0.00  0.00    +0.178 HD
ENDROOT
BRANCH   2   5
ATOM      5  C   UNL     1      -2.419   9.504   0.064  0.00  0.00    +0.305 C 
ATOM      6  O   UNL     1      -1.376  10.125   0.060  0.00  0.00    -0.265 OA
ATOM      7  N   UNL     1      -3.595  10.161   0.084  0.00  0.00    -0.276 N 
ATOM      8  H   UNL     1      -4.428   9.667   0.021  0.00  0.00    +0.155 HD
BRANCH   7   9
ATOM      9  C   UNL     1      -3.615  11.554   0.196  0.00  0.00    +0.054 A 
ATOM     10  C   UNL     1      -2.619  12.315  -0.402  0.00  0.00    +0.025 A 
ATOM     11  C   UNL     1      -2.641  13.691  -0.290  0.00  0.00    +0.003 A 
ATOM     12  C   UNL     1      -3.654  14.314   0.416  0.00  0.00    +0.021 A 
ATOM     13  C   UNL     1      -4.649  13.560   1.014  0.00  0.00    +0.061 A 
ATOM     14  C   UNL     1      -4.636  12.181   0.900  0.00  0.00    +0.080 A 
ATOM     15 CL   UNL     1      -5.888  11.236   1.643  0.00  0.00    -0.080 Cl
ATOM     16 CL   UNL     1      -5.918  14.346   1.900  0.00  0.00    -0.082 Cl
ENDBRANCH   7   9
ENDBRANCH   2   5
BRANCH   1  18
ATOM     17  C   UNL     1      -0.069   5.321  -0.011  0.00  0.00    +0.138 C 
ATOM     18  N   UNL     1      -1.202   5.954   0.008  0.00  0.00    -0.187 NA
BRANCH  17  21
ATOM     19  C   UNL     1      -1.220   1.749  -0.049  0.00  0.00    +0.003 A 
ATOM     20  C   UNL     1      -1.246   3.128  -0.025  0.00  0.00    +0.009 A 
ATOM     21  C   UNL     1      -0.048   3.847  -0.029  0.00  0.00    -0.003 A 
ATOM     22  C   UNL     1       1.169   3.162  -0.050  0.00  0.00    +0.042 A 
ATOM     23  C   UNL     1       1.181   1.783  -0.067  0.00  0.00    +0.127 A 
ATOM     24  C   UNL     1      -0.010   1.078  -0.064  0.00  0.00    +0.033 A 
BRANCH  23  25
ATOM     25  N   UNL     1       2.470   1.056  -0.089  0.00  0.00    +0.056 N 
ATOM     26  O   UNL     1       2.481  -0.162  -0.105  0.00  0.00    -0.126 OA
ATOM     27  O   UNL     1       3.519   1.675  -0.092  0.00  0.00    -0.126 OA
ENDBRANCH  23  25
ENDBRANCH  17  21
ENDBRANCH   1  18
TORSDOF 5
