REMARK  Name = ZINC19624380
REMARK  11 active torsions:
REMARK  status: ('A' for Active; 'I' for Inactive)
REMARK    1  A    between atoms: C_1  and  O_2
REMARK    2  A    between atoms: O_2  and  C_3
REMARK    3  A    between atoms: C_5  and  C_13
REMARK    4  A    between atoms: C_6  and  O_11
REMARK    5  A    between atoms: C_8  and  O_9
REMARK    6  A    between atoms: O_9  and  C_10
REMARK    7  A    between atoms: O_11  and  C_12
REMARK    8  A    between atoms: C_14  and  C_23
REMARK    9  A    between atoms: C_15  and  N_22
REMARK   10  A    between atoms: C_17  and  N_21
REMARK   11  A    between atoms: C_18  and  C_19
REMARK                            x       y       z     vdW  Elec       q    Type
REMARK                         _______ _______ _______ _____ _____    ______ ____
ROOT
ATOM      1  C   UNL     1       1.298   2.128   0.001  0.00  0.00    +0.108 C 
ATOM      2  C   UNL     1       1.234   3.510  -0.550  0.00  0.00    +0.069 C 
ATOM      3  C   UNL     1       0.138   4.288  -0.584  0.00  0.00    +0.079 C 
ATOM      4  S   UNL     1      -1.426   3.769   0.021  0.00  0.00    -0.058 S 
ATOM      5  C   UNL     1      -1.220   2.027   0.019  0.00  0.00    +0.079 C 
ATOM      6  C   UNL     1      -0.017   1.428   0.010  0.00  0.00    +0.069 C 
ENDROOT
BRANCH   1   9
ATOM      7  C   UNL     1       1.560   2.910   3.688  0.00  0.00    +0.162 A 
ATOM      8  C   UNL     1       1.085   2.847   2.389  0.00  0.00    +0.057 A 
ATOM      9  C   UNL     1       1.817   2.195   1.414  0.00  0.00    +0.011 A 
ATOM     10  C   UNL     1       3.027   1.599   1.736  0.00  0.00    +0.128 A 
ATOM     11  C   UNL     1       3.510   1.664   3.035  0.00  0.00    +0.095 A 
ATOM     12  C   UNL     1       2.777   2.317   4.013  0.00  0.00    +0.165 A 
BRANCH   7  14
ATOM     13  C   UNL     1      -0.401   4.137   4.243  0.00  0.00    +0.277 C 
ATOM     14  O   UNL     1       0.839   3.552   4.647  0.00  0.00    -0.491 OA
ENDBRANCH   7  14
BRANCH  12  15
ATOM     15  O   UNL     1       3.245   2.379   5.287  0.00  0.00    -0.491 OA
ATOM     16  C   UNL     1       4.501   1.748   5.548  0.00  0.00    +0.277 C 
ENDBRANCH  12  15
BRANCH  10  17
ATOM     17  O   UNL     1       3.744   0.954   0.777  0.00  0.00    -0.495 OA
ATOM     18  C   UNL     1       4.981   0.363   1.179  0.00  0.00    +0.277 C 
ENDBRANCH  10  17
ENDBRANCH   1   9
BRANCH   5  19
ATOM     19  N   UNL     1      -2.345   1.236   0.032  0.00  0.00    -0.352 N 
ATOM     20  H   UNL     1      -2.247   0.140   0.031  0.00  0.00    +0.143 HD
ATOM     21  H   UNL     1      -3.343   1.698   0.042  0.00  0.00    +0.143 HD
ENDBRANCH   5  19
BRANCH   3  22
ATOM     22  N   UNL     1       0.247   5.550  -1.118  0.00  0.00    -0.352 N 
ATOM     23  H   UNL     1      -0.633   6.208  -1.159  0.00  0.00    +0.143 HD
ATOM     24  H   UNL     1       1.215   5.901  -1.505  0.00  0.00    +0.143 HD
ENDBRANCH   3  22
BRANCH   6  25
ATOM     25  C   UNL     1       0.002  -0.004   0.002  0.00  0.00    +0.098 C 
ATOM     26  N   UNL     1       0.018  -1.140  -0.004  0.00  0.00    -0.191 NA
ENDBRANCH   6  25
BRANCH   2  27
ATOM     27  C   UNL     1       2.442   4.057  -1.090  0.00  0.00    +0.098 C 
ATOM     28  N   UNL     1       3.401   4.491  -1.518  0.00  0.00    -0.191 NA
ENDBRANCH   2  27
TORSDOF 8
