REMARK  Name = ZINC39462337
REMARK  11 active torsions:
REMARK  status: ('A' for Active; 'I' for Inactive)
REMARK    1  A    between atoms: C_1  and  C_2
REMARK    2  A    between atoms: C_7  and  N_12
REMARK    3  A    between atoms: C_9  and  C_11
REMARK    4  A    between atoms: C_13  and  C_15
REMARK    5  A    between atoms: C_15  and  O_16
REMARK    6  A    between atoms: O_16  and  C_17
REMARK    7  A    between atoms: C_17  and  C_19
REMARK    8  A    between atoms: C_21  and  C_29
REMARK    9  A    between atoms: C_22  and  C_26
REMARK   10  A    between atoms: C_23  and  C_25
REMARK   11  A    between atoms: C_26  and  C_28
REMARK                            x       y       z     vdW  Elec       q    Type
REMARK                         _______ _______ _______ _____ _____    ______ ____
ROOT
ATOM      1  C   UNL     1       2.734   0.139   5.651  0.00  0.00    +0.327 C 
ENDROOT
BRANCH   1   3
ATOM      2  N   UNL     1       2.444   0.198   3.195  0.00  0.00    -0.309 N 
ATOM      3  C   UNL     1       2.026   0.612   4.407  0.00  0.00    +0.251 C 
ATOM      4  O   UNL     1       1.079   1.365   4.497  0.00  0.00    -0.272 OA
ATOM      5  H   UNL     1       3.201  -0.404   3.123  0.00  0.00    +0.149 HD
BRANCH   2  11
ATOM      6  C   UNL     1       1.526   2.517  -0.267  0.00  0.00    +0.008 C 
ATOM      7  C   UNL     1       1.998   1.075  -0.466  0.00  0.00    -0.009 C 
ATOM      8  C   UNL     1       0.790   0.176  -0.738  0.00  0.00    +0.003 C 
ATOM      9  C   UNL     1      -0.171   0.239   0.451  0.00  0.00    +0.002 C 
ATOM     10  C   UNL     1       0.548  -0.241   1.714  0.00  0.00    +0.022 C 
ATOM     11  C   UNL     1       1.756   0.658   1.986  0.00  0.00    +0.076 C 
ATOM     12  C   UNL     1       2.717   0.595   0.797  0.00  0.00    +0.009 C 
ATOM     13  C   UNL     1       3.925   1.494   1.069  0.00  0.00    +0.009 C 
ENDBRANCH   2  11
ENDBRANCH   1   3
BRANCH   1  14
ATOM     14  O   UNL     1       2.109   0.712   6.801  0.00  0.00    -0.453 OA
BRANCH  14  15
ATOM     15  C   UNL     1       2.623   0.389   7.998  0.00  0.00    +0.337 C 
ATOM     16  O   UNL     1       3.573  -0.356   8.067  0.00  0.00    -0.248 OA
BRANCH  15  17
ATOM     17  C   UNL     1       2.017   0.954   9.257  0.00  0.00    +0.240 C 
ATOM     18  C   UNL     1       2.527   2.358   9.497  0.00  0.00    -0.026 C 
ATOM     19  C   UNL     1       3.168   2.316  10.687  0.00  0.00    +0.039 C 
ATOM     20  C   UNL     1       3.093   0.947  11.222  0.00  0.00    +0.045 C 
ATOM     21  N   UNL     1       2.444   0.170  10.422  0.00  0.00    -0.269 NA
ATOM     22  C   UNL     1       3.694   0.509  12.533  0.00  0.00    +0.066 C 
ATOM     23  C   UNL     1       2.356   3.555   8.598  0.00  0.00    +0.042 C 
BRANCH  19  24
ATOM     24  C   UNL     1       3.833   3.453  11.341  0.00  0.00    +0.162 C 
ATOM     25  O   UNL     1       3.889   4.526  10.780  0.00  0.00    -0.292 OA
ATOM     26  C   UNL     1       4.444   3.284  12.708  0.00  0.00    +0.091 C 
ENDBRANCH  19  24
ENDBRANCH  15  17
ENDBRANCH  14  15
ENDBRANCH   1  14
TORSDOF 6
