REMARK  Name = ZINC09643611
REMARK  10 active torsions:
REMARK  status: ('A' for Active; 'I' for Inactive)
REMARK    1  A    between atoms: C_1  and  C_2
REMARK    2  A    between atoms: C_2  and  C_3
REMARK    3  A    between atoms: C_2  and  C_4
REMARK    4  A    between atoms: C_4  and  C_5
REMARK    5  A    between atoms: C_5  and  N_6
REMARK    6  A    between atoms: N_6  and  C_7
REMARK    7  A    between atoms: C_8  and  N_23
REMARK    8  A    between atoms: N_9  and  C_16
REMARK    9  A    between atoms: C_16  and  C_17
REMARK   10  A    between atoms: C_24  and  C_26
REMARK                            x       y       z     vdW  Elec       q    Type
REMARK                         _______ _______ _______ _____ _____    ______ ____
ROOT
ATOM      1  N   UNL     1      -2.726  -2.430  -0.164  0.00  0.00    -0.260 N 
ATOM      2  C   UNL     1      -3.316  -2.869   0.966  0.00  0.00    +0.252 C 
ATOM      3  O   UNL     1      -4.386  -3.444   0.909  0.00  0.00    -0.270 OA
ENDROOT
BRANCH   2   4
ATOM      4  C   UNL     1      -2.659  -2.652   2.277  0.00  0.00    +0.051 A 
ATOM      5  C   UNL     1      -1.580  -3.401   2.651  0.00  0.00    +0.083 A 
ATOM      6  C   UNL     1      -0.965  -3.179   3.907  0.00  0.00    +0.250 A 
ATOM      7  N   UNL     1      -1.416  -2.241   4.758  0.00  0.00    -0.322 N 
ATOM      8  C   UNL     1      -2.501  -1.452   4.441  0.00  0.00    +0.050 A 
ATOM      9  C   UNL     1      -3.150  -1.621   3.204  0.00  0.00    +0.011 A 
ATOM     10  C   UNL     1      -4.246  -0.820   2.877  0.00  0.00    +0.011 A 
ATOM     11  C   UNL     1      -4.679   0.129   3.760  0.00  0.00    +0.001 A 
ATOM     12  C   UNL     1      -4.039   0.305   4.979  0.00  0.00    +0.002 A 
ATOM     13  C   UNL     1      -2.962  -0.483   5.326  0.00  0.00    +0.026 A 
ATOM     14  O   UNL     1      -0.004  -3.856   4.226  0.00  0.00    -0.268 OA
ATOM     15  H   UNL     1      -0.970  -2.117   5.610  0.00  0.00    +0.169 HD
ENDBRANCH   2   4
BRANCH   1  16
ATOM     16  C   UNL     1      -3.402  -2.531  -1.396  0.00  0.00    +0.140 A 
ATOM     17  C   UNL     1      -2.925  -3.360  -2.392  0.00  0.00    +0.128 A 
ATOM     18  N   UNL     1      -3.607  -3.437  -3.584  0.00  0.00    -0.276 N 
ATOM     19  C   UNL     1      -4.724  -2.714  -3.777  0.00  0.00    +0.331 A 
ATOM     20  O   UNL     1      -5.312  -2.797  -4.839  0.00  0.00    -0.246 OA
ATOM     21  N   UNL     1      -5.204  -1.901  -2.819  0.00  0.00    -0.273 N 
ATOM     22  H   UNL     1      -6.011  -1.390  -2.984  0.00  0.00    +0.173 HD
ATOM     23  C   UNL     1      -4.578  -1.793  -1.631  0.00  0.00    +0.277 A 
ATOM     24  O   UNL     1      -5.024  -1.058  -0.767  0.00  0.00    -0.266 OA
BRANCH  17  25
ATOM     25  N   UNL     1      -1.783  -4.098  -2.195  0.00  0.00    -0.343 N 
ATOM     26  H   UNL     1      -1.353  -4.103  -1.326  0.00  0.00    +0.144 HD
ATOM     27  H   UNL     1      -1.407  -4.614  -2.925  0.00  0.00    +0.144 HD
ENDBRANCH  17  25
BRANCH  18  28
ATOM     28  C   UNL     1      -3.112  -4.313  -4.650  0.00  0.00    +0.163 C 
BRANCH  28  29
ATOM     29  C   UNL     1      -3.724  -5.682  -4.499  0.00  0.00    -0.028 A 
ATOM     30  C   UNL     1      -3.092  -6.640  -3.729  0.00  0.00    +0.005 A 
ATOM     31  C   UNL     1      -3.653  -7.896  -3.591  0.00  0.00    +0.000 A 
ATOM     32  C   UNL     1      -4.845  -8.194  -4.223  0.00  0.00    +0.000 A 
ATOM     33  C   UNL     1      -5.478  -7.235  -4.993  0.00  0.00    +0.000 A 
ATOM     34  C   UNL     1      -4.919  -5.978  -5.127  0.00  0.00    +0.005 A 
ENDBRANCH  28  29
ENDBRANCH  18  28
ENDBRANCH   1  16
BRANCH   1  35
ATOM     35  C   UNL     1      -1.384  -1.847  -0.111  0.00  0.00    +0.114 C 
BRANCH  35  36
ATOM     36  C   UNL     1      -1.493  -0.325   0.009  0.00  0.00    +0.022 C 
BRANCH  36  38
ATOM     37  C   UNL     1      -0.214   1.819  -0.096  0.00  0.00    +0.007 C 
ATOM     38  C   UNL     1      -0.096   0.294  -0.066  0.00  0.00    -0.016 C 
ATOM     39  C   UNL     1       0.717  -0.130   1.159  0.00  0.00    +0.007 C 
ENDBRANCH  36  38
ENDBRANCH  35  36
ENDBRANCH   1  35
TORSDOF 8
