REMARK  Name = ZINC08458304
REMARK  6 active torsions:
REMARK  status: ('A' for Active; 'I' for Inactive)
REMARK    1  A    between atoms: C_1  and  C_2
REMARK    2  A    between atoms: C_2  and  C_3
REMARK    3  A    between atoms: C_6  and  C_9
REMARK    4  A    between atoms: C_11  and  C_14
REMARK    5  A    between atoms: C_14  and  S_15
REMARK    6  A    between atoms: S_15  and  C_16
REMARK                            x       y       z     vdW  Elec       q    Type
REMARK                         _______ _______ _______ _____ _____    ______ ____
ROOT
ATOM      1  C   UNL     1      -6.420   3.713   0.086  0.00  0.00    +0.133 C 
ENDROOT
BRANCH   1   4
ATOM      2  C   UNL     1      -8.982   1.337  -1.064  0.00  0.00    +0.109 A 
ATOM      3  N   UNL     1      -8.017   2.246  -1.041  0.00  0.00    -0.243 NA
ATOM      4  C   UNL     1      -7.521   2.684   0.092  0.00  0.00    +0.059 A 
ATOM      5  C   UNL     1      -8.007   2.213   1.272  0.00  0.00    +0.071 A 
ATOM      6  S   UNL     1      -9.246   1.065   0.683  0.00  0.00    -0.075 S 
BRANCH   2  10
ATOM      7  C   UNL     1     -10.934  -0.437  -4.393  0.00  0.00    -0.048 A 
ATOM      8  C   UNL     1     -11.300  -0.797  -3.108  0.00  0.00    +0.004 A 
ATOM      9  C   UNL     1     -10.670  -0.225  -2.023  0.00  0.00    +0.011 A 
ATOM     10  C   UNL     1      -9.662   0.720  -2.223  0.00  0.00    +0.007 A 
ATOM     11  C   UNL     1      -9.302   1.082  -3.522  0.00  0.00    +0.011 A 
ATOM     12  C   UNL     1      -9.936   0.498  -4.599  0.00  0.00    +0.004 A 
BRANCH   7  14
ATOM     13  C   UNL     1     -12.846  -0.225  -5.958  0.00  0.00    +0.009 C 
ATOM     14  C   UNL     1     -11.627  -1.066  -5.574  0.00  0.00    +0.032 C 
ENDBRANCH   7  14
ENDBRANCH   2  10
ENDBRANCH   1   4
BRANCH   1  15
ATOM     15  S   UNL     1      -4.811   2.876   0.065  0.00  0.00    -0.079 S 
BRANCH  15  16
ATOM     16  C   UNL     1      -3.644   4.196   0.060  0.00  0.00    +0.198 A 
ATOM     17  N   UNL     1      -3.928   5.475   0.070  0.00  0.00    -0.120 NA
ATOM     18  N   UNL     1      -2.721   6.187   0.061  0.00  0.00    -0.110 NA
ATOM     19  C   UNL     1      -1.736   5.318   0.047  0.00  0.00    +0.235 A 
ATOM     20  N   UNL     1      -2.281   4.065   0.046  0.00  0.00    -0.255 N 
ATOM     21  C   UNL     1      -1.239   3.134   0.031  0.00  0.00    +0.075 A 
ATOM     22  C   UNL     1      -1.219   1.747   0.017  0.00  0.00    +0.028 A 
ATOM     23  C   UNL     1      -0.013   1.076   0.008  0.00  0.00    +0.002 A 
ATOM     24  C   UNL     1       1.179   1.782   0.000  0.00  0.00    +0.002 A 
ATOM     25  C   UNL     1       1.169   3.162   0.007  0.00  0.00    +0.028 A 
ATOM     26  C   UNL     1      -0.039   3.846   0.023  0.00  0.00    +0.066 A 
ATOM     27  N   UNL     1      -0.357   5.200   0.033  0.00  0.00    -0.322 N 
ATOM     28  H   UNL     1       0.272   6.103   0.031  0.00  0.00    +0.169 HD
ENDBRANCH  15  16
ENDBRANCH   1  15
TORSDOF 5
