REMARK  Name = ZINC17967531
REMARK  9 active torsions:
REMARK  status: ('A' for Active; 'I' for Inactive)
REMARK    1  A    between atoms: C_1  and  C_2
REMARK    2  A    between atoms: N_4  and  C_5
REMARK    3  A    between atoms: C_6  and  N_24
REMARK    4  A    between atoms: C_9  and  S_11
REMARK    5  A    between atoms: S_11  and  C_12
REMARK    6  A    between atoms: C_12  and  C_13
REMARK    7  A    between atoms: N_15  and  C_16
REMARK    8  A    between atoms: C_16  and  C_17
REMARK    9  A    between atoms: C_25  and  C_27
REMARK                            x       y       z     vdW  Elec       q    Type
REMARK                         _______ _______ _______ _____ _____    ______ ____
ROOT
ATOM      1  C   UNL     1      -1.137  -2.092   0.014  0.00  0.00    +0.155 A 
ATOM      2  C   UNL     1      -2.332  -2.801   0.013  0.00  0.00    +0.139 A 
ATOM      3  C   UNL     1      -2.282  -4.205  -0.002  0.00  0.00    +0.275 A 
ATOM      4  N   UNL     1      -1.077  -4.812  -0.013  0.00  0.00    -0.300 N 
ATOM      5  C   UNL     1       0.065  -4.068  -0.011  0.00  0.00    +0.171 A 
ATOM      6  N   UNL     1       0.026  -2.752  -0.004  0.00  0.00    -0.206 NA
ATOM      7  O   UNL     1      -3.310  -4.863  -0.003  0.00  0.00    -0.266 OA
ATOM      8  H   UNL     1      -1.023  -5.780  -0.023  0.00  0.00    +0.171 HD
ENDROOT
BRANCH   1  12
ATOM      9  C   UNL     1      -0.004   1.488   0.043  0.00  0.00    +0.109 C 
ATOM     10  C   UNL     1       0.011  -0.018   0.028  0.00  0.00    +0.215 C 
ATOM     11  O   UNL     1       1.067  -0.615   0.018  0.00  0.00    -0.276 OA
ATOM     12  N   UNL     1      -1.150  -0.703   0.027  0.00  0.00    -0.269 N 
ATOM     13  H   UNL     1      -1.995  -0.227   0.035  0.00  0.00    +0.156 HD
ENDBRANCH   1  12
BRANCH   2  14
ATOM     14  N   UNL     1      -3.567  -2.126   0.026  0.00  0.00    -0.274 N 
ATOM     15  C   UNL     1      -4.447  -2.313  -0.978  0.00  0.00    +0.255 C 
ATOM     16  O   UNL     1      -4.212  -3.128  -1.850  0.00  0.00    -0.269 OA
ATOM     17  H   UNL     1      -3.784  -1.527   0.757  0.00  0.00    +0.155 HD
BRANCH  15  18
ATOM     18  C   UNL     1      -5.688  -1.534  -1.018  0.00  0.00    +0.074 A 
ATOM     19  C   UNL     1      -6.716  -1.576  -1.947  0.00  0.00    +0.021 A 
ATOM     20  C   UNL     1      -7.764  -0.716  -1.717  0.00  0.00    +0.008 A 
ATOM     21  C   UNL     1      -7.726   0.093  -0.630  0.00  0.00    +0.046 A 
ATOM     22  S   UNL     1      -6.272  -0.291   0.119  0.00  0.00    -0.092 S 
ENDBRANCH  15  18
ENDBRANCH   2  14
BRANCH   5  23
ATOM     23  S   UNL     1       1.626  -4.885  -0.026  0.00  0.00    -0.078 S 
BRANCH  23  24
ATOM     24  C   UNL     1       2.830  -3.528  -0.018  0.00  0.00    +0.173 C 
BRANCH  24  25
ATOM     25  C   UNL     1       4.226  -4.096  -0.029  0.00  0.00    +0.223 C 
ATOM     26  O   UNL     1       4.392  -5.298  -0.042  0.00  0.00    -0.275 OA
ATOM     27  N   UNL     1       5.290  -3.269  -0.026  0.00  0.00    -0.312 N 
ATOM     28  H   UNL     1       5.158  -2.308  -0.016  0.00  0.00    +0.149 HD
BRANCH  27  29
ATOM     29  C   UNL     1       6.647  -3.821  -0.037  0.00  0.00    +0.135 C 
BRANCH  29  30
ATOM     30  C   UNL     1       7.663  -2.677  -0.030  0.00  0.00    +0.135 C 
ATOM     31  C   UNL     1       9.107  -3.240  -0.077  0.00  0.00    +0.035 C 
ATOM     32  C   UNL     1       9.870  -2.039  -0.700  0.00  0.00    +0.031 C 
ATOM     33  C   UNL     1       8.820  -1.447  -1.664  0.00  0.00    +0.160 C 
ATOM     34  O   UNL     1       7.529  -1.884  -1.220  0.00  0.00    -0.375 OA
ENDBRANCH  29  30
ENDBRANCH  27  29
ENDBRANCH  24  25
ENDBRANCH  23  24
ENDBRANCH   5  23
TORSDOF 8
