REMARK  Name = ZINC64874145
REMARK  7 active torsions:
REMARK  status: ('A' for Active; 'I' for Inactive)
REMARK    1  A    between atoms: C_1  and  C_2
REMARK    2  A    between atoms: C_5  and  N_8
REMARK    3  A    between atoms: C_9  and  C_11
REMARK    4  A    between atoms: C_19  and  C_21
REMARK    5  A    between atoms: C_24  and  O_29
REMARK    6  A    between atoms: C_25  and  O_27
REMARK    7  A    between atoms: O_27  and  C_28
REMARK                            x       y       z     vdW  Elec       q    Type
REMARK                         _______ _______ _______ _____ _____    ______ ____
ROOT
ATOM      1  C   UNL     1       0.304  -6.311   1.122  0.00  0.00    +0.096 A 
ATOM      2  C   UNL     1       0.330  -7.145  -0.024  0.00  0.00    +0.149 A 
ATOM      3  N   UNL     1       0.459  -8.383   0.373  0.00  0.00    -0.176 NA
ATOM      4  N   UNL     1       0.524  -8.412   1.764  0.00  0.00    -0.238 N 
ATOM      5  C   UNL     1       0.431  -7.138   2.220  0.00  0.00    +0.134 A 
ATOM      6  N   UNL     1       0.461  -6.838   3.567  0.00  0.00    -0.302 N 
ATOM      7  C   UNL     1       0.289  -7.869   4.460  0.00  0.00    +0.018 C 
ATOM      8  C   UNL     1       0.381  -9.160   4.079  0.00  0.00    +0.041 C 
ATOM      9  C   UNL     1       0.675  -9.561   2.653  0.00  0.00    +0.174 C 
ATOM     10  C   UNL     1       0.202 -10.200   5.010  0.00  0.00    +0.163 C 
ATOM     11  O   UNL     1       0.269 -11.354   4.633  0.00  0.00    -0.292 OA
ATOM     12  C   UNL     1      -0.070  -9.917   6.461  0.00  0.00    +0.080 C 
ATOM     13  C   UNL     1       0.555  -8.567   6.830  0.00  0.00    +0.014 C 
ATOM     14  C   UNL     1      -0.015  -7.500   5.893  0.00  0.00    +0.051 C 
ATOM     15  H   UNL     1       0.600  -5.928   3.873  0.00  0.00    +0.153 HD
ENDROOT
BRANCH   9  16
ATOM     16  C   UNL     1       2.091 -10.071   2.574  0.00  0.00    -0.015 A 
ATOM     17  C   UNL     1       3.143  -9.243   2.921  0.00  0.00    +0.010 A 
ATOM     18  C   UNL     1       4.443  -9.706   2.850  0.00  0.00    +0.049 A 
ATOM     19  C   UNL     1       4.696 -11.002   2.431  0.00  0.00    +0.158 A 
ATOM     20  C   UNL     1       3.637 -11.836   2.083  0.00  0.00    +0.162 A 
ATOM     21  C   UNL     1       2.336 -11.367   2.161  0.00  0.00    +0.055 A 
BRANCH  20  22
ATOM     22  O   UNL     1       3.880 -13.109   1.671  0.00  0.00    -0.491 OA
ATOM     23  C   UNL     1       2.745 -13.908   1.330  0.00  0.00    +0.277 C 
ENDBRANCH  20  22
BRANCH  19  24
ATOM     24  O   UNL     1       5.974 -11.459   2.361  0.00  0.00    -0.503 OA
ATOM     25  H   UNL     1       6.290 -11.871   3.176  0.00  0.00    +0.292 HD
ENDBRANCH  19  24
ENDBRANCH   9  16
BRANCH   1  27
ATOM     26  N   UNL     1       0.058  -4.169  -0.021  0.00  0.00    -0.281 N 
ATOM     27  C   UNL     1       0.174  -4.848   1.138  0.00  0.00    +0.253 C 
ATOM     28  O   UNL     1       0.172  -4.249   2.197  0.00  0.00    -0.270 OA
ATOM     29  H   UNL     1      -0.017  -4.651  -0.860  0.00  0.00    +0.155 HD
BRANCH  26  34
ATOM     30  C   UNL     1       0.006   1.503   0.009  0.00  0.00    +0.044 C 
ATOM     31  C   UNL     1       0.020  -0.004   0.001  0.00  0.00    -0.050 A 
ATOM     32  C   UNL     1      -0.724  -0.696  -0.938  0.00  0.00    +0.005 A 
ATOM     33  C   UNL     1      -0.713  -2.077  -0.948  0.00  0.00    +0.023 A 
ATOM     34  C   UNL     1       0.045  -2.771  -0.014  0.00  0.00    +0.034 A 
ATOM     35  C   UNL     1       0.791  -2.073   0.927  0.00  0.00    +0.023 A 
ATOM     36  C   UNL     1       0.781  -0.692   0.928  0.00  0.00    +0.005 A 
ENDBRANCH  26  34
ENDBRANCH   1  27
TORSDOF 5
