REMARK  Name = ZINC18283802
REMARK  9 active torsions:
REMARK  status: ('A' for Active; 'I' for Inactive)
REMARK    1  A    between atoms: C_1  and  C_2
REMARK    2  A    between atoms: C_2  and  C_32
REMARK    3  A    between atoms: C_6  and  C_17
REMARK    4  A    between atoms: C_19  and  O_27
REMARK    5  A    between atoms: C_20  and  O_25
REMARK    6  A    between atoms: C_21  and  O_23
REMARK    7  A    between atoms: O_23  and  C_24
REMARK    8  A    between atoms: O_25  and  C_26
REMARK    9  A    between atoms: O_27  and  C_28
REMARK                            x       y       z     vdW  Elec       q    Type
REMARK                         _______ _______ _______ _____ _____    ______ ____
ROOT
ATOM      1  C   UNL     1      -0.019   1.526   0.010  0.00  0.00    +0.011 C 
ATOM      2  C   UNL     1       0.002  -0.004   0.002  0.00  0.00    -0.023 C 
ATOM      3  C   UNL     1       0.741  -0.503  -1.242  0.00  0.00    +0.058 C 
ATOM      4  C   UNL     1       2.168  -0.009  -1.215  0.00  0.00    +0.017 C 
ATOM      5  C   UNL     1       2.813   0.186  -0.046  0.00  0.00    +0.024 C 
ATOM      6  C   UNL     1       4.238   0.678  -0.009  0.00  0.00    +0.093 C 
ATOM      7  C   UNL     1       4.915   0.492  -1.334  0.00  0.00    +0.069 A 
ATOM      8  C   UNL     1       4.162   0.279  -2.494  0.00  0.00    +0.137 A 
ATOM      9  N   UNL     1       4.777   0.121  -3.661  0.00  0.00    -0.178 NA
ATOM     10  C   UNL     1       6.104   0.161  -3.743  0.00  0.00    +0.350 A 
ATOM     11  N   UNL     1       6.864   0.360  -2.650  0.00  0.00    -0.273 N 
ATOM     12  C   UNL     1       6.278   0.530  -1.427  0.00  0.00    +0.260 A 
ATOM     13  O   UNL     1       7.035   0.731  -0.327  0.00  0.00    -0.267 OA
ATOM     14  O   UNL     1       6.643   0.014  -4.828  0.00  0.00    -0.245 OA
ATOM     15  N   UNL     1       2.787   0.230  -2.413  0.00  0.00    -0.302 N 
ATOM     16  C   UNL     1       2.173  -0.057   1.183  0.00  0.00    +0.162 C 
ATOM     17  O   UNL     1       2.788   0.109   2.217  0.00  0.00    -0.292 OA
ATOM     18  C   UNL     1       0.742  -0.517   1.242  0.00  0.00    +0.086 C 
ATOM     19  C   UNL     1      -1.431  -0.539  -0.000  0.00  0.00    +0.011 C 
ATOM     20  H   UNL     1       2.253   0.365  -3.211  0.00  0.00    +0.153 HD
ATOM     21  H   UNL     1       7.830   0.382  -2.730  0.00  0.00    +0.173 HD
ENDROOT
BRANCH   6  22
ATOM     22  C   UNL     1       4.245   2.143   0.346  0.00  0.00    -0.028 A 
ATOM     23  C   UNL     1       3.588   3.051  -0.463  0.00  0.00    +0.054 A 
ATOM     24  C   UNL     1       3.592   4.399  -0.140  0.00  0.00    +0.165 A 
ATOM     25  C   UNL     1       4.259   4.837   0.998  0.00  0.00    +0.204 A 
ATOM     26  C   UNL     1       4.918   3.921   1.809  0.00  0.00    +0.165 A 
ATOM     27  C   UNL     1       4.904   2.573   1.482  0.00  0.00    +0.054 A 
BRANCH  26  28
ATOM     28  O   UNL     1       5.572   4.344   2.924  0.00  0.00    -0.491 OA
ATOM     29  C   UNL     1       6.227   3.347   3.710  0.00  0.00    +0.277 C 
ENDBRANCH  26  28
BRANCH  25  30
ATOM     30  O   UNL     1       4.266   6.160   1.318  0.00  0.00    -0.488 OA
ATOM     31  C   UNL     1       3.207   6.631   2.154  0.00  0.00    +0.277 C 
ENDBRANCH  25  30
BRANCH  24  32
ATOM     32  O   UNL     1       2.946   5.293  -0.936  0.00  0.00    -0.491 OA
ATOM     33  C   UNL     1       2.283   4.771  -2.090  0.00  0.00    +0.277 C 
ENDBRANCH  24  32
ENDBRANCH   6  22
TORSDOF 4
