REMARK  Name = ZINC58406454
REMARK  7 active torsions:
REMARK  status: ('A' for Active; 'I' for Inactive)
REMARK    1  A    between atoms: C_1  and  C_2
REMARK    2  A    between atoms: C_7  and  C_8
REMARK    3  A    between atoms: C_8  and  C_11
REMARK    4  A    between atoms: C_11  and  N_12
REMARK    5  A    between atoms: C_13  and  C_15
REMARK    6  A    between atoms: C_18  and  S_20
REMARK    7  A    between atoms: S_20  and  N_23
REMARK                            x       y       z     vdW  Elec       q    Type
REMARK                         _______ _______ _______ _____ _____    ______ ____
ROOT
ATOM      1  N   UNL     1      -1.173   1.878   0.993  0.00  0.00    -0.308 N 
ATOM      2  C   UNL     1      -2.045   2.864   0.701  0.00  0.00    +0.279 C 
ATOM      3  O   UNL     1      -2.668   3.409   1.592  0.00  0.00    -0.267 OA
ATOM      4  H   UNL     1      -0.624   1.493   0.292  0.00  0.00    +0.149 HD
ENDROOT
BRANCH   2   5
ATOM      5  C   UNL     1      -2.243   3.278  -0.692  0.00  0.00    +0.192 A 
ATOM      6  C   UNL     1      -3.015   4.321  -1.117  0.00  0.00    +0.057 A 
ATOM      7  C   UNL     1      -2.914   4.354  -2.517  0.00  0.00    +0.072 A 
ATOM      8  C   UNL     1      -2.096   3.342  -2.880  0.00  0.00    +0.258 A 
ATOM      9  O   UNL     1      -1.689   2.700  -1.778  0.00  0.00    -0.432 OA
BRANCH   8  10
ATOM     10  S   UNL     1      -1.635   2.939  -4.532  0.00  0.00    +0.089 S 
ATOM     11  O   UNL     1      -1.268   1.566  -4.528  0.00  0.00    -0.150 OA
ATOM     12  O   UNL     1      -2.658   3.451  -5.376  0.00  0.00    -0.150 OA
BRANCH  10  13
ATOM     13  N   UNL     1      -0.261   3.795  -4.880  0.00  0.00    -0.201 NA
ATOM     14  H   UNL     1       0.127   4.381  -4.213  0.00  0.00    +0.144 HD
ATOM     15  H   UNL     1       0.156   3.710  -5.752  0.00  0.00    +0.144 HD
ENDBRANCH  10  13
ENDBRANCH   8  10
ENDBRANCH   2   5
BRANCH   1  16
ATOM     16  C   UNL     1      -1.056   1.389   2.369  0.00  0.00    +0.116 C 
BRANCH  16  17
ATOM     17  C   UNL     1      -0.102   0.192   2.405  0.00  0.00    +0.012 C 
ATOM     18  C   UNL     1       1.382   0.478   2.640  0.00  0.00    +0.014 C 
ATOM     19  C   UNL     1       0.541  -0.158   3.748  0.00  0.00    +0.014 C 
BRANCH  17  26
ATOM     20  C   UNL     1      -2.134  -1.713   3.173  0.00  0.00    +0.044 C 
ATOM     21  C   UNL     1      -1.426  -1.858   1.850  0.00  0.00    -0.047 A 
ATOM     22  C   UNL     1      -1.753  -2.900   1.002  0.00  0.00    +0.003 A 
ATOM     23  C   UNL     1      -1.103  -3.034  -0.210  0.00  0.00    +0.000 A 
ATOM     24  C   UNL     1      -0.128  -2.125  -0.576  0.00  0.00    +0.000 A 
ATOM     25  C   UNL     1       0.198  -1.083   0.272  0.00  0.00    +0.004 A 
ATOM     26  C   UNL     1      -0.454  -0.947   1.483  0.00  0.00    -0.037 A 
ENDBRANCH  17  26
ENDBRANCH  16  17
ENDBRANCH   1  16
TORSDOF 6
