REMARK  Name = ZINC11011075
REMARK  10 active torsions:
REMARK  status: ('A' for Active; 'I' for Inactive)
REMARK    1  A    between atoms: C_1  and  C_2
REMARK    2  A    between atoms: C_2  and  O_3
REMARK    3  A    between atoms: O_3  and  C_4
REMARK    4  A    between atoms: C_9  and  C_10
REMARK    5  A    between atoms: C_13  and  S_16
REMARK    6  A    between atoms: N_14  and  N_15
REMARK    7  A    between atoms: S_16  and  C_17
REMARK    8  A    between atoms: C_17  and  C_19
REMARK    9  A    between atoms: C_17  and  C_20
REMARK   10  A    between atoms: N_25  and  C_26
REMARK                            x       y       z     vdW  Elec       q    Type
REMARK                         _______ _______ _______ _____ _____    ______ ____
ROOT
ATOM      1  C   UNL     1       1.258  -2.159  -0.021  0.00  0.00    +0.185 A 
ATOM      2  N   UNL     1       0.219  -2.962  -0.015  0.00  0.00    -0.127 NA
ATOM      3  N   UNL     1       0.610  -4.186  -0.026  0.00  0.00    -0.121 NA
ATOM      4  C   UNL     1       1.923  -4.241  -0.039  0.00  0.00    +0.209 A 
ATOM      5  N   UNL     1       2.382  -2.954  -0.042  0.00  0.00    -0.224 N 
ENDROOT
BRANCH   1  11
ATOM      6  C   UNL     1       0.002  -0.004   0.002  0.00  0.00    +0.131 A 
ATOM      7  C   UNL     1      -0.017   1.381   0.010  0.00  0.00    +0.046 A 
ATOM      8  C   UNL     1       1.170   2.090   0.002  0.00  0.00    +0.004 A 
ATOM      9  C   UNL     1       2.383   1.424  -0.013  0.00  0.00    +0.001 A 
ATOM     10  C   UNL     1       2.418   0.045  -0.021  0.00  0.00    +0.015 A 
ATOM     11  C   UNL     1       1.227  -0.682  -0.013  0.00  0.00    +0.062 A 
BRANCH   6  12
ATOM     12  O   UNL     1      -1.163  -0.702   0.010  0.00  0.00    -0.492 OA
BRANCH  12  14
ATOM     13  C   UNL     1      -3.572  -0.894   0.033  0.00  0.00    +0.048 C 
ATOM     14  C   UNL     1      -2.374   0.057   0.026  0.00  0.00    +0.226 C 
ENDBRANCH  12  14
ENDBRANCH   6  12
ENDBRANCH   1  11
BRANCH   5  15
ATOM     15  N   UNL     1       3.684  -2.541  -0.059  0.00  0.00    -0.295 N 
ATOM     16  H   UNL     1       4.042  -2.437   0.879  0.00  0.00    +0.163 HD
ATOM     17  H   UNL     1       4.256  -3.174  -0.597  0.00  0.00    +0.163 HD
ENDBRANCH   5  15
BRANCH   4  18
ATOM     18  S   UNL     1       2.908  -5.701  -0.057  0.00  0.00    -0.072 S 
BRANCH  18  19
ATOM     19  C   UNL     1       1.606  -6.959  -0.050  0.00  0.00    +0.137 C 
ATOM     20  C   UNL     1       0.803  -6.868  -1.349  0.00  0.00    +0.029 C 
BRANCH  19  21
ATOM     21  C   UNL     1       2.229  -8.326   0.060  0.00  0.00    +0.234 C 
ATOM     22  O   UNL     1       3.395  -8.487  -0.232  0.00  0.00    -0.274 OA
ATOM     23  N   UNL     1       1.491  -9.371   0.483  0.00  0.00    -0.239 N 
ATOM     24  C   UNL     1       2.048 -10.595   0.582  0.00  0.00    +0.306 C 
ATOM     25  O   UNL     1       3.217 -10.755   0.289  0.00  0.00    -0.252 OA
ATOM     26  N   UNL     1       1.309 -11.639   1.005  0.00  0.00    -0.296 N 
ATOM     27  H   UNL     1       0.558  -9.243   0.717  0.00  0.00    +0.159 HD
ATOM     28  H   UNL     1       0.377 -11.511   1.239  0.00  0.00    +0.151 HD
BRANCH  26  29
ATOM     29  C   UNL     1       1.915 -12.969   1.112  0.00  0.00    +0.075 C 
ATOM     30  C   UNL     1       1.105 -14.158   0.592  0.00  0.00    +0.024 C 
ATOM     31  C   UNL     1       1.285 -13.955   2.098  0.00  0.00    +0.024 C 
ENDBRANCH  26  29
ENDBRANCH  19  21
ENDBRANCH  18  19
ENDBRANCH   4  18
TORSDOF 8
