REMARK  Name = ZINC20705399
REMARK  6 active torsions:
REMARK  status: ('A' for Active; 'I' for Inactive)
REMARK    1  A    between atoms: C_4  and  C_7
REMARK    2  A    between atoms: C_7  and  C_8
REMARK    3  A    between atoms: C_8  and  O_9
REMARK    4  A    between atoms: O_9  and  C_10
REMARK    5  A    between atoms: C_23  and  C_26
REMARK    6  A    between atoms: C_30  and  N_32
REMARK                            x       y       z     vdW  Elec       q    Type
REMARK                         _______ _______ _______ _____ _____    ______ ____
ROOT
ATOM      1  C   UNL     1       2.053   3.115   0.509  0.00  0.00    +0.121 A 
ATOM      2  C   UNL     1       1.144   2.072   0.405  0.00  0.00    +0.047 A 
ATOM      3  C   UNL     1      -0.202   2.339   0.264  0.00  0.00    +0.027 A 
ATOM      4  C   UNL     1      -0.660   3.650   0.234  0.00  0.00    +0.032 A 
ATOM      5  C   UNL     1       0.262   4.699   0.326  0.00  0.00    -0.016 A 
ATOM      6  C   UNL     1       1.606   4.427   0.469  0.00  0.00    +0.051 A 
ATOM      7  C   UNL     1      -0.263   6.079   0.243  0.00  0.00    +0.049 C 
ATOM      8  C   UNL     1       0.432   7.253   0.854  0.00  0.00    -0.023 C 
ATOM      9  C   UNL     1      -0.473   8.138   1.252  0.00  0.00    -0.030 C 
ATOM     10  C   UNL     1      -1.880   7.621   0.946  0.00  0.00    +0.033 C 
ATOM     11  C   UNL     1      -1.657   6.103   0.939  0.00  0.00    +0.029 C 
ATOM     12  C   UNL     1      -2.567   5.273   0.052  0.00  0.00    +0.105 C 
ATOM     13  N   UNL     1      -2.036   3.894   0.116  0.00  0.00    -0.336 N 
ATOM     14  H   UNL     1      -2.724   3.037   0.070  0.00  0.00    +0.147 HD
ENDROOT
BRANCH  12  15
ATOM     15  C   UNL     1      -2.521   5.784  -1.365  0.00  0.00    -0.025 A 
ATOM     16  C   UNL     1      -3.407   6.762  -1.776  0.00  0.00    +0.005 A 
ATOM     17  C   UNL     1      -3.361   7.234  -3.075  0.00  0.00    +0.003 A 
ATOM     18  C   UNL     1      -2.436   6.721  -3.965  0.00  0.00    +0.033 A 
ATOM     19  C   UNL     1      -1.553   5.739  -3.554  0.00  0.00    +0.127 A 
ATOM     20  C   UNL     1      -1.596   5.271  -2.254  0.00  0.00    +0.038 A 
BRANCH  19  21
ATOM     21  N   UNL     1      -0.563   5.190  -4.507  0.00  0.00    +0.056 N 
ATOM     22  O   UNL     1       0.215   4.324  -4.146  0.00  0.00    -0.126 OA
ATOM     23  O   UNL     1      -0.525   5.603  -5.653  0.00  0.00    -0.126 OA
ENDBRANCH  19  21
ENDBRANCH  12  15
BRANCH   1  24
ATOM     24  O   UNL     1       3.380   2.851   0.650  0.00  0.00    -0.492 OA
BRANCH  24  25
ATOM     25  C   UNL     1       3.768   1.476   0.683  0.00  0.00    +0.233 C 
BRANCH  25  26
ATOM     26  C   UNL     1       5.286   1.378   0.846  0.00  0.00    +0.076 C 
BRANCH  26  30
ATOM     27  C   UNL     1       6.447  -2.731   0.946  0.00  0.00    +0.000 A 
ATOM     28  C   UNL     1       6.386  -2.060  -0.260  0.00  0.00    +0.000 A 
ATOM     29  C   UNL     1       6.010  -0.730  -0.293  0.00  0.00    +0.004 A 
ATOM     30  C   UNL     1       5.695  -0.072   0.881  0.00  0.00    -0.044 A 
ATOM     31  C   UNL     1       5.761  -0.742   2.088  0.00  0.00    +0.004 A 
ATOM     32  C   UNL     1       6.132  -2.073   2.120  0.00  0.00    +0.000 A 
ENDBRANCH  26  30
ENDBRANCH  25  26
ENDBRANCH  24  25
ENDBRANCH   1  24
TORSDOF 6
