REMARK  Name = ZINC09497386
REMARK  4 active torsions:
REMARK  status: ('A' for Active; 'I' for Inactive)
REMARK    1  A    between atoms: C_3  and  C_23
REMARK    2  A    between atoms: C_5  and  N_7
REMARK    3  A    between atoms: C_8  and  C_10
REMARK    4  A    between atoms: C_11  and  C_12
REMARK                            x       y       z     vdW  Elec       q    Type
REMARK                         _______ _______ _______ _____ _____    ______ ____
ROOT
ATOM      1  N   UNL     1      -2.405   1.077   0.019  0.00  0.00    -0.282 N 
ATOM      2  C   UNL     1      -1.262   1.770  -0.150  0.00  0.00    +0.241 C 
ATOM      3  O   UNL     1      -1.298   2.978  -0.300  0.00  0.00    -0.270 OA
ATOM      4  H   UNL     1      -2.384   0.108   0.062  0.00  0.00    +0.155 HD
ENDROOT
BRANCH   1   9
ATOM      5  C   UNL     1      -5.993   1.849  -0.254  0.00  0.00    +0.003 A 
ATOM      6  C   UNL     1      -6.050   3.087   0.354  0.00  0.00    +0.013 A 
ATOM      7  C   UNL     1      -4.886   3.670   0.859  0.00  0.00    +0.038 A 
ATOM      8  C   UNL     1      -3.670   2.995   0.751  0.00  0.00    +0.036 A 
ATOM      9  C   UNL     1      -3.623   1.755   0.134  0.00  0.00    +0.034 A 
ATOM     10  C   UNL     1      -4.787   1.183  -0.365  0.00  0.00    +0.023 A 
BRANCH   7  11
ATOM     11  C   UNL     1      -4.944   4.995   1.512  0.00  0.00    +0.242 C 
ATOM     12  O   UNL     1      -3.930   5.501   1.951  0.00  0.00    -0.270 OA
ATOM     13  N   UNL     1      -6.121   5.642   1.621  0.00  0.00    -0.325 N 
ATOM     14  H   UNL     1      -6.931   5.239   1.270  0.00  0.00    +0.145 HD
ATOM     15  H   UNL     1      -6.159   6.512   2.049  0.00  0.00    +0.145 HD
ENDBRANCH   7  11
ENDBRANCH   1   9
BRANCH   2  16
ATOM     16  C   UNL     1      -0.019   1.093  -0.155  0.00  0.00    +0.068 C 
ATOM     17  C   UNL     1       1.133   1.790  -0.332  0.00  0.00    +0.012 C 
BRANCH  17  18
ATOM     18  C   UNL     1       2.371   1.115  -0.342  0.00  0.00    -0.010 C 
ATOM     19  C   UNL     1       3.527   1.809  -0.524  0.00  0.00    +0.018 C 
ATOM     20  C   UNL     1       4.787   1.052  -0.542  0.00  0.00    +0.018 A 
ATOM     21  C   UNL     1       6.020   1.685  -0.384  0.00  0.00    +0.031 A 
ATOM     22  C   UNL     1       7.178   0.934  -0.410  0.00  0.00    +0.042 A 
ATOM     23  C   UNL     1       7.117  -0.440  -0.590  0.00  0.00    +0.023 A 
ATOM     24  C   UNL     1       5.900  -1.076  -0.748  0.00  0.00    +0.048 A 
ATOM     25  C   UNL     1       4.729  -0.340  -0.726  0.00  0.00    +0.128 A 
ATOM     26  O   UNL     1       3.520  -0.936  -0.879  0.00  0.00    -0.487 OA
ATOM     27  C   UNL     1       2.421  -0.379  -0.158  0.00  0.00    +0.264 C 
ATOM     28 CL   UNL     1       8.717   1.712  -0.214  0.00  0.00    -0.084 Cl
ENDBRANCH  17  18
ENDBRANCH   2  16
TORSDOF 4
