REMARK  Name = ZINC37958957
REMARK  3 active torsions:
REMARK  status: ('A' for Active; 'I' for Inactive)
REMARK    1  A    between atoms: C_6  and  O_7
REMARK    2  A    between atoms: C_10  and  C_11
REMARK    3  A    between atoms: C_10  and  N_14
REMARK                            x       y       z     vdW  Elec       q    Type
REMARK                         _______ _______ _______ _____ _____    ______ ____
ROOT
ATOM      1  C   UNL     1       6.227  -1.001  -0.900  0.00  0.00    +0.046 A 
ATOM      2  C   UNL     1       5.172  -0.371  -0.266  0.00  0.00    +0.010 A 
ATOM      3  C   UNL     1       4.887   0.947  -0.547  0.00  0.00    -0.002 A 
ATOM      4  C   UNL     1       5.653   1.664  -1.460  0.00  0.00    +0.126 A 
ATOM      5  C   UNL     1       6.711   1.025  -2.098  0.00  0.00    +0.091 A 
ATOM      6  C   UNL     1       6.996  -0.301  -1.819  0.00  0.00    +0.120 A 
ATOM      7  O   UNL     1       5.215   2.948  -1.569  0.00  0.00    -0.492 OA
ATOM      8  C   UNL     1       3.868   3.033  -1.073  0.00  0.00    +0.233 C 
ATOM      9  C   UNL     1       3.813   1.887  -0.035  0.00  0.00    +0.102 C 
ENDROOT
BRANCH   9  10
ATOM     10  N   UNL     1       4.144   2.380   1.309  0.00  0.00    +0.397 N 
ATOM     11  C   UNL     1       5.454   2.868   1.299  0.00  0.00    -0.075 C 
ATOM     12  C   UNL     1       5.901   3.338   2.700  0.00  0.00    -0.003 C 
ATOM     13  C   UNL     1       5.280   4.681   2.988  0.00  0.00    +0.079 C 
ATOM     14  N   UNL     1       3.989   4.572   3.707  0.00  0.00    -0.318 NA
ATOM     15  C   UNL     1       3.122   3.483   3.205  0.00  0.00    +0.062 C 
ATOM     16  C   UNL     1       3.147   3.397   1.700  0.00  0.00    -0.061 C 
ATOM     17  H   UNL     1       4.135   4.489   4.701  0.00  0.00    +0.122 HD
ATOM     18  H   UNL     1       4.092   1.609   1.958  0.00  0.00    -0.080 HD
ENDBRANCH   9  10
BRANCH   9  19
ATOM     19  C   UNL     1       2.463   1.217  -0.044  0.00  0.00    +0.354 C 
ATOM     20  O   UNL     1       1.894   0.978   1.008  0.00  0.00    -0.247 OA
ATOM     21  O   UNL     1       1.940   0.915  -1.102  0.00  0.00    -0.247 OA
ENDBRANCH   9  19
BRANCH   6  22
ATOM     22  O   UNL     1       8.031  -0.918  -2.446  0.00  0.00    -0.507 OA
ATOM     23  H   UNL     1       7.786  -1.351  -3.276  0.00  0.00    +0.292 HD
ENDBRANCH   6  22
TORSDOF 3
