REMARK  Name = ZINC40744386
REMARK  8 active torsions:
REMARK  status: ('A' for Active; 'I' for Inactive)
REMARK    1  A    between atoms: C_1  and  C_2
REMARK    2  A    between atoms: C_7  and  C_8
REMARK    3  A    between atoms: C_11  and  C_13
REMARK    4  A    between atoms: C_13  and  N_14
REMARK    5  A    between atoms: N_14  and  C_15
REMARK    6  A    between atoms: C_15  and  C_16
REMARK    7  A    between atoms: C_16  and  N_17
REMARK    8  A    between atoms: C_18  and  C_20
REMARK                            x       y       z     vdW  Elec       q    Type
REMARK                         _______ _______ _______ _____ _____    ______ ____
ROOT
ATOM      1  N   UNL     1       2.399   2.016   5.558  0.00  0.00    +0.385 N 
ATOM      2  H   UNL     1       2.068   1.331   6.221  0.00  0.00    -0.085 HD
ATOM      3  H   UNL     1       3.045   1.579   4.918  0.00  0.00    -0.085 HD
ENDROOT
BRANCH   1   4
ATOM      4  C   UNL     1       1.260   2.561   4.807  0.00  0.00    -0.007 C 
BRANCH   4   8
ATOM      5  C   UNL     1       0.025   0.018   2.493  0.00  0.00    +0.135 A 
ATOM      6  C   UNL     1      -0.801  -0.221   3.545  0.00  0.00    +0.050 A 
ATOM      7  C   UNL     1      -0.450   0.699   4.553  0.00  0.00    +0.043 A 
ATOM      8  C   UNL     1       0.563   1.446   4.071  0.00  0.00    +0.089 A 
ATOM      9  O   UNL     1       0.851   1.028   2.828  0.00  0.00    -0.462 OA
BRANCH   5  16
ATOM     10  C   UNL     1      -0.018   1.503   0.010  0.00  0.00    +0.044 C 
ATOM     11  C   UNL     1       0.002  -0.004   0.002  0.00  0.00    -0.039 A 
ATOM     12  C   UNL     1       0.006  -0.689  -1.196  0.00  0.00    +0.019 A 
ATOM     13  C   UNL     1       0.024  -2.073  -1.205  0.00  0.00    +0.018 A 
ATOM     14  C   UNL     1       0.039  -2.779  -0.014  0.00  0.00    +0.016 A 
ATOM     15  C   UNL     1       0.036  -2.106   1.190  0.00  0.00    +0.013 A 
ATOM     16  C   UNL     1       0.023  -0.710   1.206  0.00  0.00    +0.020 A 
ATOM     17 BR   UNL     1       0.028  -3.003  -2.851  0.00  0.00    -0.050 Br
ENDBRANCH   5  16
ENDBRANCH   4   8
ENDBRANCH   1   4
BRANCH   1  18
ATOM     18  C   UNL     1       3.078   3.103   6.275  0.00  0.00    -0.063 C 
BRANCH  18  19
ATOM     19  C   UNL     1       4.264   2.535   7.056  0.00  0.00    +0.085 C 
BRANCH  19  20
ATOM     20  N   UNL     1       4.942   3.620   7.771  0.00  0.00    -0.312 N 
ATOM     21  C   UNL     1       6.023   3.353   8.532  0.00  0.00    +0.269 C 
ATOM     22  O   UNL     1       6.435   2.214   8.624  0.00  0.00    -0.268 OA
ATOM     23  H   UNL     1       4.613   4.529   7.698  0.00  0.00    +0.149 HD
BRANCH  21  24
ATOM     24  C   UNL     1       6.708   4.450   9.255  0.00  0.00    +0.209 A 
ATOM     25  C   UNL     1       7.892   4.308  10.109  0.00  0.00    +0.192 A 
ATOM     26  N   UNL     1       8.207   5.487  10.572  0.00  0.00    -0.033 NA
ATOM     27  O   UNL     1       7.274   6.421  10.059  0.00  0.00    -0.240 OA
ATOM     28  N   UNL     1       6.364   5.711   9.237  0.00  0.00    -0.042 NA
ATOM     29  N   UNL     1       8.563   3.123  10.378  0.00  0.00    -0.339 N 
ATOM     30  H   UNL     1       8.254   2.291   9.986  0.00  0.00    +0.144 HD
ATOM     31  H   UNL     1       9.341   3.127  10.958  0.00  0.00    +0.144 HD
ENDBRANCH  21  24
ENDBRANCH  19  20
ENDBRANCH  18  19
ENDBRANCH   1  18
TORSDOF 7
