REMARK  Name = ZINC36499554
REMARK  9 active torsions:
REMARK  status: ('A' for Active; 'I' for Inactive)
REMARK    1  A    between atoms: C_1  and  C_2
REMARK    2  A    between atoms: C_5  and  S_8
REMARK    3  A    between atoms: S_8  and  C_11
REMARK    4  A    between atoms: C_11  and  N_12
REMARK    5  A    between atoms: C_13  and  C_15
REMARK    6  A    between atoms: C_15  and  C_17
REMARK    7  A    between atoms: C_15  and  N_26
REMARK    8  A    between atoms: N_26  and  C_27
REMARK    9  A    between atoms: C_27  and  C_28
REMARK                            x       y       z     vdW  Elec       q    Type
REMARK                         _______ _______ _______ _____ _____    ______ ____
ROOT
ATOM      1  C   UNL     1       3.212  -4.924   3.533  0.00  0.00    +0.192 C 
ENDROOT
BRANCH   1   2
ATOM      2  C   UNL     1       2.045  -4.302   4.257  0.00  0.00    -0.015 A 
ATOM      3  C   UNL     1       2.270  -3.406   5.286  0.00  0.00    +0.010 A 
ATOM      4  C   UNL     1       1.203  -2.833   5.952  0.00  0.00    +0.050 A 
ATOM      5  C   UNL     1      -0.095  -3.155   5.590  0.00  0.00    +0.166 A 
ATOM      6  C   UNL     1      -0.321  -4.056   4.553  0.00  0.00    +0.167 A 
ATOM      7  C   UNL     1       0.753  -4.623   3.886  0.00  0.00    +0.055 A 
ATOM      8  O   UNL     1      -1.668  -4.205   4.391  0.00  0.00    -0.453 OA
ATOM      9  C   UNL     1      -2.260  -3.701   5.603  0.00  0.00    +0.466 C 
ATOM     10  O   UNL     1      -1.300  -2.738   6.077  0.00  0.00    -0.453 OA
ENDBRANCH   1   2
BRANCH   1  12
ATOM     11  N   UNL     1       2.592  -4.620   1.158  0.00  0.00    -0.294 N 
ATOM     12  C   UNL     1       2.750  -5.458   2.202  0.00  0.00    +0.239 C 
ATOM     13  O   UNL     1       2.520  -6.642   2.070  0.00  0.00    -0.273 OA
ATOM     14  H   UNL     1       2.776  -3.674   1.263  0.00  0.00    +0.150 HD
BRANCH  11  15
ATOM     15  C   UNL     1       2.143  -5.140  -0.137  0.00  0.00    +0.278 C 
BRANCH  15  16
ATOM     16  S   UNL     1       0.344  -4.953  -0.272  0.00  0.00    +0.013 S 
ATOM     17  O   UNL     1      -0.287  -5.416   0.914  0.00  0.00    -0.168 OA
ATOM     18  O   UNL     1      -0.099  -5.394  -1.548  0.00  0.00    -0.168 OA
BRANCH  16  23
ATOM     19  C   UNL     1      -0.602   1.006  -0.291  0.00  0.00    +0.044 C 
ATOM     20  C   UNL     1      -0.366  -0.482  -0.286  0.00  0.00    -0.050 A 
ATOM     21  C   UNL     1      -0.166  -1.154  -1.478  0.00  0.00    +0.005 A 
ATOM     22  C   UNL     1       0.051  -2.519  -1.473  0.00  0.00    +0.027 A 
ATOM     23  C   UNL     1       0.069  -3.213  -0.278  0.00  0.00    +0.090 A 
ATOM     24  C   UNL     1      -0.131  -2.541   0.914  0.00  0.00    +0.027 A 
ATOM     25  C   UNL     1      -0.344  -1.175   0.910  0.00  0.00    +0.005 A 
ENDBRANCH  16  23
ENDBRANCH  15  16
ENDBRANCH  11  15
ENDBRANCH   1  12
BRANCH   1  26
ATOM     26  N   UNL     1       3.756  -6.021   4.337  0.00  0.00    -0.281 N 
ATOM     27  C   UNL     1       2.946  -7.010   4.764  0.00  0.00    +0.329 C 
ATOM     28  O   UNL     1       1.789  -7.044   4.404  0.00  0.00    -0.279 OA
BRANCH  26  29
ATOM     29  C   UNL     1       5.181  -6.042   4.677  0.00  0.00    +0.182 C 
BRANCH  29  30
ATOM     30  C   UNL     1       5.398  -5.316   5.980  0.00  0.00    +0.122 A 
ATOM     31  C   UNL     1       5.372  -5.872   7.204  0.00  0.00    +0.046 A 
ATOM     32  C   UNL     1       5.623  -4.833   8.131  0.00  0.00    +0.041 A 
ATOM     33  C   UNL     1       5.787  -3.705   7.417  0.00  0.00    +0.195 A 
ATOM     34  O   UNL     1       5.655  -4.005   6.114  0.00  0.00    -0.466 OA
ENDBRANCH  29  30
ENDBRANCH  26  29
ENDBRANCH   1  26
TORSDOF 8
