REMARK  Name = ZINC65491277
REMARK  10 active torsions:
REMARK  status: ('A' for Active; 'I' for Inactive)
REMARK    1  A    between atoms: C_1  and  N_2
REMARK    2  A    between atoms: N_2  and  C_3
REMARK    3  A    between atoms: N_2  and  C_4
REMARK    4  A    between atoms: C_4  and  C_5
REMARK    5  A    between atoms: C_5  and  C_7
REMARK    6  A    between atoms: C_5  and  C_24
REMARK    7  A    between atoms: C_7  and  N_8
REMARK    8  A    between atoms: N_11  and  C_12
REMARK    9  A    between atoms: C_24  and  C_26
REMARK   10  A    between atoms: C_24  and  O_32
REMARK                            x       y       z     vdW  Elec       q    Type
REMARK                         _______ _______ _______ _____ _____    ______ ____
ROOT
ATOM      1  N   UNL     1      -3.048  -1.985  -1.967  0.00  0.00    -0.299 N 
ATOM      2  C   UNL     1      -4.199  -2.306  -2.589  0.00  0.00    +0.304 C 
ATOM      3  O   UNL     1      -4.939  -3.142  -2.106  0.00  0.00    -0.253 OA
ATOM      4  N   UNL     1      -4.532  -1.701  -3.746  0.00  0.00    -0.268 N 
ATOM      5  H   UNL     1      -2.458  -1.318  -2.352  0.00  0.00    +0.150 HD
ATOM      6  H   UNL     1      -3.919  -1.071  -4.158  0.00  0.00    +0.156 HD
ENDROOT
BRANCH   4   7
ATOM      7  C   UNL     1      -5.762  -1.981  -4.356  0.00  0.00    +0.057 A 
ATOM      8  C   UNL     1      -6.358  -3.223  -4.177  0.00  0.00    +0.072 A 
ATOM      9  C   UNL     1      -7.573  -3.497  -4.779  0.00  0.00    +0.144 A 
ATOM     10  C   UNL     1      -8.195  -2.526  -5.563  0.00  0.00    +0.077 A 
ATOM     11  C   UNL     1      -7.600  -1.288  -5.740  0.00  0.00    +0.048 A 
ATOM     12  C   UNL     1      -6.388  -1.014  -5.133  0.00  0.00    +0.064 A 
ATOM     13 CL   UNL     1      -5.643   0.540  -5.347  0.00  0.00    -0.082 Cl
ATOM     14  N   UNL     1      -9.428  -2.821  -6.168  0.00  0.00    -0.280 N 
ATOM     15  C   UNL     1     -10.130  -3.891  -5.735  0.00  0.00    +0.255 C 
ATOM     16  O   UNL     1     -11.182  -4.182  -6.263  0.00  0.00    -0.272 OA
ATOM     17  C   UNL     1      -9.600  -4.721  -4.594  0.00  0.00    +0.325 C 
ATOM     18  O   UNL     1      -8.170  -4.707  -4.613  0.00  0.00    -0.481 OA
ATOM     19  H   UNL     1      -9.770  -2.264  -6.885  0.00  0.00    +0.155 HD
ENDBRANCH   4   7
BRANCH   1  20
ATOM     20  C   UNL     1      -2.687  -2.643  -0.708  0.00  0.00    +0.110 C 
BRANCH  20  21
ATOM     21  C   UNL     1      -1.444  -1.971  -0.120  0.00  0.00    +0.023 C 
BRANCH  21  22
ATOM     22  C   UNL     1      -1.807  -0.570   0.374  0.00  0.00    -0.072 C 
BRANCH  22  24
ATOM     23  C   UNL     1      -2.576   1.603  -0.293  0.00  0.00    -0.097 C 
ATOM     24  N   UNL     1      -2.175   0.273  -0.772  0.00  0.00    +0.376 N 
ATOM     25  C   UNL     1      -1.022   0.405  -1.673  0.00  0.00    -0.097 C 
ATOM     26  H   UNL     1      -2.944  -0.151  -1.269  0.00  0.00    -0.083 HD
ENDBRANCH  22  24
ENDBRANCH  21  22
BRANCH  21  27
ATOM     27  C   UNL     1      -0.920  -2.805   1.051  0.00  0.00    +0.147 C 
BRANCH  27  28
ATOM     28  C   UNL     1       0.364  -2.204   1.561  0.00  0.00    -0.019 A 
ATOM     29  C   UNL     1       0.330  -1.231   2.542  0.00  0.00    +0.006 A 
ATOM     30  C   UNL     1       1.509  -0.679   3.009  0.00  0.00    +0.000 A 
ATOM     31  C   UNL     1       2.721  -1.101   2.496  0.00  0.00    +0.000 A 
ATOM     32  C   UNL     1       2.755  -2.075   1.515  0.00  0.00    +0.000 A 
ATOM     33  C   UNL     1       1.576  -2.630   1.051  0.00  0.00    +0.006 A 
ENDBRANCH  27  28
BRANCH  27  34
ATOM     34  O   UNL     1      -1.891  -2.815   2.100  0.00  0.00    -0.387 OA
ATOM     35  H   UNL     1      -2.104  -1.938   2.447  0.00  0.00    +0.210 HD
ENDBRANCH  27  34
ENDBRANCH  21  27
ENDBRANCH  20  21
ENDBRANCH   1  20
TORSDOF 8
