REMARK  Name = ZINC25299958
REMARK  8 active torsions:
REMARK  status: ('A' for Active; 'I' for Inactive)
REMARK    1  A    between atoms: C_1  and  C_2
REMARK    2  A    between atoms: C_2  and  C_4
REMARK    3  A    between atoms: C_2  and  N_20
REMARK    4  A    between atoms: N_6  and  C_7
REMARK    5  A    between atoms: C_10  and  N_13
REMARK    6  A    between atoms: C_14  and  C_16
REMARK    7  A    between atoms: C_17  and  C_18
REMARK    8  A    between atoms: C_17  and  C_19
REMARK                            x       y       z     vdW  Elec       q    Type
REMARK                         _______ _______ _______ _____ _____    ______ ____
ROOT
ATOM      1  C   UNL     1      -3.643   2.615   0.257  0.00  0.00    +0.034 A 
ATOM      2  C   UNL     1      -3.528   1.232   0.309  0.00  0.00    +0.025 A 
ATOM      3  C   UNL     1      -2.281   0.641   0.260  0.00  0.00    +0.025 A 
ATOM      4  C   UNL     1      -1.143   1.430   0.158  0.00  0.00    +0.034 A 
ATOM      5  C   UNL     1      -1.258   2.813   0.112  0.00  0.00    +0.025 A 
ATOM      6  C   UNL     1      -2.505   3.404   0.156  0.00  0.00    +0.025 A 
ENDROOT
BRANCH   1   9
ATOM      7  C   UNL     1      -5.154   4.330  -0.409  0.00  0.00    +0.242 C 
ATOM      8  O   UNL     1      -4.257   4.864  -1.028  0.00  0.00    -0.273 OA
ATOM      9  N   UNL     1      -4.909   3.215   0.306  0.00  0.00    -0.284 N 
ATOM     10  H   UNL     1      -5.702   2.775   0.928  0.00  0.00    +0.155 HD
BRANCH   7  12
ATOM     11  C   UNL     1      -7.517   3.887  -1.015  0.00  0.00    +0.042 C 
ATOM     12  C   UNL     1      -6.542   4.916  -0.440  0.00  0.00    +0.191 C 
BRANCH  12  13
ATOM     13  N   UNL     1      -6.547   6.116  -1.279  0.00  0.00    -0.240 N 
ATOM     14  C   UNL     1      -6.688   6.164  -2.615  0.00  0.00    +0.219 A 
ATOM     15  N   UNL     1      -6.641   7.419  -2.984  0.00  0.00    -0.223 NA
ATOM     16  C   UNL     1      -6.464   8.197  -1.917  0.00  0.00    +0.245 A 
ATOM     17  N   UNL     1      -6.401   7.445  -0.849  0.00  0.00    -0.158 NA
ENDBRANCH  12  13
ENDBRANCH   7  12
ENDBRANCH   1   9
BRANCH   4  18
ATOM     18  N   UNL     1       0.122   0.831   0.109  0.00  0.00    -0.282 N 
ATOM     19  C   UNL     1       1.107   1.396  -0.617  0.00  0.00    +0.241 C 
ATOM     20  O   UNL     1       0.875   2.376  -1.299  0.00  0.00    -0.270 OA
ATOM     21  H   UNL     1       0.311  -0.101   0.662  0.00  0.00    +0.155 HD
BRANCH  19  22
ATOM     22  C   UNL     1       2.463   0.827  -0.584  0.00  0.00    +0.066 C 
ATOM     23  C   UNL     1       3.435   1.385  -1.300  0.00  0.00    -0.071 C 
ATOM     24  C   UNL     1       3.148   2.599  -2.146  0.00  0.00    +0.039 C 
ATOM     25  C   UNL     1       4.825   0.802  -1.266  0.00  0.00    +0.039 C 
ENDBRANCH  19  22
ENDBRANCH   4  18
TORSDOF 5
