REMARK  Name = ZINC20464660
REMARK  12 active torsions:
REMARK  status: ('A' for Active; 'I' for Inactive)
REMARK    1  A    between atoms: C_1  and  C_2
REMARK    2  A    between atoms: C_2  and  O_34
REMARK    3  A    between atoms: C_5  and  C_23
REMARK    4  A    between atoms: C_9  and  C_21
REMARK    5  A    between atoms: C_9  and  C_22
REMARK    6  A    between atoms: C_11  and  N_13
REMARK    7  A    between atoms: N_13  and  C_14
REMARK    8  A    between atoms: N_17  and  C_20
REMARK    9  A    between atoms: C_23  and  C_24
REMARK   10  A    between atoms: C_24  and  C_25
REMARK   11  A    between atoms: N_27  and  C_28
REMARK   12  A    between atoms: C_28  and  C_29
REMARK                            x       y       z     vdW  Elec       q    Type
REMARK                         _______ _______ _______ _____ _____    ______ ____
ROOT
ATOM      1  C   UNL     1      -0.306   2.131   1.066  0.00  0.00    +0.041 C 
ATOM      2  C   UNL     1      -0.043   0.678   0.663  0.00  0.00    +0.064 C 
ATOM      3  C   UNL     1      -1.378  -0.047   0.457  0.00  0.00    +0.035 C 
ATOM      4  C   UNL     1      -1.084  -1.470  -0.018  0.00  0.00    +0.008 C 
ATOM      5  C   UNL     1      -0.243  -2.222   0.989  0.00  0.00    -0.038 C 
ATOM      6  C   UNL     1       1.044  -1.474   1.379  0.00  0.00    +0.002 C 
ATOM      7  C   UNL     1       0.729  -0.029   1.774  0.00  0.00    +0.039 C 
ATOM      8  C   UNL     1       1.452  -2.213   2.688  0.00  0.00    -0.033 C 
ATOM      9  C   UNL     1       0.108  -2.462   3.407  0.00  0.00    -0.009 C 
ATOM     10  C   UNL     1      -0.980  -2.461   2.313  0.00  0.00    -0.064 C 
ATOM     11  C   UNL     1       2.140  -3.541   2.364  0.00  0.00    +0.011 C 
ATOM     12  C   UNL     1       2.363  -1.329   3.543  0.00  0.00    +0.011 C 
ENDROOT
BRANCH  10  13
ATOM     13  N   UNL     1      -1.669  -3.758   2.283  0.00  0.00    +0.383 N 
ATOM     14  H   UNL     1      -1.009  -4.484   2.048  0.00  0.00    -0.085 HD
ATOM     15  H   UNL     1      -2.068  -3.947   3.190  0.00  0.00    -0.085 HD
BRANCH  13  16
ATOM     16  C   UNL     1      -2.737  -3.721   1.276  0.00  0.00    -0.069 C 
ATOM     17  C   UNL     1      -3.756  -2.641   1.649  0.00  0.00    -0.000 C 
ATOM     18  C   UNL     1      -4.898  -2.650   0.630  0.00  0.00    +0.082 C 
ATOM     19  N   UNL     1      -5.539  -3.971   0.621  0.00  0.00    -0.305 NA
ATOM     20  C   UNL     1      -4.591  -5.018   0.219  0.00  0.00    +0.082 C 
ATOM     21  C   UNL     1      -3.440  -5.081   1.226  0.00  0.00    -0.000 C 
ATOM     22  C   UNL     1      -6.726  -3.974  -0.244  0.00  0.00    +0.104 C 
ENDBRANCH  13  16
ENDBRANCH  10  13
BRANCH   2  23
ATOM     23  O   UNL     1       0.717   0.645  -0.546  0.00  0.00    -0.389 OA
ATOM     24  H   UNL     1       0.281   1.073  -1.296  0.00  0.00    +0.210 HD
ENDBRANCH   2  23
BRANCH   5  25
ATOM     25  C   UNL     1       0.155  -3.574   0.393  0.00  0.00    +0.015 C 
BRANCH  25  26
ATOM     26  C   UNL     1       1.087  -3.351  -0.800  0.00  0.00    +0.096 C 
BRANCH  26  27
ATOM     27  C   UNL     1       1.439  -4.679  -1.418  0.00  0.00    +0.213 C 
ATOM     28  O   UNL     1       0.989  -5.704  -0.951  0.00  0.00    -0.276 OA
ATOM     29  N   UNL     1       2.254  -4.729  -2.490  0.00  0.00    -0.308 N 
ATOM     30  H   UNL     1       2.614  -3.909  -2.864  0.00  0.00    +0.149 HD
BRANCH  29  31
ATOM     31  C   UNL     1       2.596  -6.020  -3.091  0.00  0.00    +0.178 C 
BRANCH  31  32
ATOM     32  C   UNL     1       3.514  -5.801  -4.266  0.00  0.00    +0.122 A 
ATOM     33  C   UNL     1       4.858  -5.769  -4.219  0.00  0.00    +0.046 A 
ATOM     34  C   UNL     1       5.309  -5.539  -5.539  0.00  0.00    +0.041 A 
ATOM     35  C   UNL     1       4.213  -5.443  -6.314  0.00  0.00    +0.195 A 
ATOM     36  O   UNL     1       3.129  -5.608  -5.538  0.00  0.00    -0.466 OA
ENDBRANCH  31  32
ENDBRANCH  29  31
ENDBRANCH  26  27
ENDBRANCH  25  26
ENDBRANCH   5  25
TORSDOF 8
