REMARK  Name = ZINC36567667
REMARK  19 active torsions:
REMARK  status: ('A' for Active; 'I' for Inactive)
REMARK    1  A    between atoms: C_1  and  C_2
REMARK    2  A    between atoms: C_2  and  C_3
REMARK    3  A    between atoms: C_3  and  N_4
REMARK    4  A    between atoms: N_4  and  C_5
REMARK    5  A    between atoms: C_5  and  C_7
REMARK    6  A    between atoms: C_5  and  C_16
REMARK    7  A    between atoms: C_8  and  O_15
REMARK    8  A    between atoms: C_10  and  O_14
REMARK    9  A    between atoms: C_12  and  O_13
REMARK   10  A    between atoms: N_18  and  C_19
REMARK   11  A    between atoms: C_19  and  C_20
REMARK   12  A    between atoms: C_19  and  C_21
REMARK   13  A    between atoms: C_19  and  C_22
REMARK   14  A    between atoms: C_22  and  C_23
REMARK   15  A    between atoms: C_23  and  C_24
REMARK   16  A    between atoms: C_23  and  C_25
REMARK   17  A    between atoms: C_23  and  C_26
REMARK   18  A    between atoms: C_27  and  C_29
REMARK   19  A    between atoms: C_34  and  O_35
REMARK                            x       y       z     vdW  Elec       q    Type
REMARK                         _______ _______ _______ _____ _____    ______ ____
ROOT
ATOM      1  C   UNL     1      -2.312  -2.024   2.475  0.00  0.00    +0.199 C 
ENDROOT
BRANCH   1   2
ATOM      2  C   UNL     1      -1.577  -2.320   3.757  0.00  0.00    +0.065 A 
ATOM      3  C   UNL     1      -0.905  -1.305   4.421  0.00  0.00    +0.129 A 
ATOM      4  C   UNL     1      -0.229  -1.577   5.601  0.00  0.00    +0.091 A 
ATOM      5  C   UNL     1      -0.225  -2.865   6.117  0.00  0.00    +0.124 A 
ATOM      6  C   UNL     1      -0.898  -3.880   5.453  0.00  0.00    +0.091 A 
ATOM      7  C   UNL     1      -1.578  -3.606   4.276  0.00  0.00    +0.129 A 
BRANCH   7   8
ATOM      8  O   UNL     1      -2.241  -4.599   3.628  0.00  0.00    -0.506 OA
ATOM      9  H   UNL     1      -1.703  -5.074   2.979  0.00  0.00    +0.292 HD
ENDBRANCH   7   8
BRANCH   5  10
ATOM     10  O   UNL     1       0.439  -3.132   7.272  0.00  0.00    -0.507 OA
ATOM     11  H   UNL     1      -0.100  -3.026   8.068  0.00  0.00    +0.292 HD
ENDBRANCH   5  10
BRANCH   3  12
ATOM     12  O   UNL     1      -0.908  -0.044   3.916  0.00  0.00    -0.506 OA
ATOM     13  H   UNL     1      -1.594   0.527   4.288  0.00  0.00    +0.292 HD
ENDBRANCH   3  12
ENDBRANCH   1   2
BRANCH   1  14
ATOM     14  C   UNL     1      -3.305  -0.915   2.710  0.00  0.00    +0.239 C 
ATOM     15  O   UNL     1      -3.220   0.118   2.080  0.00  0.00    -0.273 OA
ATOM     16  N   UNL     1      -4.287  -1.071   3.620  0.00  0.00    -0.308 N 
ATOM     17  H   UNL     1      -4.354  -1.897   4.123  0.00  0.00    +0.149 HD
BRANCH  16  18
ATOM     18  C   UNL     1      -5.252   0.008   3.848  0.00  0.00    +0.030 C 
ATOM     19  C   UNL     1      -4.502   1.314   4.120  0.00  0.00    +0.031 C 
ATOM     20  C   UNL     1      -6.133   0.174   2.609  0.00  0.00    +0.031 C 
BRANCH  18  21
ATOM     21  C   UNL     1      -6.127  -0.338   5.054  0.00  0.00    +0.031 C 
BRANCH  21  22
ATOM     22  C   UNL     1      -6.536  -1.811   4.982  0.00  0.00    -0.036 C 
ATOM     23  C   UNL     1      -5.377  -2.686   5.463  0.00  0.00    +0.010 C 
ATOM     24  C   UNL     1      -7.757  -2.045   5.874  0.00  0.00    +0.010 C 
ATOM     25  C   UNL     1      -6.883  -2.173   3.536  0.00  0.00    +0.010 C 
ENDBRANCH  21  22
ENDBRANCH  18  21
ENDBRANCH  16  18
ENDBRANCH   1  14
BRANCH   1  26
ATOM     26  N   UNL     1      -1.353  -1.612   1.447  0.00  0.00    -0.282 N 
ATOM     27  C   UNL     1      -1.765  -0.868   0.401  0.00  0.00    +0.251 C 
ATOM     28  O   UNL     1      -0.950  -0.292  -0.293  0.00  0.00    -0.270 OA
BRANCH  27  29
ATOM     29  C   UNL     1      -3.205  -0.753   0.099  0.00  0.00    +0.078 A 
ATOM     30  C   UNL     1      -4.133  -1.532   0.794  0.00  0.00    +0.017 A 
ATOM     31  C   UNL     1      -5.476  -1.420   0.508  0.00  0.00    +0.001 A 
ATOM     32  C   UNL     1      -5.911  -0.537  -0.467  0.00  0.00    +0.004 A 
ATOM     33  C   UNL     1      -5.005   0.239  -1.161  0.00  0.00    +0.046 A 
ATOM     34  C   UNL     1      -3.649   0.143  -0.882  0.00  0.00    +0.129 A 
BRANCH  34  35
ATOM     35  O   UNL     1      -2.758   0.908  -1.560  0.00  0.00    -0.506 OA
ATOM     36  H   UNL     1      -2.422   0.498  -2.369  0.00  0.00    +0.292 HD
ENDBRANCH  34  35
ENDBRANCH  27  29
BRANCH  26  37
ATOM     37  C   UNL     1       0.053  -2.008   1.555  0.00  0.00    +0.109 C 
BRANCH  37  39
ATOM     38  C   UNL     1       1.933  -3.179   0.399  0.00  0.00    +0.005 C 
ATOM     39  C   UNL     1       0.437  -2.862   0.345  0.00  0.00    +0.016 C 
ENDBRANCH  37  39
ENDBRANCH  26  37
ENDBRANCH   1  26
TORSDOF 13
