REMARK  Name = ZINC67017603
REMARK  8 active torsions:
REMARK  status: ('A' for Active; 'I' for Inactive)
REMARK    1  A    between atoms: C_1  and  C_2
REMARK    2  A    between atoms: C_2  and  C_4
REMARK    3  A    between atoms: C_2  and  N_15
REMARK    4  A    between atoms: C_8  and  S_10
REMARK    5  A    between atoms: S_10  and  N_13
REMARK    6  A    between atoms: N_13  and  C_14
REMARK    7  A    between atoms: N_18  and  C_19
REMARK    8  A    between atoms: C_22  and  C_25
REMARK                            x       y       z     vdW  Elec       q    Type
REMARK                         _______ _______ _______ _____ _____    ______ ____
ROOT
ATOM      1  C   UNL     1      -0.007   1.523   0.006  0.00  0.00    +0.033 C 
ATOM      2  C   UNL     1       0.002  -0.007   0.001  0.00  0.00    +0.102 C 
ENDROOT
BRANCH   2   3
ATOM      3  C   UNL     1       0.701  -0.501  -1.239  0.00  0.00    -0.026 A 
ATOM      4  C   UNL     1       2.082  -0.532  -1.288  0.00  0.00    +0.005 A 
ATOM      5  C   UNL     1       2.723  -0.986  -2.426  0.00  0.00    +0.002 A 
ATOM      6  C   UNL     1       1.983  -1.408  -3.515  0.00  0.00    +0.028 A 
ATOM      7  C   UNL     1       0.602  -1.378  -3.465  0.00  0.00    +0.106 A 
ATOM      8  C   UNL     1      -0.039  -0.929  -2.325  0.00  0.00    +0.034 A 
BRANCH   7   9
ATOM      9  S   UNL     1      -0.342  -1.916  -4.853  0.00  0.00    +0.058 S 
ATOM     10  O   UNL     1      -1.607  -1.276  -4.756  0.00  0.00    -0.153 OA
ATOM     11  O   UNL     1       0.497  -1.779  -5.992  0.00  0.00    -0.153 OA
BRANCH   9  12
ATOM     12  N   UNL     1      -0.615  -3.538  -4.659  0.00  0.00    -0.193 NA
ATOM     13  C   UNL     1      -1.434  -4.015  -3.542  0.00  0.00    +0.127 C 
ATOM     14  H   UNL     1      -0.233  -4.172  -5.286  0.00  0.00    +0.148 HD
ENDBRANCH   9  12
ENDBRANCH   7   9
ENDBRANCH   2   3
BRANCH   2  15
ATOM     15  N   UNL     1       0.710  -0.495   1.188  0.00  0.00    -0.293 N 
ATOM     16  C   UNL     1       0.052  -0.631   2.356  0.00  0.00    +0.304 C 
ATOM     17  O   UNL     1      -1.129  -0.349   2.425  0.00  0.00    -0.252 OA
ATOM     18  N   UNL     1       0.703  -1.080   3.447  0.00  0.00    -0.269 N 
ATOM     19  H   UNL     1       1.652  -0.720   1.132  0.00  0.00    +0.151 HD
ATOM     20  H   UNL     1       1.627  -1.368   3.377  0.00  0.00    +0.156 HD
BRANCH  18  21
ATOM     21  C   UNL     1       0.049  -1.130   4.679  0.00  0.00    +0.035 A 
ATOM     22  C   UNL     1      -1.305  -1.448   4.733  0.00  0.00    +0.024 A 
ATOM     23  C   UNL     1      -1.954  -1.499   5.946  0.00  0.00    +0.020 A 
ATOM     24  C   UNL     1      -1.251  -1.231   7.124  0.00  0.00    +0.052 A 
ATOM     25  C   UNL     1       0.108  -0.912   7.066  0.00  0.00    +0.020 A 
ATOM     26  C   UNL     1       0.752  -0.868   5.850  0.00  0.00    +0.024 A 
BRANCH  24  27
ATOM     27  C   UNL     1      -1.923  -1.282   8.388  0.00  0.00    +0.099 C 
ATOM     28  N   UNL     1      -2.456  -1.323   9.390  0.00  0.00    -0.191 NA
ENDBRANCH  24  27
ENDBRANCH  18  21
ENDBRANCH   2  15
TORSDOF 6
