REMARK  Name = ZINC22429337
REMARK  5 active torsions:
REMARK  status: ('A' for Active; 'I' for Inactive)
REMARK    1  A    between atoms: C_1  and  C_2
REMARK    2  A    between atoms: C_2  and  C_26
REMARK    3  A    between atoms: N_5  and  C_9
REMARK    4  A    between atoms: C_9  and  C_10
REMARK    5  A    between atoms: N_15  and  C_16
REMARK                            x       y       z     vdW  Elec       q    Type
REMARK                         _______ _______ _______ _____ _____    ______ ____
ROOT
ATOM      1  C   UNL     1      -0.411   7.325   3.771  0.00  0.00    +0.047 C 
ATOM      2  C   UNL     1       0.717   6.721   2.933  0.00  0.00    +0.135 C 
ATOM      3  C   UNL     1       2.010   6.689   3.722  0.00  0.00    +0.251 C 
ATOM      4  O   UNL     1       2.222   6.095   4.758  0.00  0.00    -0.272 OA
ATOM      5  N   UNL     1       2.876   7.460   3.034  0.00  0.00    -0.215 N 
ATOM      6  C   UNL     1       2.315   7.968   1.931  0.00  0.00    +0.310 C 
ATOM      7  O   UNL     1       2.898   8.694   1.150  0.00  0.00    -0.252 OA
ATOM      8  N   UNL     1       1.034   7.586   1.783  0.00  0.00    -0.281 N 
ATOM      9  H   UNL     1       0.266   7.794   1.023  0.00  0.00    +0.152 HD
ENDROOT
BRANCH   2  10
ATOM     10  C   UNL     1       0.346   5.336   2.467  0.00  0.00    -0.012 A 
ATOM     11  C   UNL     1       0.716   4.235   3.217  0.00  0.00    +0.010 A 
ATOM     12  C   UNL     1       0.380   2.961   2.796  0.00  0.00    +0.050 A 
ATOM     13  C   UNL     1      -0.330   2.792   1.619  0.00  0.00    +0.162 A 
ATOM     14  C   UNL     1      -0.702   3.897   0.867  0.00  0.00    +0.162 A 
ATOM     15  C   UNL     1      -0.364   5.171   1.292  0.00  0.00    +0.055 A 
ATOM     16  O   UNL     1      -1.402   3.720  -0.291  0.00  0.00    -0.488 OA
ATOM     17  C   UNL     1      -0.690   3.098  -1.362  0.00  0.00    +0.232 C 
ATOM     18  C   UNL     1      -0.736   1.583  -1.234  0.00  0.00    +0.082 C 
ATOM     19  C   UNL     1      -0.013   1.086   0.008  0.00  0.00    +0.232 C 
ATOM     20  O   UNL     1      -0.670   1.541   1.193  0.00  0.00    -0.488 OA
ENDBRANCH   2  10
BRANCH   5  21
ATOM     21  C   UNL     1       4.260   7.710   3.445  0.00  0.00    +0.214 C 
BRANCH  21  22
ATOM     22  C   UNL     1       5.159   6.659   2.846  0.00  0.00    +0.238 C 
ATOM     23  O   UNL     1       4.690   5.787   2.147  0.00  0.00    -0.274 OA
ATOM     24  N   UNL     1       6.484   6.688   3.089  0.00  0.00    -0.239 N 
ATOM     25  C   UNL     1       7.288   5.748   2.555  0.00  0.00    +0.306 C 
ATOM     26  O   UNL     1       6.819   4.874   1.853  0.00  0.00    -0.252 OA
ATOM     27  N   UNL     1       8.614   5.777   2.797  0.00  0.00    -0.294 N 
ATOM     28  H   UNL     1       6.910   7.479   3.724  0.00  0.00    +0.159 HD
ATOM     29  H   UNL     1       9.039   6.569   3.432  0.00  0.00    +0.151 HD
BRANCH  27  30
ATOM     30  C   UNL     1       9.488   4.756   2.216  0.00  0.00    +0.037 C 
ATOM     31  C   UNL     1       9.390   4.809   0.690  0.00  0.00    +0.029 C 
ATOM     32  C   UNL     1      10.303   3.742   0.083  0.00  0.00    -0.008 C 
ATOM     33  C   UNL     1      11.749   4.003   0.511  0.00  0.00    +0.007 C 
ATOM     34  C   UNL     1      11.846   3.950   2.037  0.00  0.00    -0.008 C 
ATOM     35  C   UNL     1      10.933   5.017   2.644  0.00  0.00    +0.029 C 
ATOM     36  C   UNL     1      11.411   2.567   2.528  0.00  0.00    +0.007 C 
ATOM     37  C   UNL     1       9.966   2.306   2.100  0.00  0.00    -0.008 C 
ATOM     38  C   UNL     1       9.868   2.360   0.574  0.00  0.00    +0.007 C 
ATOM     39  C   UNL     1       9.053   3.373   2.707  0.00  0.00    +0.029 C 
ENDBRANCH  27  30
ENDBRANCH  21  22
ENDBRANCH   5  21
TORSDOF 4
