REMARK  Name = ZINC65302792
REMARK  8 active torsions:
REMARK  status: ('A' for Active; 'I' for Inactive)
REMARK    1  A    between atoms: C_1  and  C_2
REMARK    2  A    between atoms: C_3  and  N_9
REMARK    3  A    between atoms: N_12  and  C_13
REMARK    4  A    between atoms: C_13  and  C_14
REMARK    5  A    between atoms: C_13  and  C_15
REMARK    6  A    between atoms: C_16  and  C_22
REMARK    7  A    between atoms: N_18  and  C_21
REMARK    8  A    between atoms: C_19  and  C_20
REMARK                            x       y       z     vdW  Elec       q    Type
REMARK                         _______ _______ _______ _____ _____    ______ ____
ROOT
ATOM      1  N   UNL     1      -0.404  -0.144  -2.419  0.00  0.00    -0.269 N 
ATOM      2  C   UNL     1      -0.120  -0.750  -3.588  0.00  0.00    +0.304 C 
ATOM      3  O   UNL     1       0.063  -1.952  -3.622  0.00  0.00    -0.252 OA
ATOM      4  N   UNL     1      -0.040  -0.025  -4.721  0.00  0.00    -0.292 N 
ATOM      5  H   UNL     1      -0.632   0.798  -2.404  0.00  0.00    +0.156 HD
ATOM      6  H   UNL     1      -0.186   0.934  -4.695  0.00  0.00    +0.151 HD
ENDROOT
BRANCH   1   9
ATOM      7  C   UNL     1      -1.964   0.785  -0.228  0.00  0.00    +0.047 C 
ATOM      8  C   UNL     1      -1.115  -0.456  -0.132  0.00  0.00    -0.011 A 
ATOM      9  C   UNL     1      -0.369  -0.875  -1.226  0.00  0.00    +0.039 A 
ATOM     10  C   UNL     1       0.412  -2.019  -1.133  0.00  0.00    +0.024 A 
ATOM     11  C   UNL     1       0.445  -2.739   0.046  0.00  0.00    +0.003 A 
ATOM     12  C   UNL     1      -0.299  -2.321   1.133  0.00  0.00    +0.020 A 
ATOM     13  C   UNL     1      -1.075  -1.177   1.047  0.00  0.00    +0.046 A 
ATOM     14 CL   UNL     1      -2.001  -0.651   2.418  0.00  0.00    -0.083 Cl
ENDBRANCH   1   9
BRANCH   4  15
ATOM     15  C   UNL     1       0.269  -0.684  -5.993  0.00  0.00    +0.105 C 
ATOM     16  C   UNL     1       1.768  -0.977  -6.065  0.00  0.00    +0.033 C 
BRANCH  15  17
ATOM     17  C   UNL     1      -0.122   0.219  -7.135  0.00  0.00    +0.016 A 
ATOM     18  C   UNL     1       0.207   1.573  -7.263  0.00  0.00    +0.065 A 
ATOM     19  N   UNL     1      -0.308   2.014  -8.382  0.00  0.00    -0.176 NA
ATOM     20  N   UNL     1      -0.982   0.954  -9.002  0.00  0.00    -0.271 N 
ATOM     21  C   UNL     1      -0.849  -0.138  -8.219  0.00  0.00    +0.041 A 
ATOM     22  C   UNL     1      -1.411  -1.507  -8.500  0.00  0.00    +0.065 C 
ATOM     23  C   UNL     1      -1.700   1.017 -10.277  0.00  0.00    +0.172 C 
ATOM     24  C   UNL     1       1.015   2.382  -6.282  0.00  0.00    +0.068 C 
ENDBRANCH  15  17
ENDBRANCH   4  15
TORSDOF 3
