REMARK  Name = ZINC09008594
REMARK  15 active torsions:
REMARK  status: ('A' for Active; 'I' for Inactive)
REMARK    1  A    between atoms: C_1  and  C_2
REMARK    2  A    between atoms: C_2  and  C_3
REMARK    3  A    between atoms: C_2  and  C_4
REMARK    4  A    between atoms: C_2  and  C_5
REMARK    5  A    between atoms: C_13  and  C_25
REMARK    6  A    between atoms: C_15  and  C_21
REMARK    7  A    between atoms: C_15  and  C_23
REMARK    8  A    between atoms: C_16  and  N_20
REMARK    9  A    between atoms: C_17  and  C_18
REMARK   10  A    between atoms: C_27  and  O_35
REMARK   11  A    between atoms: C_28  and  O_33
REMARK   12  A    between atoms: C_30  and  O_31
REMARK   13  A    between atoms: O_31  and  C_32
REMARK   14  A    between atoms: O_33  and  C_34
REMARK   15  A    between atoms: O_35  and  C_36
REMARK                            x       y       z     vdW  Elec       q    Type
REMARK                         _______ _______ _______ _____ _____    ______ ____
ROOT
ATOM      1  C   UNL     1       0.723  -0.972  -1.591  0.00  0.00    -0.001 C 
ATOM      2  C   UNL     1       0.839  -2.501  -1.505  0.00  0.00    +0.031 C 
ATOM      3  C   UNL     1       1.456  -2.837  -0.171  0.00  0.00    -0.021 C 
ATOM      4  C   UNL     1       2.339  -2.034   0.389  0.00  0.00    -0.029 C 
ATOM      5  C   UNL     1       2.844  -0.774  -0.249  0.00  0.00    +0.031 C 
ATOM      6  C   UNL     1       2.128  -0.377  -1.519  0.00  0.00    +0.013 C 
ATOM      7  C   UNL     1       2.817   0.339   0.800  0.00  0.00    +0.070 C 
ATOM      8  C   UNL     1       3.778  -0.025   1.932  0.00  0.00    +0.188 C 
ATOM      9  C   UNL     1       3.539  -1.415   2.438  0.00  0.00    +0.054 C 
ATOM     10  C   UNL     1       2.882  -2.369   1.731  0.00  0.00    +0.074 C 
ENDROOT
BRANCH   7  11
ATOM     11  C   UNL     1       3.246   1.639   0.169  0.00  0.00    +0.004 A 
ATOM     12  C   UNL     1       2.586   2.812   0.487  0.00  0.00    +0.057 A 
ATOM     13  C   UNL     1       2.979   4.007  -0.092  0.00  0.00    +0.162 A 
ATOM     14  C   UNL     1       4.038   4.027  -0.995  0.00  0.00    +0.165 A 
ATOM     15  C   UNL     1       4.698   2.851  -1.312  0.00  0.00    +0.095 A 
ATOM     16  C   UNL     1       4.305   1.657  -0.726  0.00  0.00    +0.127 A 
BRANCH  16  17
ATOM     17  O   UNL     1       4.955   0.503  -1.034  0.00  0.00    -0.495 OA
ATOM     18  C   UNL     1       6.037   0.596  -1.963  0.00  0.00    +0.277 C 
ENDBRANCH  16  17
BRANCH  14  19
ATOM     19  O   UNL     1       4.425   5.200  -1.564  0.00  0.00    -0.491 OA
ATOM     20  C   UNL     1       5.519   5.146  -2.481  0.00  0.00    +0.277 C 
ENDBRANCH  14  19
BRANCH  13  21
ATOM     21  O   UNL     1       2.329   5.161   0.221  0.00  0.00    -0.491 OA
ATOM     22  C   UNL     1       1.251   5.065   1.155  0.00  0.00    +0.277 C 
ENDBRANCH  13  21
ENDBRANCH   7  11
BRANCH   1  24
ATOM     23  C   UNL     1       0.149   1.042  -0.229  0.00  0.00    +0.011 C 
ATOM     24  C   UNL     1      -0.118  -0.452  -0.424  0.00  0.00    -0.035 C 
ATOM     25  C   UNL     1       0.258  -1.208   0.852  0.00  0.00    +0.011 C 
ATOM     26  C   UNL     1      -1.602  -0.670  -0.728  0.00  0.00    +0.011 C 
ENDBRANCH   1  24
BRANCH   9  27
ATOM     27  N   UNL     1       4.008  -1.740   3.680  0.00  0.00    -0.358 N 
ATOM     28  H   UNL     1       4.481  -1.078   4.208  0.00  0.00    +0.142 HD
ATOM     29  H   UNL     1       3.867  -2.632   4.034  0.00  0.00    +0.142 HD
ENDBRANCH   9  27
BRANCH  10  30
ATOM     30  C   UNL     1       2.713  -3.684   2.273  0.00  0.00    +0.101 C 
ATOM     31  N   UNL     1       2.579  -4.727   2.703  0.00  0.00    -0.191 NA
ENDBRANCH  10  30
BRANCH   8  32
ATOM     32  C   UNL     1       5.161   0.074   1.438  0.00  0.00    +0.091 C 
ATOM     33  N   UNL     1       6.229   0.150   1.056  0.00  0.00    -0.194 NA
ENDBRANCH   8  32
BRANCH   8  34
ATOM     34  C   UNL     1       3.598   0.927   3.040  0.00  0.00    +0.091 C 
ATOM     35  N   UNL     1       3.458   1.661   3.895  0.00  0.00    -0.194 NA
ENDBRANCH   8  34
TORSDOF 9
