REMARK  Name = ZINC00690790
REMARK  4 active torsions:
REMARK  status: ('A' for Active; 'I' for Inactive)
REMARK    1  A    between atoms: C_4  and  C_7
REMARK    2  A    between atoms: C_12  and  C_26
REMARK    3  A    between atoms: C_14  and  C_24
REMARK    4  A    between atoms: C_15  and  N_23
REMARK                            x       y       z     vdW  Elec       q    Type
REMARK                         _______ _______ _______ _____ _____    ______ ____
ROOT
ATOM      1  C   UNL     1       1.095   3.338   0.628  0.00  0.00    +0.032 C 
ATOM      2  C   UNL     1      -0.049   4.077  -0.070  0.00  0.00    +0.060 C 
ATOM      3  C   UNL     1      -1.303   3.239  -0.012  0.00  0.00    +0.028 C 
ATOM      4  C   UNL     1      -1.238   1.891  -0.003  0.00  0.00    +0.025 C 
ATOM      5  C   UNL     1      -2.493   1.056   0.054  0.00  0.00    +0.097 C 
ATOM      6  C   UNL     1      -3.697   1.858  -0.343  0.00  0.00    +0.077 C 
ATOM      7  C   UNL     1      -3.665   3.216  -0.347  0.00  0.00    +0.109 C 
ATOM      8  N   UNL     1      -2.513   3.881   0.020  0.00  0.00    -0.228 N 
ATOM      9  C   UNL     1      -2.577   5.222   0.413  0.00  0.00    +0.246 A 
ATOM     10  N   UNL     1      -3.668   5.993   0.373  0.00  0.00    -0.202 NA
ATOM     11  C   UNL     1      -3.381   7.191   0.815  0.00  0.00    +0.217 A 
ATOM     12  N   UNL     1      -2.077   7.216   1.142  0.00  0.00    -0.264 N 
ATOM     13  H   UNL     1      -1.581   7.971   1.494  0.00  0.00    +0.190 HD
ATOM     14  N   UNL     1      -1.575   5.932   0.875  0.00  0.00    -0.136 NA
ATOM     15  C   UNL     1      -0.001   1.224  -0.034  0.00  0.00    +0.162 C 
ATOM     16  O   UNL     1       0.022   0.009  -0.040  0.00  0.00    -0.292 OA
ATOM     17  C   UNL     1       1.295   1.987  -0.066  0.00  0.00    +0.088 C 
ENDROOT
BRANCH   5  18
ATOM     18  C   UNL     1      -2.682   0.543   1.458  0.00  0.00    -0.035 A 
ATOM     19  C   UNL     1      -2.814   1.433   2.507  0.00  0.00    +0.006 A 
ATOM     20  C   UNL     1      -2.994   0.963   3.794  0.00  0.00    +0.020 A 
ATOM     21  C   UNL     1      -3.029  -0.399   4.035  0.00  0.00    +0.041 A 
ATOM     22  C   UNL     1      -2.891  -1.290   2.985  0.00  0.00    +0.020 A 
ATOM     23  C   UNL     1      -2.717  -0.818   1.697  0.00  0.00    +0.006 A 
ATOM     24 CL   UNL     1      -3.248  -0.990   5.652  0.00  0.00    -0.084 Cl
ENDBRANCH   5  18
BRANCH   1  28
ATOM     25  C   UNL     1       4.680   5.643   0.341  0.00  0.00    +0.000 A 
ATOM     26  C   UNL     1       4.172   5.307   1.582  0.00  0.00    +0.000 A 
ATOM     27  C   UNL     1       3.012   4.561   1.675  0.00  0.00    +0.004 A 
ATOM     28  C   UNL     1       2.360   4.152   0.527  0.00  0.00    -0.044 A 
ATOM     29  C   UNL     1       2.871   4.483  -0.714  0.00  0.00    +0.004 A 
ATOM     30  C   UNL     1       4.028   5.233  -0.807  0.00  0.00    +0.000 A 
ENDBRANCH   1  28
BRANCH   7  31
ATOM     31  N   UNL     1      -4.785   3.927  -0.707  0.00  0.00    -0.345 N 
ATOM     32  H   UNL     1      -5.597   3.459  -0.958  0.00  0.00    +0.144 HD
ATOM     33  H   UNL     1      -4.763   4.897  -0.710  0.00  0.00    +0.144 HD
ENDBRANCH   7  31
BRANCH   6  34
ATOM     34  C   UNL     1      -4.899   1.181  -0.724  0.00  0.00    +0.099 C 
ATOM     35  N   UNL     1      -5.854   0.643  -1.027  0.00  0.00    -0.191 NA
ENDBRANCH   6  34
TORSDOF 4
