REMARK  Name = ZINC31946733
REMARK  5 active torsions:
REMARK  status: ('A' for Active; 'I' for Inactive)
REMARK    1  A    between atoms: C_1  and  C_2
REMARK    2  A    between atoms: C_2  and  C_3
REMARK    3  A    between atoms: N_5  and  C_6
REMARK    4  A    between atoms: C_7  and  C_17
REMARK    5  A    between atoms: C_12  and  C_16
REMARK                            x       y       z     vdW  Elec       q    Type
REMARK                         _______ _______ _______ _____ _____    ______ ____
ROOT
ATOM      1  C   UNL     1       3.602   1.017   3.475  0.00  0.00    +0.084 A 
ATOM      2  C   UNL     1       2.236   0.844   3.643  0.00  0.00    +0.069 A 
ATOM      3  C   UNL     1       1.387   1.034   2.479  0.00  0.00    -0.023 A 
ATOM      4  C   UNL     1       2.035   1.365   1.342  0.00  0.00    -0.004 A 
ATOM      5  S   UNL     1       3.745   1.426   1.797  0.00  0.00    -0.077 S 
ATOM      6  C   UNL     1       1.427   1.620  -0.003  0.00  0.00    +0.046 C 
ATOM      7  C   UNL     1      -0.013   1.086   0.008  0.00  0.00    -0.009 C 
ATOM      8  C   UNL     1      -0.714   1.583   1.276  0.00  0.00    +0.008 C 
ATOM      9  C   UNL     1      -0.129   0.881   2.503  0.00  0.00    +0.037 C 
ATOM     10  C   UNL     1      -0.758   1.595  -1.227  0.00  0.00    +0.008 C 
ENDROOT
BRANCH   2  11
ATOM     11  C   UNL     1       1.670   0.482   4.946  0.00  0.00    +0.249 C 
ATOM     12  O   UNL     1       1.336   1.354   5.727  0.00  0.00    -0.270 OA
ATOM     13  N   UNL     1       1.521  -0.815   5.280  0.00  0.00    -0.301 N 
ATOM     14  C   UNL     1       1.913  -1.884   4.349  0.00  0.00    +0.089 C 
ATOM     15  C   UNL     1       0.746  -2.859   4.201  0.00  0.00    -0.063 C 
ATOM     16  N   UNL     1       0.321  -3.317   5.530  0.00  0.00    +0.381 N 
ATOM     17  C   UNL     1      -0.179  -2.201   6.344  0.00  0.00    -0.063 C 
ATOM     18  C   UNL     1       0.956  -1.199   6.582  0.00  0.00    +0.089 C 
ATOM     19  H   UNL     1      -0.483  -4.060   5.422  0.00  0.00    -0.086 HD
ATOM     20  H   UNL     1       1.175  -3.775   6.050  0.00  0.00    -0.086 HD
ENDBRANCH   2  11
BRANCH   1  23
ATOM     21  C   UNL     1       5.894   1.103   4.068  0.00  0.00    +0.217 C 
ATOM     22  O   UNL     1       6.168   1.399   2.924  0.00  0.00    -0.275 OA
ATOM     23  N   UNL     1       4.609   0.894   4.420  0.00  0.00    -0.279 N 
ATOM     24  H   UNL     1       4.361   0.625   5.457  0.00  0.00    +0.155 HD
BRANCH  21  26
ATOM     25  C   UNL     1       8.340   1.256   4.440  0.00  0.00    +0.013 C 
ATOM     26  C   UNL     1       6.988   0.969   5.095  0.00  0.00    +0.093 C 
ENDBRANCH  21  26
ENDBRANCH   1  23
TORSDOF 3
