REMARK  Name = ZINC63374184
REMARK  9 active torsions:
REMARK  status: ('A' for Active; 'I' for Inactive)
REMARK    1  A    between atoms: C_1  and  C_2
REMARK    2  A    between atoms: C_2  and  C_3
REMARK    3  A    between atoms: C_2  and  C_4
REMARK    4  A    between atoms: C_4  and  C_6
REMARK    5  A    between atoms: C_4  and  N_20
REMARK    6  A    between atoms: N_8  and  CA_9
REMARK    7  A    between atoms: CA_9  and  C_11
REMARK    8  A    between atoms: CA_9  and  C_17
REMARK    9  A    between atoms: C_23  and  C_39
REMARK                            x       y       z     vdW  Elec       q    Type
REMARK                         _______ _______ _______ _____ _____    ______ ____
ROOT
ATOM      1  N   UNL     1      -1.770  -1.916   0.513  0.00  0.00    -0.212 N 
ATOM      2  C   UNL     1      -2.321  -2.290   1.687  0.00  0.00    +0.249 C 
ATOM      3  O   UNL     1      -2.603  -1.575   2.625  0.00  0.00    -0.273 OA
ATOM      4  C   UNL     1      -2.513  -3.787   1.589  0.00  0.00    +0.136 C 
ATOM      5  C   UNL     1      -1.746  -4.504   2.698  0.00  0.00    +0.139 C 
ATOM      6  C   UNL     1      -0.599  -5.258   2.042  0.00  0.00    -0.034 C 
ATOM      7  C   UNL     1       0.513  -4.838   2.641  0.00  0.00    -0.001 A 
ATOM      8  C   UNL     1       1.919  -5.245   2.486  0.00  0.00    +0.010 A 
ATOM      9  C   UNL     1       2.821  -4.589   3.264  0.00  0.00    +0.001 A 
ATOM     10  C   UNL     1       2.469  -3.582   4.167  0.00  0.00    +0.002 A 
ATOM     11  C   UNL     1       1.200  -3.149   4.378  0.00  0.00    +0.026 A 
ATOM     12  C   UNL     1       0.162  -3.766   3.620  0.00  0.00    +0.043 A 
ATOM     13  N   UNL     1      -1.136  -3.560   3.638  0.00  0.00    -0.375 N 
ATOM     14  C   UNL     1      -0.779  -6.219   0.893  0.00  0.00    +0.052 C 
ATOM     15  C   UNL     1      -1.609  -5.487  -0.180  0.00  0.00    +0.115 C 
ATOM     16  N   UNL     1      -1.872  -4.128   0.302  0.00  0.00    -0.269 N 
ATOM     17  C   UNL     1      -1.554  -2.968  -0.288  0.00  0.00    +0.313 C 
ATOM     18  O   UNL     1      -1.118  -2.880  -1.419  0.00  0.00    -0.252 OA
ATOM     19  C   UNL     1      -3.997  -4.159   1.589  0.00  0.00    +0.044 C 
ATOM     20  H   UNL     1      -1.611  -2.903   4.170  0.00  0.00    +0.160 HD
ENDROOT
BRANCH   1  21
ATOM     21  C   UNL     1      -1.454  -0.531   0.157  0.00  0.00    +0.174 C 
BRANCH  21  22
ATOM     22  C   UNL     1      -2.227  -0.140  -1.076  0.00  0.00    +0.235 C 
ATOM     23  O   UNL     1      -2.777  -0.991  -1.742  0.00  0.00    -0.274 OA
ATOM     24  N   UNL     1      -2.307   1.156  -1.438  0.00  0.00    -0.297 N 
ATOM     25  H   UNL     1      -1.911   1.842  -0.878  0.00  0.00    +0.150 HD
BRANCH  24  26
ATOM     26  CA  UNL     1      -2.993   1.528  -2.678  0.00  0.00    +0.217 C 
BRANCH  26  27
ATOM     27  C   UNL     1      -2.451   2.844  -3.176  0.00  0.00    -0.016 A 
ATOM     28  C   UNL     1      -2.161   3.855  -2.279  0.00  0.00    +0.006 A 
ATOM     29  C   UNL     1      -1.664   5.062  -2.735  0.00  0.00    +0.000 A 
ATOM     30  C   UNL     1      -1.458   5.258  -4.088  0.00  0.00    +0.000 A 
ATOM     31  C   UNL     1      -1.748   4.246  -4.984  0.00  0.00    +0.000 A 
ATOM     32  C   UNL     1      -2.240   3.038  -4.528  0.00  0.00    +0.006 A 
ENDBRANCH  26  27
BRANCH  26  33
ATOM     33  C   UNL     1      -4.470   1.661  -2.415  0.00  0.00    +0.380 C 
ATOM     34  O   UNL     1      -4.890   1.643  -1.271  0.00  0.00    -0.244 OA
ATOM     35  OXT UNL     1      -5.247   1.785  -3.347  0.00  0.00    -0.244 OA
ENDBRANCH  26  33
ENDBRANCH  24  26
ENDBRANCH  21  22
BRANCH  21  37
ATOM     36  C   UNL     1       0.399   1.063  -0.363  0.00  0.00    +0.009 C 
ATOM     37  C   UNL     1       0.046  -0.406  -0.121  0.00  0.00    +0.013 C 
ATOM     38  C   UNL     1       0.833  -0.927   1.083  0.00  0.00    +0.009 C 
ENDBRANCH  21  37
ENDBRANCH   1  21
TORSDOF 6
