REMARK  Name = ZINC05368561
REMARK  4 active torsions:
REMARK  status: ('A' for Active; 'I' for Inactive)
REMARK    1  A    between atoms: C_1  and  C_2
REMARK    2  A    between atoms: C_2  and  C_3
REMARK    3  A    between atoms: C_3  and  C_5
REMARK    4  A    between atoms: C_3  and  N_8
REMARK                            x       y       z     vdW  Elec       q    Type
REMARK                         _______ _______ _______ _____ _____    ______ ____
ROOT
ATOM      1  N   UNL     1       0.129   2.406  -1.875  0.00  0.00    -0.230 N 
ATOM      2  C   UNL     1      -0.797   1.615  -1.320  0.00  0.00    +0.227 C 
ATOM      3  O   UNL     1      -1.933   1.480  -1.720  0.00  0.00    -0.275 OA
ATOM      4  C   UNL     1      -0.205   0.917  -0.117  0.00  0.00    +0.091 C 
ATOM      5  C   UNL     1      -0.866   1.482   1.176  0.00  0.00    +0.002 C 
ATOM      6  C   UNL     1      -0.999   3.013   0.912  0.00  0.00    +0.004 C 
ATOM      7  C   UNL     1       0.466   3.567   0.920  0.00  0.00    +0.004 C 
ATOM      8  C   UNL     1       1.319   2.300   1.232  0.00  0.00    +0.002 C 
ATOM      9  C   UNL     1       0.345   1.489   2.157  0.00  0.00    +0.008 C 
ATOM     10  C   UNL     1       1.254   1.452  -0.073  0.00  0.00    +0.091 C 
ATOM     11  C   UNL     1       1.315   2.392  -1.256  0.00  0.00    +0.227 C 
ATOM     12  O   UNL     1       2.288   3.033  -1.592  0.00  0.00    -0.275 OA
ENDROOT
BRANCH   1  13
ATOM     13  C   UNL     1      -0.135   3.221  -3.063  0.00  0.00    +0.169 C 
BRANCH  13  14
ATOM     14  C   UNL     1      -0.053   4.681  -2.700  0.00  0.00    +0.231 C 
ATOM     15  O   UNL     1       0.201   5.009  -1.560  0.00  0.00    -0.274 OA
ATOM     16  N   UNL     1      -0.261   5.623  -3.641  0.00  0.00    -0.328 N 
ATOM     17  H   UNL     1      -0.464   5.361  -4.552  0.00  0.00    +0.145 HD
ATOM     18  H   UNL     1      -0.209   6.563  -3.407  0.00  0.00    +0.145 HD
ENDBRANCH  13  14
BRANCH  13  20
ATOM     19  C   UNL     1       0.737   1.456  -4.601  0.00  0.00    +0.006 C 
ATOM     20  C   UNL     1       0.905   2.905  -4.140  0.00  0.00    +0.029 C 
ENDBRANCH  13  20
ENDBRANCH   1  13
TORSDOF 3
