REMARK  Name = ZINC64836359
REMARK  4 active torsions:
REMARK  status: ('A' for Active; 'I' for Inactive)
REMARK    1  A    between atoms: C_1  and  C_2
REMARK    2  A    between atoms: C_11  and  C_18
REMARK    3  A    between atoms: N_20  and  C_21
REMARK    4  A    between atoms: C_21  and  C_22
REMARK                            x       y       z     vdW  Elec       q    Type
REMARK                         _______ _______ _______ _____ _____    ______ ____
ROOT
ATOM      1  C   UNL     1      -0.019   1.526   0.010  0.00  0.00    +0.007 C 
ATOM      2  C   UNL     1       0.002  -0.004   0.002  0.00  0.00    -0.011 C 
ATOM      3  C   UNL     1      -1.434  -0.533   0.011  0.00  0.00    +0.022 C 
ATOM      4  C   UNL     1      -1.409  -2.065  -0.032  0.00  0.00    +0.107 C 
ATOM      5  N   UNL     1      -0.578  -2.556   1.075  0.00  0.00    -0.308 N 
ATOM      6  C   UNL     1       0.791  -2.042   1.212  0.00  0.00    +0.107 C 
ATOM      7  C   UNL     1       0.742  -0.511   1.242  0.00  0.00    +0.022 C 
ATOM      8  C   UNL     1      -1.075  -3.485   1.971  0.00  0.00    +0.184 A 
ATOM      9  N   UNL     1      -0.488  -4.024   3.007  0.00  0.00    -0.141 NA
ATOM     10  N   UNL     1      -1.144  -4.953   3.812  0.00  0.00    -0.201 N 
ATOM     11  C   UNL     1      -0.632  -5.594   4.934  0.00  0.00    +0.135 A 
ATOM     12  C   UNL     1      -1.395  -6.481   5.620  0.00  0.00    +0.105 A 
ATOM     13  C   UNL     1      -2.720  -6.751   5.187  0.00  0.00    +0.275 A 
ATOM     14  O   UNL     1      -3.426  -7.546   5.791  0.00  0.00    -0.266 OA
ATOM     15  N   UNL     1      -3.179  -6.115   4.103  0.00  0.00    -0.183 NA
ATOM     16  C   UNL     1      -2.425  -5.263   3.456  0.00  0.00    +0.201 A 
ATOM     17  S   UNL     1      -2.687  -4.251   2.016  0.00  0.00    -0.013 S 
ENDROOT
BRANCH  11  18
ATOM     18  C   UNL     1       0.749  -5.310   5.381  0.00  0.00    +0.263 C 
ATOM     19  O   UNL     1       1.435  -4.516   4.767  0.00  0.00    -0.269 OA
ATOM     20  N   UNL     1       1.247  -5.931   6.469  0.00  0.00    -0.306 N 
ATOM     21  H   UNL     1       0.699  -6.564   6.958  0.00  0.00    +0.149 HD
BRANCH  20  22
ATOM     22  C   UNL     1       2.614  -5.649   6.911  0.00  0.00    +0.140 C 
BRANCH  22  23
ATOM     23  C   UNL     1       2.924  -6.466   8.139  0.00  0.00    -0.030 A 
ATOM     24  C   UNL     1       2.653  -5.955   9.395  0.00  0.00    +0.008 A 
ATOM     25  C   UNL     1       2.935  -6.704  10.522  0.00  0.00    +0.038 A 
ATOM     26  C   UNL     1       3.490  -7.965  10.393  0.00  0.00    +0.123 A 
ATOM     27  C   UNL     1       3.761  -8.476   9.134  0.00  0.00    +0.038 A 
ATOM     28  C   UNL     1       3.473  -7.728   8.009  0.00  0.00    +0.008 A 
ATOM     29  F   UNL     1       3.767  -8.698  11.493  0.00  0.00    -0.205 F 
ENDBRANCH  22  23
ENDBRANCH  20  22
ENDBRANCH  11  18
TORSDOF 3
