REMARK  Name = ZINC35707337
REMARK  10 active torsions:
REMARK  status: ('A' for Active; 'I' for Inactive)
REMARK    1  A    between atoms: C_1  and  O_2
REMARK    2  A    between atoms: O_2  and  C_3
REMARK    3  A    between atoms: C_3  and  C_4
REMARK    4  A    between atoms: C_4  and  C_5
REMARK    5  A    between atoms: C_5  and  N_6
REMARK    6  A    between atoms: C_7  and  C_9
REMARK    7  A    between atoms: C_11  and  N_25
REMARK    8  A    between atoms: C_14  and  N_15
REMARK    9  A    between atoms: C_26  and  C_28
REMARK   10  A    between atoms: C_31  and  N_35
REMARK                            x       y       z     vdW  Elec       q    Type
REMARK                         _______ _______ _______ _____ _____    ______ ____
ROOT
ATOM      1  C   UNL     1      -3.380  -6.482  -0.011  0.00  0.00    +0.059 A 
ATOM      2  C   UNL     1      -2.110  -7.066  -0.013  0.00  0.00    +0.038 A 
ATOM      3  C   UNL     1      -1.985  -8.443  -0.025  0.00  0.00    +0.035 A 
ATOM      4  C   UNL     1      -3.120  -9.249  -0.033  0.00  0.00    +0.025 A 
ATOM      5  C   UNL     1      -4.377  -8.682  -0.031  0.00  0.00    +0.026 A 
ATOM      6  C   UNL     1      -4.519  -7.300  -0.014  0.00  0.00    +0.042 A 
ENDROOT
BRANCH   6   7
ATOM      7  N   UNL     1      -5.787  -6.730  -0.005  0.00  0.00    -0.325 N 
ATOM      8  C   UNL     1      -6.492  -6.411  -1.258  0.00  0.00    +0.110 C 
ATOM      9  C   UNL     1      -7.745  -7.283  -1.328  0.00  0.00    +0.054 C 
ATOM     10  C   UNL     1      -8.498  -7.243  -0.025  0.00  0.00    -0.041 A 
ATOM     11  C   UNL     1      -9.838  -7.612  -0.044  0.00  0.00    +0.004 A 
ATOM     12  C   UNL     1     -10.584  -7.607   1.117  0.00  0.00    +0.000 A 
ATOM     13  C   UNL     1      -9.995  -7.234   2.311  0.00  0.00    +0.000 A 
ATOM     14  C   UNL     1      -8.666  -6.864   2.332  0.00  0.00    +0.005 A 
ATOM     15  C   UNL     1      -7.916  -6.862   1.163  0.00  0.00    -0.027 A 
ATOM     16  C   UNL     1      -6.479  -6.427   1.252  0.00  0.00    +0.140 C 
ENDBRANCH   6   7
BRANCH   1  18
ATOM     17  N   UNL     1      -2.423  -4.232   0.005  0.00  0.00    -0.311 N 
ATOM     18  C   UNL     1      -3.521  -5.015   0.002  0.00  0.00    +0.246 C 
ATOM     19  O   UNL     1      -4.627  -4.510   0.010  0.00  0.00    -0.270 OA
ATOM     20  H   UNL     1      -1.541  -4.634  -0.001  0.00  0.00    +0.149 HD
BRANCH  17  21
ATOM     21  C   UNL     1      -2.564  -2.774   0.018  0.00  0.00    +0.107 C 
BRANCH  21  22
ATOM     22  C   UNL     1      -1.177  -2.128   0.019  0.00  0.00    +0.047 C 
BRANCH  22  23
ATOM     23  C   UNL     1      -1.323  -0.605   0.032  0.00  0.00    +0.161 C 
BRANCH  23  25
ATOM     24  C   UNL     1      -0.052   1.427   0.045  0.00  0.00    +0.193 C 
ATOM     25  O   UNL     1      -0.028  -0.002   0.034  0.00  0.00    -0.383 OA
ENDBRANCH  23  25
ENDBRANCH  22  23
ENDBRANCH  21  22
ENDBRANCH  17  21
ENDBRANCH   1  18
BRANCH   3  26
ATOM     26  N   UNL     1      -0.713  -9.029  -0.028  0.00  0.00    -0.281 N 
ATOM     27  C   UNL     1      -0.501 -10.184   0.634  0.00  0.00    +0.250 C 
ATOM     28  O   UNL     1      -1.431 -10.761   1.164  0.00  0.00    -0.270 OA
ATOM     29  H   UNL     1       0.016  -8.604  -0.507  0.00  0.00    +0.155 HD
BRANCH  27  30
ATOM     30  C   UNL     1       0.862 -10.749   0.717  0.00  0.00    +0.055 A 
ATOM     31  C   UNL     1       1.934 -10.086   0.115  0.00  0.00    +0.017 A 
ATOM     32  C   UNL     1       3.203 -10.619   0.196  0.00  0.00    +0.033 A 
ATOM     33  C   UNL     1       3.417 -11.808   0.872  0.00  0.00    +0.128 A 
ATOM     34  C   UNL     1       2.361 -12.470   1.470  0.00  0.00    +0.053 A 
ATOM     35  C   UNL     1       1.085 -11.945   1.402  0.00  0.00    +0.055 A 
ATOM     36 CL   UNL     1      -0.238 -12.775   2.160  0.00  0.00    -0.083 Cl
BRANCH  33  37
ATOM     37  N   UNL     1       4.783 -12.372   0.954  0.00  0.00    +0.056 N 
ATOM     38  O   UNL     1       5.708 -11.796   0.431  0.00  0.00    -0.126 OA
ATOM     39  O   UNL     1       4.973 -13.411   1.543  0.00  0.00    -0.126 OA
ENDBRANCH  33  37
ENDBRANCH  27  30
ENDBRANCH   3  26
TORSDOF 9
