REMARK  Name = ZINC00861903
REMARK  9 active torsions:
REMARK  status: ('A' for Active; 'I' for Inactive)
REMARK    1  A    between atoms: C_1  and  C_2
REMARK    2  A    between atoms: C_2  and  O_3
REMARK    3  A    between atoms: O_3  and  C_4
REMARK    4  A    between atoms: C_4  and  C_6
REMARK    5  A    between atoms: C_7  and  C_36
REMARK    6  A    between atoms: C_14  and  C_15
REMARK    7  A    between atoms: C_18  and  O_22
REMARK    8  A    between atoms: O_22  and  C_23
REMARK    9  A    between atoms: C_25  and  C_27
REMARK                            x       y       z     vdW  Elec       q    Type
REMARK                         _______ _______ _______ _____ _____    ______ ____
ROOT
ATOM      1  C   UNL     1      -4.308   5.052   0.050  0.00  0.00    +0.085 C 
ATOM      2  C   UNL     1      -5.164   6.024  -0.386  0.00  0.00    +0.053 C 
ATOM      3  N   UNL     1      -4.704   7.217  -0.743  0.00  0.00    -0.228 NA
ATOM      4  C   UNL     1      -3.444   7.571  -0.716  0.00  0.00    +0.178 A 
ATOM      5  N   UNL     1      -2.421   6.745  -0.312  0.00  0.00    -0.275 N 
ATOM      6  C   UNL     1      -1.168   7.219  -0.328  0.00  0.00    +0.268 A 
ATOM      7  O   UNL     1      -0.231   6.526   0.022  0.00  0.00    -0.266 OA
ATOM      8  C   UNL     1      -0.960   8.602  -0.779  0.00  0.00    +0.081 A 
ATOM      9  C   UNL     1       0.194   9.310  -0.888  0.00  0.00    +0.028 C 
ATOM     10  S   UNL     1      -2.635   9.099  -1.147  0.00  0.00    -0.046 S 
ATOM     11  C   UNL     1      -2.833   5.377   0.111  0.00  0.00    +0.162 C 
ATOM     12  C   UNL     1      -6.641   5.739  -0.462  0.00  0.00    +0.066 C 
ENDROOT
BRANCH  11  13
ATOM     13  C   UNL     1      -2.103   4.384  -0.756  0.00  0.00    -0.016 A 
ATOM     14  C   UNL     1      -2.070   4.559  -2.127  0.00  0.00    +0.010 A 
ATOM     15  C   UNL     1      -1.401   3.651  -2.926  0.00  0.00    +0.050 A 
ATOM     16  C   UNL     1      -0.762   2.562  -2.355  0.00  0.00    +0.166 A 
ATOM     17  C   UNL     1      -0.795   2.387  -0.974  0.00  0.00    +0.167 A 
ATOM     18  C   UNL     1      -1.467   3.301  -0.179  0.00  0.00    +0.055 A 
ATOM     19  O   UNL     1      -0.097   1.254  -0.659  0.00  0.00    -0.453 OA
ATOM     20  C   UNL     1       0.702   0.963  -1.821  0.00  0.00    +0.466 C 
ATOM     21  O   UNL     1      -0.046   1.540  -2.908  0.00  0.00    -0.453 OA
ENDBRANCH  11  13
BRANCH   9  22
ATOM     22  C   UNL     1       0.187  10.633  -1.525  0.00  0.00    -0.023 A 
ATOM     23  C   UNL     1       1.269  11.504  -1.349  0.00  0.00    +0.011 A 
ATOM     24  C   UNL     1       1.257  12.743  -1.949  0.00  0.00    +0.047 A 
ATOM     25  C   UNL     1       0.174  13.130  -2.729  0.00  0.00    +0.134 A 
ATOM     26  C   UNL     1      -0.903  12.269  -2.908  0.00  0.00    +0.060 A 
ATOM     27  C   UNL     1      -0.900  11.025  -2.317  0.00  0.00    +0.027 A 
ATOM     28 BR   UNL     1      -2.373  12.804  -3.972  0.00  0.00    -0.047 Br
BRANCH  25  29
ATOM     29  O   UNL     1       0.168  14.353  -3.319  0.00  0.00    -0.494 OA
ATOM     30  C   UNL     1       1.306  15.187  -3.095  0.00  0.00    +0.277 C 
ENDBRANCH  25  29
ENDBRANCH   9  22
BRANCH   1  31
ATOM     31  C   UNL     1      -4.784   3.786   0.430  0.00  0.00    +0.339 C 
ATOM     32  O   UNL     1      -5.960   3.506   0.274  0.00  0.00    -0.245 OA
BRANCH  31  33
ATOM     33  O   UNL     1      -3.940   2.880   0.967  0.00  0.00    -0.462 OA
BRANCH  33  35
ATOM     34  C   UNL     1      -3.393   0.726   1.917  0.00  0.00    +0.048 C 
ATOM     35  C   UNL     1      -4.493   1.613   1.330  0.00  0.00    +0.229 C 
ENDBRANCH  33  35
ENDBRANCH  31  33
ENDBRANCH   1  31
TORSDOF 6
