REMARK  Name = ZINC53126685
REMARK  6 active torsions:
REMARK  status: ('A' for Active; 'I' for Inactive)
REMARK    1  A    between atoms: C_1  and  O_2
REMARK    2  A    between atoms: O_2  and  C_3
REMARK    3  A    between atoms: C_8  and  O_9
REMARK    4  A    between atoms: O_9  and  C_10
REMARK    5  A    between atoms: C_10  and  C_11
REMARK    6  A    between atoms: C_11  and  N_12
REMARK                            x       y       z     vdW  Elec       q    Type
REMARK                         _______ _______ _______ _____ _____    ______ ____
ROOT
ATOM      1  N   UNL     1       1.847  -4.504   1.212  0.00  0.00    -0.221 N 
ATOM      2  C   UNL     1       2.624  -3.418   1.388  0.00  0.00    +0.247 C 
ATOM      3  O   UNL     1       2.867  -2.554   0.573  0.00  0.00    -0.273 OA
ATOM      4  C   UNL     1       3.132  -3.499   2.817  0.00  0.00    +0.113 C 
ATOM      5  C   UNL     1       2.517  -2.319   3.604  0.00  0.00    +0.035 C 
ATOM      6  C   UNL     1       2.502  -2.667   5.067  0.00  0.00    +0.003 C 
ATOM      7  C   UNL     1       3.744  -2.144   5.815  0.00  0.00    +0.000 C 
ATOM      8  C   UNL     1       5.047  -2.336   5.017  0.00  0.00    +0.000 C 
ATOM      9  C   UNL     1       5.106  -3.676   4.335  0.00  0.00    +0.003 C 
ATOM     10  C   UNL     1       4.587  -3.512   2.893  0.00  0.00    +0.035 C 
ATOM     11  N   UNL     1       2.524  -4.746   3.323  0.00  0.00    -0.285 N 
ATOM     12  C   UNL     1       1.788  -5.253   2.318  0.00  0.00    +0.309 C 
ATOM     13  O   UNL     1       1.145  -6.281   2.405  0.00  0.00    -0.252 OA
ATOM     14  H   UNL     1       2.631  -5.124   4.210  0.00  0.00    +0.151 HD
ENDROOT
BRANCH   1  15
ATOM     15  C   UNL     1       1.146  -4.822  -0.035  0.00  0.00    +0.159 C 
BRANCH  15  16
ATOM     16  C   UNL     1      -0.242  -4.179  -0.018  0.00  0.00    +0.248 C 
BRANCH  16  17
ATOM     17  O   UNL     1      -0.108  -2.756  -0.012  0.00  0.00    -0.487 OA
BRANCH  17  23
ATOM     18  C   UNL     1      -1.201  -0.638   0.010  0.00  0.00    +0.161 A 
ATOM     19  C   UNL     1      -2.374   0.099   0.019  0.00  0.00    +0.049 A 
ATOM     20  C   UNL     1      -3.596  -0.546   0.027  0.00  0.00    +0.004 A 
ATOM     21  C   UNL     1      -3.652  -1.928   0.026  0.00  0.00    +0.004 A 
ATOM     22  C   UNL     1      -2.485  -2.669   0.017  0.00  0.00    +0.049 A 
ATOM     23  C   UNL     1      -1.257  -2.028   0.003  0.00  0.00    +0.162 A 
BRANCH  18  25
ATOM     24  C   UNL     1      -0.017   1.425   0.010  0.00  0.00    +0.277 C 
ATOM     25  O   UNL     1       0.002  -0.004   0.002  0.00  0.00    -0.491 OA
ENDBRANCH  18  25
ENDBRANCH  17  23
ENDBRANCH  16  17
ENDBRANCH  15  16
ENDBRANCH   1  15
TORSDOF 5
