REMARK  Name = ZINC63362653
REMARK  6 active torsions:
REMARK  status: ('A' for Active; 'I' for Inactive)
REMARK    1  A    between atoms: C_1  and  C_2
REMARK    2  A    between atoms: C_2  and  C_4
REMARK    3  A    between atoms: C_2  and  N_10
REMARK    4  A    between atoms: C_11  and  C_13
REMARK    5  A    between atoms: C_17  and  N_19
REMARK    6  A    between atoms: C_22  and  C_38
REMARK                            x       y       z     vdW  Elec       q    Type
REMARK                         _______ _______ _______ _____ _____    ______ ____
ROOT
ATOM      1  N   UNL     1       6.220  -1.770   3.481  0.00  0.00    -0.192 N 
ATOM      2  C   UNL     1       6.958  -2.119   4.556  0.00  0.00    +0.253 C 
ATOM      3  O   UNL     1       6.556  -2.351   5.676  0.00  0.00    -0.272 OA
ATOM      4  C   UNL     1       8.390  -2.161   4.071  0.00  0.00    +0.137 C 
ATOM      5  C   UNL     1       9.256  -1.182   4.863  0.00  0.00    +0.139 C 
ATOM      6  C   UNL     1       9.649  -0.056   3.917  0.00  0.00    -0.034 C 
ATOM      7  C   UNL     1       9.248   1.073   4.496  0.00  0.00    -0.001 A 
ATOM      8  C   UNL     1       9.401   2.482   4.100  0.00  0.00    +0.010 A 
ATOM      9  C   UNL     1       8.851   3.402   4.935  0.00  0.00    +0.001 A 
ATOM     10  C   UNL     1       8.171   3.065   6.110  0.00  0.00    +0.002 A 
ATOM     11  C   UNL     1       7.986   1.796   6.553  0.00  0.00    +0.026 A 
ATOM     12  C   UNL     1       8.525   0.740   5.761  0.00  0.00    +0.043 A 
ATOM     13  N   UNL     1       8.513  -0.559   5.960  0.00  0.00    -0.375 N 
ATOM     14  C   UNL     1      10.295  -0.281   2.572  0.00  0.00    +0.052 C 
ATOM     15  C   UNL     1       9.432  -1.318   1.826  0.00  0.00    +0.115 C 
ATOM     16  N   UNL     1       8.295  -1.660   2.684  0.00  0.00    -0.268 N 
ATOM     17  C   UNL     1       6.988  -1.550   2.405  0.00  0.00    +0.316 C 
ATOM     18  O   UNL     1       6.551  -1.277   1.305  0.00  0.00    -0.252 OA
ATOM     19  C   UNL     1       8.951  -3.583   4.114  0.00  0.00    +0.044 C 
ATOM     20  H   UNL     1       8.088  -1.028   6.695  0.00  0.00    +0.160 HD
ENDROOT
BRANCH   1  25
ATOM     21  C   UNL     1       2.713  -1.918   4.613  0.00  0.00    +0.038 A 
ATOM     22  C   UNL     1       2.055  -1.431   3.481  0.00  0.00    +0.013 A 
ATOM     23  C   UNL     1       2.781  -1.064   2.367  0.00  0.00    +0.003 A 
ATOM     24  C   UNL     1       4.160  -1.176   2.366  0.00  0.00    +0.024 A 
ATOM     25  C   UNL     1       4.823  -1.659   3.487  0.00  0.00    +0.046 A 
ATOM     26  C   UNL     1       4.103  -2.025   4.614  0.00  0.00    +0.037 A 
BRANCH  21  28
ATOM     27  N   UNL     1       0.594  -2.208   5.806  0.00  0.00    -0.305 N 
ATOM     28  C   UNL     1       1.938  -2.312   5.809  0.00  0.00    +0.245 C 
ATOM     29  O   UNL     1       2.512  -2.730   6.795  0.00  0.00    -0.270 OA
ATOM     30  H   UNL     1       0.135  -1.874   5.019  0.00  0.00    +0.150 HD
BRANCH  27  32
ATOM     31  C   UNL     1      -0.437  -4.105   6.953  0.00  0.00    +0.033 C 
ATOM     32  C   UNL     1      -0.174  -2.599   6.990  0.00  0.00    +0.100 C 
BRANCH  32  33
ATOM     33  C   UNL     1      -1.487  -1.859   7.004  0.00  0.00    -0.027 A 
ATOM     34  C   UNL     1      -2.191  -1.678   5.828  0.00  0.00    +0.005 A 
ATOM     35  C   UNL     1      -3.395  -0.999   5.841  0.00  0.00    +0.000 A 
ATOM     36  C   UNL     1      -3.896  -0.503   7.030  0.00  0.00    +0.000 A 
ATOM     37  C   UNL     1      -3.193  -0.685   8.206  0.00  0.00    +0.000 A 
ATOM     38  C   UNL     1      -1.991  -1.367   8.194  0.00  0.00    +0.005 A 
ENDBRANCH  32  33
ENDBRANCH  27  32
ENDBRANCH  21  28
ENDBRANCH   1  25
TORSDOF 4
