REMARK  Name = ZINC23587922
REMARK  8 active torsions:
REMARK  status: ('A' for Active; 'I' for Inactive)
REMARK    1  A    between atoms: C_1  and  C_2
REMARK    2  A    between atoms: C_7  and  N_12
REMARK    3  A    between atoms: C_9  and  C_11
REMARK    4  A    between atoms: C_16  and  C_18
REMARK    5  A    between atoms: C_18  and  S_19
REMARK    6  A    between atoms: S_19  and  C_20
REMARK    7  A    between atoms: C_23  and  C_26
REMARK    8  A    between atoms: N_24  and  C_25
REMARK                            x       y       z     vdW  Elec       q    Type
REMARK                         _______ _______ _______ _____ _____    ______ ____
ROOT
ATOM      1  C   UNL     1       7.686   8.195   1.003  0.00  0.00    +0.173 C 
ENDROOT
BRANCH   1   6
ATOM      2  N   UNL     1      11.777  10.131   2.623  0.00  0.00    -0.296 N 
ATOM      3  C   UNL     1      10.860  10.019   1.641  0.00  0.00    +0.306 C 
ATOM      4  O   UNL     1      10.995  10.648   0.609  0.00  0.00    -0.252 OA
ATOM      5  N   UNL     1       9.794   9.210   1.803  0.00  0.00    -0.239 N 
ATOM      6  C   UNL     1       8.878   9.099   0.821  0.00  0.00    +0.231 C 
ATOM      7  O   UNL     1       9.012   9.726  -0.208  0.00  0.00    -0.274 OA
ATOM      8  H   UNL     1      11.655   9.562   3.556  0.00  0.00    +0.151 HD
ATOM      9  H   UNL     1       9.672   8.642   2.737  0.00  0.00    +0.159 HD
BRANCH   2  15
ATOM     10  C   UNL     1      16.441  10.958   4.038  0.00  0.00    +0.008 C 
ATOM     11  C   UNL     1      15.293  11.443   3.150  0.00  0.00    -0.009 C 
ATOM     12  C   UNL     1      14.914  12.872   3.542  0.00  0.00    +0.003 C 
ATOM     13  C   UNL     1      13.766  13.357   2.654  0.00  0.00    +0.002 C 
ATOM     14  C   UNL     1      12.556  12.439   2.838  0.00  0.00    +0.022 C 
ATOM     15  C   UNL     1      12.935  11.010   2.446  0.00  0.00    +0.078 C 
ATOM     16  C   UNL     1      14.083  10.525   3.334  0.00  0.00    +0.009 C 
ATOM     17  C   UNL     1      13.641  10.552   4.798  0.00  0.00    +0.009 C 
ENDBRANCH   2  15
ENDBRANCH   1   6
BRANCH   1  18
ATOM     18  S   UNL     1       6.647   8.260  -0.478  0.00  0.00    -0.077 S 
BRANCH  18  19
ATOM     19  C   UNL     1       5.368   7.145  -0.005  0.00  0.00    +0.192 A 
ATOM     20  N   UNL     1       5.281   6.494   1.132  0.00  0.00    -0.122 NA
ATOM     21  N   UNL     1       4.220   5.769   1.139  0.00  0.00    -0.130 NA
ATOM     22  C   UNL     1       3.572   5.913   0.018  0.00  0.00    +0.178 A 
ATOM     23  N   UNL     1       4.282   6.790  -0.753  0.00  0.00    -0.306 N 
ATOM     24  C   UNL     1       3.947   7.256  -2.101  0.00  0.00    +0.153 C 
BRANCH  22  25
ATOM     25  C   UNL     1       2.281   5.233  -0.361  0.00  0.00    +0.278 C 
ATOM     26  C   UNL     1       1.113   5.884   0.392  0.00  0.00    +0.281 C 
ATOM     27  O   UNL     1      -0.092   5.206   0.020  0.00  0.00    -0.484 OA
ATOM     28  C   UNL     1      -0.054   3.846   0.020  0.00  0.00    +0.162 A 
ATOM     29  C   UNL     1      -1.243   3.131   0.029  0.00  0.00    +0.049 A 
ATOM     30  C   UNL     1      -1.220   1.750   0.017  0.00  0.00    +0.004 A 
ATOM     31  C   UNL     1      -0.013   1.076   0.008  0.00  0.00    +0.004 A 
ATOM     32  C   UNL     1       1.175   1.782   0.000  0.00  0.00    +0.049 A 
ATOM     33  C   UNL     1       1.160   3.169   0.008  0.00  0.00    +0.163 A 
ATOM     34  O   UNL     1       2.338   3.850   0.008  0.00  0.00    -0.474 OA
ENDBRANCH  22  25
ENDBRANCH  18  19
ENDBRANCH   1  18
TORSDOF 5
