REMARK  Name = ZINC66532743
REMARK  4 active torsions:
REMARK  status: ('A' for Active; 'I' for Inactive)
REMARK    1  A    between atoms: C_4  and  C_7
REMARK    2  A    between atoms: C_9  and  C_12
REMARK    3  A    between atoms: N_15  and  C_18
REMARK    4  A    between atoms: C_18  and  C_19
REMARK                            x       y       z     vdW  Elec       q    Type
REMARK                         _______ _______ _______ _____ _____    ______ ____
ROOT
ATOM      1  C   UNL     1       5.692  -3.722  -0.082  0.00  0.00    +0.080 C 
ATOM      2  C   UNL     1       6.550  -3.908  -1.337  0.00  0.00    +0.028 C 
ATOM      3  C   UNL     1       7.177  -5.304  -1.318  0.00  0.00    +0.085 C 
ATOM      4  N   UNL     1       8.002  -5.455  -0.112  0.00  0.00    -0.297 NA
ATOM      5  C   UNL     1       7.191  -5.328   1.105  0.00  0.00    +0.085 C 
ATOM      6  C   UNL     1       6.564  -3.933   1.159  0.00  0.00    +0.028 C 
ENDROOT
BRANCH   1   9
ATOM      7  C   UNL     1       3.699  -0.689  -0.037  0.00  0.00    +0.202 A 
ATOM      8  N   UNL     1       3.853  -2.025  -0.051  0.00  0.00    -0.191 NA
ATOM      9  C   UNL     1       5.120  -2.328  -0.065  0.00  0.00    +0.231 A 
ATOM     10  O   UNL     1       5.828  -1.191  -0.059  0.00  0.00    -0.337 OA
ATOM     11  N   UNL     1       4.884  -0.131  -0.046  0.00  0.00    -0.056 NA
BRANCH   7  15
ATOM     12  C   UNL     1      -0.017   1.379   0.010  0.00  0.00    +0.000 A 
ATOM     13  C   UNL     1       1.169   2.092   0.002  0.00  0.00    +0.001 A 
ATOM     14  C   UNL     1       2.377   1.426  -0.013  0.00  0.00    +0.012 A 
ATOM     15  C   UNL     1       2.402   0.033  -0.021  0.00  0.00    +0.022 A 
ATOM     16  C   UNL     1       1.205  -0.680  -0.013  0.00  0.00    +0.012 A 
ATOM     17  C   UNL     1       0.002  -0.004   0.002  0.00  0.00    +0.001 A 
ENDBRANCH   7  15
ENDBRANCH   1   9
BRANCH   4  18
ATOM     18  C   UNL     1       8.729  -6.731  -0.129  0.00  0.00    +0.137 C 
BRANCH  18  19
ATOM     19  C   UNL     1       9.743  -6.746   0.986  0.00  0.00    +0.037 A 
ATOM     20  C   UNL     1       9.619  -7.633   2.000  0.00  0.00    +0.094 A 
ATOM     21  C   UNL     1      10.569  -7.644   3.041  0.00  0.00    +0.275 A 
ATOM     22  O   UNL     1      10.463  -8.441   3.957  0.00  0.00    -0.266 OA
ATOM     23  N   UNL     1      11.596  -6.772   3.021  0.00  0.00    -0.180 N 
ATOM     24  C   UNL     1      11.714  -5.880   1.994  0.00  0.00    +0.138 A 
ATOM     25  N   UNL     1      10.787  -5.871   0.970  0.00  0.00    -0.342 N 
ATOM     26  C   UNL     1      12.829  -5.132   2.231  0.00  0.00    +0.068 A 
ATOM     27  C   UNL     1      13.399  -5.579   3.424  0.00  0.00    +0.137 A 
ATOM     28  N   UNL     1      12.666  -6.556   3.898  0.00  0.00    -0.170 NA
ATOM     29  H   UNL     1      10.877  -5.238   0.241  0.00  0.00    +0.167 HD
ENDBRANCH  18  19
ENDBRANCH   4  18
TORSDOF 4
