REMARK  Name = ZINC64227631
REMARK  5 active torsions:
REMARK  status: ('A' for Active; 'I' for Inactive)
REMARK    1  A    between atoms: C_1  and  C_2
REMARK    2  A    between atoms: C_2  and  C_3
REMARK    3  A    between atoms: C_8  and  N_9
REMARK    4  A    between atoms: C_10  and  C_12
REMARK    5  A    between atoms: C_15  and  O_29
REMARK                            x       y       z     vdW  Elec       q    Type
REMARK                         _______ _______ _______ _____ _____    ______ ____
ROOT
ATOM      1  C   UNL     1      -1.451  -0.272  -4.864  0.00  0.00    +0.222 C 
ATOM      2  C   UNL     1      -1.486   1.202  -5.146  0.00  0.00    +0.071 C 
ATOM      3  C   UNL     1      -2.316   1.710  -6.045  0.00  0.00    +0.182 C 
ATOM      4  N   UNL     1      -3.169   0.865  -6.751  0.00  0.00    -0.259 N 
ATOM      5  C   UNL     1      -2.909  -0.486  -6.780  0.00  0.00    +0.189 C 
ATOM      6  N   UNL     1      -2.111  -1.031  -5.919  0.00  0.00    -0.238 NA
ATOM      7  N   UNL     1      -3.508  -1.271  -7.742  0.00  0.00    -0.266 N 
ATOM      8  C   UNL     1      -3.254  -2.631  -7.782  0.00  0.00    +0.165 A 
ATOM      9  N   UNL     1      -2.486  -3.348  -6.995  0.00  0.00    -0.225 NA
ATOM     10  C   UNL     1      -2.330  -4.681  -7.152  0.00  0.00    +0.080 A 
ATOM     11  C   UNL     1      -1.539  -5.564  -6.381  0.00  0.00    +0.029 A 
ATOM     12  C   UNL     1      -1.492  -6.901  -6.677  0.00  0.00    +0.002 A 
ATOM     13  C   UNL     1      -2.212  -7.435  -7.736  0.00  0.00    +0.001 A 
ATOM     14  C   UNL     1      -2.996  -6.600  -8.511  0.00  0.00    +0.017 A 
ATOM     15  C   UNL     1      -3.050  -5.260  -8.221  0.00  0.00    +0.041 A 
ATOM     16  S   UNL     1      -3.895  -3.858  -8.912  0.00  0.00    -0.052 S 
ATOM     17  H   UNL     1      -4.108  -0.870  -8.390  0.00  0.00    +0.157 HD
ATOM     18  H   UNL     1      -3.939   1.226  -7.217  0.00  0.00    +0.158 HD
ENDROOT
BRANCH   1  20
ATOM     19  N   UNL     1      -1.505  -0.315  -2.391  0.00  0.00    -0.283 N 
ATOM     20  C   UNL     1      -2.147  -0.541  -3.555  0.00  0.00    +0.246 C 
ATOM     21  O   UNL     1      -3.285  -0.961  -3.548  0.00  0.00    -0.273 OA
ATOM     22  H   UNL     1      -0.620   0.082  -2.395  0.00  0.00    +0.155 HD
BRANCH  19  28
ATOM     23  C   UNL     1      -1.349  -1.119  -0.119  0.00  0.00    -0.026 A 
ATOM     24  C   UNL     1      -1.954  -1.445   1.079  0.00  0.00    +0.005 A 
ATOM     25  C   UNL     1      -3.322  -1.313   1.222  0.00  0.00    +0.000 A 
ATOM     26  C   UNL     1      -4.090  -0.853   0.168  0.00  0.00    +0.002 A 
ATOM     27  C   UNL     1      -3.491  -0.525  -1.033  0.00  0.00    +0.023 A 
ATOM     28  C   UNL     1      -2.116  -0.652  -1.178  0.00  0.00    +0.037 A 
BRANCH  23  30
ATOM     29  C   UNL     1       0.819   0.078   0.019  0.00  0.00    +0.009 C 
ATOM     30  C   UNL     1       0.143  -1.263  -0.275  0.00  0.00    +0.033 C 
ENDBRANCH  23  30
ENDBRANCH  19  28
ENDBRANCH   1  20
BRANCH   3  31
ATOM     31  O   UNL     1      -2.335   3.047  -6.277  0.00  0.00    -0.495 OA
ATOM     32  H   UNL     1      -2.973   3.320  -6.951  0.00  0.00    +0.293 HD
ENDBRANCH   3  31
TORSDOF 4
