REMARK  Name = ZINC05055554
REMARK  7 active torsions:
REMARK  status: ('A' for Active; 'I' for Inactive)
REMARK    1  A    between atoms: C_1  and  C_2
REMARK    2  A    between atoms: C_9  and  N_15
REMARK    3  A    between atoms: C_10  and  C_11
REMARK    4  A    between atoms: N_13  and  C_14
REMARK    5  A    between atoms: C_16  and  C_18
REMARK    6  A    between atoms: C_19  and  C_20
REMARK    7  A    between atoms: C_24  and  N_26
REMARK                            x       y       z     vdW  Elec       q    Type
REMARK                         _______ _______ _______ _____ _____    ______ ____
ROOT
ATOM      1  C   UNL     1      -2.117  15.910   0.010  0.00  0.00    +0.008 C 
ATOM      2  C   UNL     1      -2.568  14.477  -0.279  0.00  0.00    -0.009 C 
ATOM      3  C   UNL     1      -3.800  14.146   0.569  0.00  0.00    +0.008 C 
ATOM      4  C   UNL     1      -4.403  12.817   0.112  0.00  0.00    +0.037 C 
ATOM      5  C   UNL     1      -3.306  11.760   0.095  0.00  0.00    -0.023 A 
ATOM      6  C   UNL     1      -2.002  12.111   0.084  0.00  0.00    -0.004 A 
ATOM      7  S   UNL     1      -1.119  10.577   0.068  0.00  0.00    -0.077 S 
ATOM      8  C   UNL     1      -2.462   9.482   0.075  0.00  0.00    +0.085 A 
ATOM      9  C   UNL     1      -3.561  10.329   0.084  0.00  0.00    +0.069 A 
ATOM     10  C   UNL     1      -1.440  13.500   0.084  0.00  0.00    +0.046 C 
ENDROOT
BRANCH   9  11
ATOM     11  C   UNL     1      -4.929   9.801   0.086  0.00  0.00    +0.246 C 
ATOM     12  O   UNL     1      -5.492   9.576   1.141  0.00  0.00    -0.270 OA
ATOM     13  N   UNL     1      -5.561   9.565  -1.080  0.00  0.00    -0.314 N 
ATOM     14  C   UNL     1      -6.928   9.037  -1.078  0.00  0.00    +0.128 C 
ATOM     15  H   UNL     1      -5.112   9.744  -1.921  0.00  0.00    +0.149 HD
ENDBRANCH   9  11
BRANCH   8  16
ATOM     16  N   UNL     1      -2.443   8.097   0.067  0.00  0.00    -0.276 N 
ATOM     17  C   UNL     1      -1.267   7.439   0.053  0.00  0.00    +0.241 C 
ATOM     18  O   UNL     1      -0.221   8.062   0.046  0.00  0.00    -0.270 OA
ATOM     19  H   UNL     1      -3.276   7.601   0.072  0.00  0.00    +0.156 HD
BRANCH  17  20
ATOM     20  C   UNL     1      -1.247   5.976   0.045  0.00  0.00    +0.068 C 
ATOM     21  C   UNL     1      -0.070   5.317   0.030  0.00  0.00    +0.013 C 
BRANCH  21  22
ATOM     22  C   UNL     1      -0.050   3.846   0.022  0.00  0.00    -0.023 A 
ATOM     23  C   UNL     1      -1.250   3.126   0.030  0.00  0.00    +0.008 A 
ATOM     24  C   UNL     1      -1.223   1.748   0.017  0.00  0.00    +0.003 A 
ATOM     25  C   UNL     1      -0.013   1.076   0.008  0.00  0.00    +0.033 A 
ATOM     26  C   UNL     1       1.178   1.780   0.000  0.00  0.00    +0.127 A 
ATOM     27  C   UNL     1       1.168   3.159   0.007  0.00  0.00    +0.040 A 
BRANCH  26  28
ATOM     28  N   UNL     1       2.467   1.052  -0.016  0.00  0.00    +0.056 N 
ATOM     29  O   UNL     1       2.478  -0.166  -0.022  0.00  0.00    -0.126 OA
ATOM     30  O   UNL     1       3.516   1.671  -0.022  0.00  0.00    -0.126 OA
ENDBRANCH  26  28
ENDBRANCH  21  22
ENDBRANCH  17  20
ENDBRANCH   8  16
TORSDOF 5
