REMARK  Name = ZINC49546794
REMARK  6 active torsions:
REMARK  status: ('A' for Active; 'I' for Inactive)
REMARK    1  A    between atoms: C_1  and  C_2
REMARK    2  A    between atoms: C_2  and  C_4
REMARK    3  A    between atoms: C_2  and  O_22
REMARK    4  A    between atoms: C_9  and  N_10
REMARK    5  A    between atoms: N_10  and  S_11
REMARK    6  A    between atoms: S_11  and  C_14
REMARK                            x       y       z     vdW  Elec       q    Type
REMARK                         _______ _______ _______ _____ _____    ______ ____
ROOT
ATOM      1  N   UNL     1       2.832  -0.269  -0.115  0.00  0.00    -0.097 NA
ENDROOT
BRANCH   1   7
ATOM      2  C   UNL     1       0.707  -0.490  -1.238  0.00  0.00    +0.005 A 
ATOM      3  C   UNL     1      -0.021  -0.817  -2.365  0.00  0.00    +0.008 A 
ATOM      4  C   UNL     1       0.625  -1.264  -3.502  0.00  0.00    +0.000 A 
ATOM      5  C   UNL     1       2.003  -1.384  -3.517  0.00  0.00    +0.002 A 
ATOM      6  C   UNL     1       2.737  -1.058  -2.394  0.00  0.00    +0.027 A 
ATOM      7  C   UNL     1       2.092  -0.604  -1.251  0.00  0.00    +0.080 A 
BRANCH   2   9
ATOM      8  C   UNL     1      -0.019   1.526   0.010  0.00  0.00    +0.043 C 
ATOM      9  C   UNL     1       0.002  -0.004   0.002  0.00  0.00    +0.143 C 
BRANCH   9  10
ATOM     10  O   UNL     1      -1.339  -0.499   0.012  0.00  0.00    -0.387 OA
ATOM     11  H   UNL     1      -1.853  -0.225   0.784  0.00  0.00    +0.210 HD
ENDBRANCH   9  10
ENDBRANCH   2   9
ENDBRANCH   1   7
BRANCH   1  12
ATOM     12  S   UNL     1       4.482  -0.406  -0.132  0.00  0.00    +0.095 S 
ATOM     13  O   UNL     1       4.774  -1.791  -0.250  0.00  0.00    -0.148 OA
ATOM     14  O   UNL     1       4.960   0.555  -1.064  0.00  0.00    -0.148 OA
BRANCH  12  15
ATOM     15  C   UNL     1       5.064   0.098   1.453  0.00  0.00    +0.148 A 
ATOM     16  C   UNL     1       5.695  -0.809   2.290  0.00  0.00    +0.048 A 
ATOM     17  C   UNL     1       6.136  -0.367   3.529  0.00  0.00    +0.038 A 
ATOM     18  C   UNL     1       5.934   0.953   3.885  0.00  0.00    +0.127 A 
ATOM     19  N   UNL     1       5.329   1.789   3.064  0.00  0.00    -0.240 NA
ATOM     20  C   UNL     1       4.901   1.405   1.876  0.00  0.00    +0.156 A 
ATOM     21 CL   UNL     1       4.119   2.553   0.834  0.00  0.00    -0.060 Cl
ATOM     22 BR   UNL     1       7.004  -1.557   4.715  0.00  0.00    -0.049 Br
ENDBRANCH  12  15
ENDBRANCH   1  12
TORSDOF 5
