REMARK  Name = ZINC24535289
REMARK  14 active torsions:
REMARK  status: ('A' for Active; 'I' for Inactive)
REMARK    1  A    between atoms: C_1  and  C_2
REMARK    2  A    between atoms: C_2  and  C_3
REMARK    3  A    between atoms: C_3  and  C_4
REMARK    4  A    between atoms: C_4  and  C_5
REMARK    5  A    between atoms: C_5  and  N_6
REMARK    6  A    between atoms: N_6  and  C_7
REMARK    7  A    between atoms: C_8  and  N_20
REMARK    8  A    between atoms: N_9  and  C_16
REMARK    9  A    between atoms: C_16  and  C_17
REMARK   10  A    between atoms: C_17  and  C_18
REMARK   11  A    between atoms: C_18  and  C_19
REMARK   12  A    between atoms: C_21  and  C_23
REMARK   13  A    between atoms: C_23  and  S_24
REMARK   14  A    between atoms: S_24  and  C_25
REMARK                            x       y       z     vdW  Elec       q    Type
REMARK                         _______ _______ _______ _____ _____    ______ ____
ROOT
ATOM      1  N   UNL     1      -1.365  -0.513   0.014  0.00  0.00    -0.264 N 
ATOM      2  C   UNL     1      -1.864  -0.845   1.223  0.00  0.00    +0.230 C 
ATOM      3  O   UNL     1      -2.956  -1.366   1.306  0.00  0.00    -0.274 OA
ENDROOT
BRANCH   1   4
ATOM      4  C   UNL     1      -2.157  -0.668  -1.143  0.00  0.00    +0.140 A 
ATOM      5  C   UNL     1      -1.809  -1.585  -2.114  0.00  0.00    +0.127 A 
ATOM      6  N   UNL     1      -2.602  -1.714  -3.231  0.00  0.00    -0.280 N 
ATOM      7  C   UNL     1      -3.703  -0.956  -3.375  0.00  0.00    +0.331 A 
ATOM      8  O   UNL     1      -4.391  -1.085  -4.369  0.00  0.00    -0.246 OA
ATOM      9  N   UNL     1      -4.058  -0.057  -2.439  0.00  0.00    -0.273 N 
ATOM     10  H   UNL     1      -4.960   0.557  -2.580  0.00  0.00    +0.173 HD
ATOM     11  C   UNL     1      -3.319   0.105  -1.324  0.00  0.00    +0.277 A 
ATOM     12  O   UNL     1      -3.652   0.919  -0.480  0.00  0.00    -0.266 OA
BRANCH   5  13
ATOM     13  N   UNL     1      -0.683  -2.360  -1.967  0.00  0.00    -0.343 N 
ATOM     14  H   UNL     1      -0.412  -3.089  -2.745  0.00  0.00    +0.144 HD
ATOM     15  H   UNL     1      -0.054  -2.251  -1.071  0.00  0.00    +0.144 HD
ENDBRANCH   5  13
BRANCH   6  16
ATOM     16  C   UNL     1      -2.244  -2.683  -4.269  0.00  0.00    +0.128 C 
BRANCH  16  17
ATOM     17  C   UNL     1      -2.902  -4.029  -3.959  0.00  0.00    +0.021 C 
BRANCH  17  18
ATOM     18  C   UNL     1      -2.529  -5.042  -5.044  0.00  0.00    -0.002 C 
ATOM     19  C   UNL     1      -3.187  -6.388  -4.734  0.00  0.00    +0.004 C 
ENDBRANCH  17  18
ENDBRANCH  16  17
ENDBRANCH   6  16
ENDBRANCH   1   4
BRANCH   1  20
ATOM     20  C   UNL     1      -0.000   0.009  -0.097  0.00  0.00    +0.114 C 
BRANCH  20  21
ATOM     21  C   UNL     1      -0.037   1.538  -0.091  0.00  0.00    +0.019 C 
BRANCH  21  22
ATOM     22  C   UNL     1       1.388   2.083  -0.207  0.00  0.00    +0.001 C 
BRANCH  22  24
ATOM     23  C   UNL     1       2.776   4.157  -0.318  0.00  0.00    +0.004 C 
ATOM     24  C   UNL     1       1.351   3.612  -0.202  0.00  0.00    -0.003 C 
ENDBRANCH  22  24
ENDBRANCH  21  22
ENDBRANCH  20  21
ENDBRANCH   1  20
BRANCH   2  25
ATOM     25  C   UNL     1      -1.065  -0.567   2.470  0.00  0.00    +0.173 C 
BRANCH  25  26
ATOM     26  S   UNL     1      -1.996  -1.122   3.919  0.00  0.00    -0.077 S 
BRANCH  26  27
ATOM     27  C   UNL     1      -0.862  -0.689   5.196  0.00  0.00    +0.191 A 
ATOM     28  N   UNL     1      -1.179  -0.940   6.462  0.00  0.00    -0.207 NA
ATOM     29  C   UNL     1      -0.368  -0.638   7.461  0.00  0.00    +0.129 A 
ATOM     30  C   UNL     1       0.885  -0.025   7.182  0.00  0.00    +0.047 A 
ATOM     31  C   UNL     1       1.935   0.397   8.094  0.00  0.00    +0.021 A 
ATOM     32  C   UNL     1       3.046   0.960   7.597  0.00  0.00    +0.048 A 
ATOM     33  S   UNL     1       2.760   0.966   5.838  0.00  0.00    -0.077 S 
ATOM     34  C   UNL     1       1.155   0.211   5.816  0.00  0.00    +0.114 A 
ATOM     35  N   UNL     1       0.294  -0.125   4.875  0.00  0.00    -0.215 NA
ATOM     36  N   UNL     1      -0.734  -0.915   8.766  0.00  0.00    -0.343 N 
ATOM     37  H   UNL     1      -0.056  -0.661   9.593  0.00  0.00    +0.144 HD
ATOM     38  H   UNL     1      -1.704  -1.389   8.976  0.00  0.00    +0.144 HD
ENDBRANCH  26  27
ENDBRANCH  25  26
ENDBRANCH   2  25
TORSDOF 12
