REMARK  Name = ZINC04691290
REMARK  8 active torsions:
REMARK  status: ('A' for Active; 'I' for Inactive)
REMARK    1  A    between atoms: C_1  and  C_2
REMARK    2  A    between atoms: C_6  and  C_9
REMARK    3  A    between atoms: C_7  and  O_8
REMARK    4  A    between atoms: N_11  and  N_12
REMARK    5  A    between atoms: C_13  and  C_14
REMARK    6  A    between atoms: C_13  and  C_15
REMARK    7  A    between atoms: C_15  and  C_16
REMARK    8  A    between atoms: N_18  and  C_19
REMARK                            x       y       z     vdW  Elec       q    Type
REMARK                         _______ _______ _______ _____ _____    ______ ____
ROOT
ATOM      1  N   UNL     1      -2.683   5.939   2.603  0.00  0.00    -0.189 NA
ATOM      2  C   UNL     1      -1.569   5.313   2.686  0.00  0.00    +0.043 C 
ATOM      3  C   UNL     1      -0.278   6.084   2.791  0.00  0.00    +0.063 C 
ENDROOT
BRANCH   1   6
ATOM      4  C   UNL     1      -3.875   7.998   2.524  0.00  0.00    +0.267 C 
ATOM      5  O   UNL     1      -4.917   7.376   2.438  0.00  0.00    -0.268 OA
ATOM      6  N   UNL     1      -2.702   7.340   2.611  0.00  0.00    -0.203 N 
ATOM      7  H   UNL     1      -1.871   7.835   2.679  0.00  0.00    +0.178 HD
BRANCH   4  13
ATOM      8  C   UNL     1      -6.425  12.295   2.353  0.00  0.00    +0.047 C 
ATOM      9  C   UNL     1      -5.119  11.549   2.450  0.00  0.00    -0.008 A 
ATOM     10  C   UNL     1      -3.931  12.246   2.547  0.00  0.00    +0.007 A 
ATOM     11  C   UNL     1      -2.726  11.569   2.637  0.00  0.00    +0.001 A 
ATOM     12  C   UNL     1      -2.701  10.191   2.630  0.00  0.00    +0.017 A 
ATOM     13  C   UNL     1      -3.895   9.473   2.532  0.00  0.00    +0.080 A 
ATOM     14  C   UNL     1      -5.112  10.162   2.436  0.00  0.00    +0.132 A 
BRANCH  14  15
ATOM     15  O   UNL     1      -6.277   9.475   2.334  0.00  0.00    -0.506 OA
ATOM     16  H   UNL     1      -6.689   9.270   3.185  0.00  0.00    +0.292 HD
ENDBRANCH  14  15
ENDBRANCH   4  13
ENDBRANCH   1   6
BRANCH   2  17
ATOM     17  C   UNL     1      -1.549   3.806   2.677  0.00  0.00    +0.147 C 
BRANCH  17  18
ATOM     18  C   UNL     1      -0.843   3.320   1.438  0.00  0.00    +0.219 C 
ATOM     19  O   UNL     1      -0.401   4.119   0.639  0.00  0.00    -0.275 OA
ATOM     20  N   UNL     1      -0.704   1.998   1.216  0.00  0.00    -0.309 N 
ATOM     21  H   UNL     1      -1.058   1.359   1.854  0.00  0.00    +0.149 HD
BRANCH  20  22
ATOM     22  C   UNL     1      -0.019   1.526   0.010  0.00  0.00    +0.035 C 
ATOM     23  C   UNL     1       1.417   2.055  -0.000  0.00  0.00    +0.029 C 
ATOM     24  C   UNL     1       2.133   1.562  -1.259  0.00  0.00    -0.008 C 
ATOM     25  C   UNL     1       2.154   0.032  -1.268  0.00  0.00    +0.007 C 
ATOM     26  C   UNL     1       0.718  -0.497  -1.257  0.00  0.00    -0.008 C 
ATOM     27  C   UNL     1       0.002  -0.004   0.002  0.00  0.00    +0.029 C 
ATOM     28  C   UNL     1      -0.022   0.009  -2.496  0.00  0.00    +0.007 C 
ATOM     29  C   UNL     1      -0.043   1.539  -2.488  0.00  0.00    -0.008 C 
ATOM     30  C   UNL     1       1.393   2.069  -2.499  0.00  0.00    +0.007 C 
ATOM     31  C   UNL     1      -0.759   2.033  -1.229  0.00  0.00    +0.029 C 
ENDBRANCH  20  22
ENDBRANCH  17  18
ENDBRANCH   2  17
TORSDOF 6
