REMARK  Name = ZINC12317161
REMARK  6 active torsions:
REMARK  status: ('A' for Active; 'I' for Inactive)
REMARK    1  A    between atoms: C_1  and  C_2
REMARK    2  A    between atoms: C_4  and  C_10
REMARK    3  A    between atoms: C_7  and  O_8
REMARK    4  A    between atoms: O_8  and  C_9
REMARK    5  A    between atoms: C_24  and  C_25
REMARK    6  A    between atoms: C_24  and  N_52
REMARK                            x       y       z     vdW  Elec       q    Type
REMARK                         _______ _______ _______ _____ _____    ______ ____
ROOT
ATOM      1  C   UNL     1       3.620   4.891   0.003  0.00  0.00    +0.011 C 
ATOM      2  C   UNL     1       2.880   3.574  -0.004  0.00  0.00    +0.011 A 
ATOM      3  C   UNL     1       1.534   3.489   0.007  0.00  0.00    -0.022 A 
ATOM      4  C   UNL     1       1.185   2.074   0.002  0.00  0.00    +0.003 A 
ATOM      5  C   UNL     1      -0.016   1.362   0.009  0.00  0.00    +0.010 A 
ATOM      6  C   UNL     1       0.002  -0.004   0.002  0.00  0.00    +0.001 A 
ATOM      7  C   UNL     1       1.207  -0.694  -0.013  0.00  0.00    +0.002 A 
ATOM      8  C   UNL     1       2.404  -0.013  -0.022  0.00  0.00    +0.026 A 
ATOM      9  C   UNL     1       2.410   1.378  -0.014  0.00  0.00    +0.047 A 
ATOM     10  N   UNL     1       3.417   2.320  -0.018  0.00  0.00    -0.359 N 
ATOM     11  H   UNL     1       4.366   2.121  -0.029  0.00  0.00    +0.166 HD
ATOM     12  C   UNL     1       0.619   4.687   0.021  0.00  0.00    +0.019 C 
ATOM     13  C   UNL     1       1.448   5.918  -0.369  0.00  0.00    -0.072 C 
ATOM     14  N   UNL     1       2.678   5.943   0.455  0.00  0.00    +0.392 N 
ATOM     15  H   UNL     1       2.425   5.765   1.434  0.00  0.00    -0.080 HD
ENDROOT
BRANCH   1  19
ATOM     16  C   UNL     1       8.510   4.282   0.871  0.00  0.00    +0.047 C 
ATOM     17  C   UNL     1       7.114   4.528   1.384  0.00  0.00    -0.009 A 
ATOM     18  C   UNL     1       6.054   4.594   0.500  0.00  0.00    +0.009 A 
ATOM     19  C   UNL     1       4.774   4.820   0.969  0.00  0.00    -0.055 A 
ATOM     20  C   UNL     1       4.551   4.987   2.324  0.00  0.00    +0.006 A 
ATOM     21  C   UNL     1       5.606   4.916   3.212  0.00  0.00    +0.046 A 
ATOM     22  C   UNL     1       6.893   4.689   2.744  0.00  0.00    +0.123 A 
BRANCH  22  23
ATOM     23  O   UNL     1       7.933   4.625   3.615  0.00  0.00    -0.495 OA
ATOM     24  C   UNL     1       7.631   4.800   5.001  0.00  0.00    +0.277 C 
ENDBRANCH  22  23
ENDBRANCH   1  19
BRANCH  14  25
ATOM     25  C   UNL     1       3.321   7.270   0.360  0.00  0.00    -0.019 C 
BRANCH  25  26
ATOM     26  C   UNL     1       2.277   8.339   0.557  0.00  0.00    +0.046 A 
ATOM     27  C   UNL     1       1.953   8.955   1.770  0.00  0.00    +0.042 A 
ATOM     28  C   UNL     1       0.974   9.858   1.531  0.00  0.00    +0.105 A 
ATOM     29  N   UNL     1       0.683   9.809   0.214  0.00  0.00    -0.285 N 
ATOM     30  H   UNL     1      -0.005  10.360  -0.258  0.00  0.00    +0.188 HD
ATOM     31  N   UNL     1       1.514   8.848  -0.376  0.00  0.00    -0.181 NA
ENDBRANCH  25  26
ENDBRANCH  14  25
TORSDOF 4
