REMARK  Name = ZINC46729227
REMARK  6 active torsions:
REMARK  status: ('A' for Active; 'I' for Inactive)
REMARK    1  A    between atoms: C_1  and  C_2
REMARK    2  A    between atoms: C_2  and  N_3
REMARK    3  A    between atoms: N_3  and  C_4
REMARK    4  A    between atoms: C_4  and  C_5
REMARK    5  A    between atoms: C_11  and  C_14
REMARK    6  A    between atoms: N_16  and  C_17
REMARK                            x       y       z     vdW  Elec       q    Type
REMARK                         _______ _______ _______ _____ _____    ______ ____
ROOT
ATOM      1  C   UNL     1      -4.793   0.613  -0.442  0.00  0.00    +0.220 C 
ATOM      2  O   UNL     1      -4.802   0.298   0.729  0.00  0.00    -0.275 OA
ATOM      3  N   UNL     1      -5.942   0.619  -1.147  0.00  0.00    -0.285 N 
ATOM      4  H   UNL     1      -5.925   0.796  -2.100  0.00  0.00    +0.155 HD
ENDROOT
BRANCH   3   5
ATOM      5  C   UNL     1      -7.160   0.368  -0.503  0.00  0.00    +0.037 A 
ATOM      6  C   UNL     1      -8.171  -0.312  -1.169  0.00  0.00    +0.027 A 
ATOM      7  C   UNL     1      -9.373  -0.560  -0.535  0.00  0.00    +0.051 A 
ATOM      8  C   UNL     1      -9.574  -0.131   0.767  0.00  0.00    +0.173 A 
ATOM      9  C   UNL     1      -8.562   0.552   1.438  0.00  0.00    +0.174 A 
ATOM     10  C   UNL     1      -7.356   0.795   0.803  0.00  0.00    +0.073 A 
ATOM     11  O   UNL     1      -9.003   0.864   2.692  0.00  0.00    -0.395 OA
ATOM     12  C   UNL     1     -10.436   0.727   2.641  0.00  0.00    +0.589 C 
ATOM     13  O   UNL     1     -10.649  -0.246   1.601  0.00  0.00    -0.395 OA
ATOM     14  F   UNL     1     -11.034   1.946   2.304  0.00  0.00    -0.125 F 
ATOM     15  F   UNL     1     -10.928   0.257   3.863  0.00  0.00    -0.125 F 
ENDBRANCH   3   5
BRANCH   1  22
ATOM     16  N   UNL     1       0.559  -0.734  -3.352  0.00  0.00    -0.286 N 
ATOM     17  C   UNL     1       0.300  -0.165  -2.158  0.00  0.00    +0.305 C 
ATOM     18  O   UNL     1       1.101  -0.267  -1.249  0.00  0.00    -0.252 OA
ATOM     19  N   UNL     1      -0.847   0.518  -1.972  0.00  0.00    -0.285 N 
ATOM     20  C   UNL     1      -1.046   1.333  -0.766  0.00  0.00    +0.110 C 
ATOM     21  C   UNL     1      -2.356   0.908  -0.094  0.00  0.00    +0.032 C 
ATOM     22  C   UNL     1      -3.498   0.998  -1.109  0.00  0.00    +0.078 C 
ATOM     23  C   UNL     1      -3.222   0.046  -2.275  0.00  0.00    +0.032 C 
ATOM     24  C   UNL     1      -1.920   0.466  -2.974  0.00  0.00    +0.110 C 
BRANCH  16  26
ATOM     25  C   UNL     1       2.913  -1.125  -3.889  0.00  0.00    +0.024 C 
ATOM     26  C   UNL     1       1.592  -1.768  -3.462  0.00  0.00    +0.106 C 
ENDBRANCH  16  26
BRANCH  16  27
ATOM     27  C   UNL     1      -0.191  -0.320  -4.540  0.00  0.00    +0.106 C 
ATOM     28  C   UNL     1      -1.062  -1.481  -5.024  0.00  0.00    +0.024 C 
ENDBRANCH  16  27
ENDBRANCH   1  22
TORSDOF 4
