REMARK  Name = ZINC12477590
REMARK  14 active torsions:
REMARK  status: ('A' for Active; 'I' for Inactive)
REMARK    1  A    between atoms: C_1  and  C_2
REMARK    2  A    between atoms: C_5  and  N_8
REMARK    3  A    between atoms: N_8  and  C_9
REMARK    4  A    between atoms: C_9  and  C_11
REMARK    5  A    between atoms: C_9  and  C_18
REMARK    6  A    between atoms: C_14  and  O_17
REMARK    7  A    between atoms: N_20  and  C_21
REMARK    8  A    between atoms: C_21  and  C_22
REMARK    9  A    between atoms: C_21  and  C_23
REMARK   10  A    between atoms: C_21  and  C_24
REMARK   11  A    between atoms: C_25  and  C_27
REMARK   12  A    between atoms: C_27  and  N_28
REMARK   13  A    between atoms: C_30  and  C_33
REMARK   14  A    between atoms: C_36  and  C_38
REMARK                            x       y       z     vdW  Elec       q    Type
REMARK                         _______ _______ _______ _____ _____    ______ ____
ROOT
ATOM      1  N   UNL     1       1.317   1.845   0.481  0.00  0.00    -0.254 N 
ATOM      2  C   UNL     1       0.359   1.020   0.949  0.00  0.00    +0.244 C 
ATOM      3  O   UNL     1       0.408  -0.167   0.701  0.00  0.00    -0.273 OA
ENDROOT
BRANCH   1   8
ATOM      4  C   UNL     1       0.894   7.441   1.313  0.00  0.00    +0.044 C 
ATOM      5  C   UNL     1       1.006   5.954   1.092  0.00  0.00    -0.050 A 
ATOM      6  C   UNL     1       0.140   5.319   0.222  0.00  0.00    +0.005 A 
ATOM      7  C   UNL     1       0.240   3.957   0.017  0.00  0.00    +0.024 A 
ATOM      8  C   UNL     1       1.213   3.225   0.687  0.00  0.00    +0.038 A 
ATOM      9  C   UNL     1       2.077   3.865   1.564  0.00  0.00    +0.024 A 
ATOM     10  C   UNL     1       1.976   5.229   1.760  0.00  0.00    +0.005 A 
ENDBRANCH   1   8
BRANCH   1  11
ATOM     11  C   UNL     1       2.467   1.297  -0.241  0.00  0.00    +0.197 C 
BRANCH  11  12
ATOM     12  C   UNL     1       3.465   2.396  -0.505  0.00  0.00    -0.018 A 
ATOM     13  C   UNL     1       3.075   3.531  -1.191  0.00  0.00    +0.009 A 
ATOM     14  C   UNL     1       3.986   4.542  -1.429  0.00  0.00    +0.046 A 
ATOM     15  C   UNL     1       5.296   4.412  -0.990  0.00  0.00    +0.117 A 
ATOM     16  C   UNL     1       5.685   3.269  -0.307  0.00  0.00    +0.046 A 
ATOM     17  C   UNL     1       4.769   2.264  -0.066  0.00  0.00    +0.009 A 
BRANCH  15  18
ATOM     18  O   UNL     1       6.195   5.402  -1.228  0.00  0.00    -0.507 OA
ATOM     19  H   UNL     1       6.674   5.306  -2.063  0.00  0.00    +0.292 HD
ENDBRANCH  15  18
ENDBRANCH  11  12
BRANCH  11  20
ATOM     20  C   UNL     1       2.006   0.713  -1.552  0.00  0.00    +0.239 C 
ATOM     21  O   UNL     1       0.831   0.750  -1.852  0.00  0.00    -0.273 OA
ATOM     22  N   UNL     1       2.898   0.148  -2.389  0.00  0.00    -0.309 N 
ATOM     23  H   UNL     1       3.837   0.118  -2.149  0.00  0.00    +0.149 HD
BRANCH  22  24
ATOM     24  C   UNL     1       2.449  -0.420  -3.663  0.00  0.00    +0.026 C 
ATOM     25  C   UNL     1       1.791   0.674  -4.506  0.00  0.00    +0.031 C 
ATOM     26  C   UNL     1       3.651  -0.992  -4.418  0.00  0.00    +0.031 C 
ATOM     27  C   UNL     1       1.437  -1.535  -3.395  0.00  0.00    +0.031 C 
ENDBRANCH  22  24
ENDBRANCH  11  20
ENDBRANCH   1  11
BRANCH   2  28
ATOM     28  C   UNL     1      -0.775   1.572   1.773  0.00  0.00    +0.264 C 
BRANCH  28  29
ATOM     29  N   UNL     1      -1.606   0.469   2.262  0.00  0.00    -0.154 N 
ATOM     30  N   UNL     1      -2.627  -0.023   1.649  0.00  0.00    -0.127 NA
ATOM     31  C   UNL     1      -3.113  -0.998   2.393  0.00  0.00    +0.239 A 
ATOM     32  N   UNL     1      -2.340  -1.066   3.489  0.00  0.00    -0.105 NA
ATOM     33  N   UNL     1      -1.433  -0.157   3.373  0.00  0.00    -0.045 NA
BRANCH  31  34
ATOM     34  C   UNL     1      -4.284  -1.848   2.083  0.00  0.00    +0.175 A 
ATOM     35  C   UNL     1      -4.770  -2.849   2.862  0.00  0.00    +0.053 A 
ATOM     36  C   UNL     1      -5.886  -3.383   2.186  0.00  0.00    +0.045 A 
ATOM     37  C   UNL     1      -6.018  -2.693   1.036  0.00  0.00    +0.103 A 
ATOM     38  O   UNL     1      -5.048  -1.767   0.978  0.00  0.00    -0.457 OA
ATOM     39  C   UNL     1      -7.077  -2.924  -0.010  0.00  0.00    +0.086 C 
ENDBRANCH  31  34
ENDBRANCH  28  29
ENDBRANCH   2  28
TORSDOF 9
