REMARK  Name = ZINC05296352
REMARK  9 active torsions:
REMARK  status: ('A' for Active; 'I' for Inactive)
REMARK    1  A    between atoms: C_1  and  C_2
REMARK    2  A    between atoms: C_3  and  C_16
REMARK    3  A    between atoms: C_4  and  C_10
REMARK    4  A    between atoms: N_18  and  N_19
REMARK    5  A    between atoms: C_20  and  C_21
REMARK    6  A    between atoms: C_24  and  O_29
REMARK    7  A    between atoms: C_26  and  O_27
REMARK    8  A    between atoms: O_27  and  C_28
REMARK    9  A    between atoms: O_29  and  C_30
REMARK                            x       y       z     vdW  Elec       q    Type
REMARK                         _______ _______ _______ _____ _____    ______ ____
ROOT
ATOM      1  C   UNL     1      -0.825  -1.308  -2.645  0.00  0.00    +0.061 C 
ATOM      2  C   UNL     1      -0.319  -1.336  -1.226  0.00  0.00    +0.017 C 
ATOM      3  C   UNL     1      -1.077  -0.812  -0.240  0.00  0.00    +0.057 C 
ATOM      4  C   UNL     1      -0.531  -0.861   1.172  0.00  0.00    +0.139 C 
ATOM      5  N   UNL     1       0.793  -1.480   1.354  0.00  0.00    -0.315 N 
ATOM      6  C   UNL     1       1.431  -1.960   0.269  0.00  0.00    +0.135 C 
ATOM      7  S   UNL     1       2.971  -2.683   0.466  0.00  0.00    -0.019 S 
ATOM      8  N   UNL     1       0.898  -1.895  -0.958  0.00  0.00    -0.300 N 
ATOM      9  H   UNL     1       1.196  -1.540   2.234  0.00  0.00    +0.149 HD
ATOM     10  H   UNL     1       1.407  -2.263  -1.698  0.00  0.00    +0.154 HD
ENDROOT
BRANCH   4  11
ATOM     11  C   UNL     1      -1.517  -1.615   2.026  0.00  0.00    -0.023 A 
ATOM     12  C   UNL     1      -1.620  -2.989   1.914  0.00  0.00    +0.006 A 
ATOM     13  C   UNL     1      -2.524  -3.681   2.697  0.00  0.00    +0.000 A 
ATOM     14  C   UNL     1      -3.326  -2.999   3.593  0.00  0.00    +0.000 A 
ATOM     15  C   UNL     1      -3.223  -1.625   3.706  0.00  0.00    +0.000 A 
ATOM     16  C   UNL     1      -2.315  -0.934   2.926  0.00  0.00    +0.006 A 
ENDBRANCH   4  11
BRANCH   3  17
ATOM     17  C   UNL     1      -2.341  -0.236  -0.517  0.00  0.00    +0.263 C 
ATOM     18  O   UNL     1      -2.465   0.975  -0.548  0.00  0.00    -0.269 OA
ATOM     19  N   UNL     1      -3.407  -1.029  -0.746  0.00  0.00    -0.203 N 
ATOM     20  H   UNL     1      -3.327  -1.990  -0.648  0.00  0.00    +0.178 HD
BRANCH  19  21
ATOM     21  N   UNL     1      -4.632  -0.463  -1.124  0.00  0.00    -0.187 NA
ATOM     22  C   UNL     1      -5.659  -1.227  -1.344  0.00  0.00    +0.142 C 
BRANCH  22  23
ATOM     23  C   UNL     1      -6.947  -0.632  -1.742  0.00  0.00    +0.036 A 
ATOM     24  C   UNL     1      -8.056  -1.450  -1.974  0.00  0.00    +0.016 A 
ATOM     25  C   UNL     1      -9.258  -0.890  -2.346  0.00  0.00    +0.046 A 
ATOM     26  C   UNL     1      -9.373   0.487  -2.491  0.00  0.00    +0.124 A 
ATOM     27  C   UNL     1      -8.279   1.308  -2.263  0.00  0.00    +0.091 A 
ATOM     28  C   UNL     1      -7.067   0.758  -1.883  0.00  0.00    +0.132 A 
BRANCH  28  29
ATOM     29  O   UNL     1      -5.996   1.561  -1.653  0.00  0.00    -0.494 OA
ATOM     30  C   UNL     1      -6.193   2.967  -1.816  0.00  0.00    +0.277 C 
ENDBRANCH  28  29
BRANCH  26  31
ATOM     31  O   UNL     1     -10.562   1.031  -2.859  0.00  0.00    -0.495 OA
ATOM     32  C   UNL     1     -11.649   0.129  -3.079  0.00  0.00    +0.277 C 
ENDBRANCH  26  31
ENDBRANCH  22  23
ENDBRANCH  19  21
ENDBRANCH   3  17
TORSDOF 6
