REMARK  Name = ZINC21263824
REMARK  15 active torsions:
REMARK  status: ('A' for Active; 'I' for Inactive)
REMARK    1  A    between atoms: C_1  and  C_2
REMARK    2  A    between atoms: C_2  and  C_3
REMARK    3  A    between atoms: C_6  and  C_9
REMARK    4  A    between atoms: C_9  and  N_10
REMARK    5  A    between atoms: N_10  and  C_11
REMARK    6  A    between atoms: N_10  and  C_20
REMARK    7  A    between atoms: C_11  and  C_12
REMARK    8  A    between atoms: C_12  and  C_13
REMARK    9  A    between atoms: C_13  and  N_14
REMARK   10  A    between atoms: C_20  and  N_22
REMARK   11  A    between atoms: N_22  and  C_23
REMARK   12  A    between atoms: C_25  and  C_31
REMARK   13  A    between atoms: C_25  and  C_32
REMARK   14  A    between atoms: C_27  and  C_29
REMARK   15  A    between atoms: C_27  and  C_30
REMARK                            x       y       z     vdW  Elec       q    Type
REMARK                         _______ _______ _______ _____ _____    ______ ____
ROOT
ATOM      1  N   UNL     1       0.106   7.051  -2.376  0.00  0.00    -0.308 N 
ENDROOT
BRANCH   1   2
ATOM      2  C   UNL     1       0.113   5.703  -2.353  0.00  0.00    +0.133 C 
ATOM      3  S   UNL     1      -0.229   4.821  -3.780  0.00  0.00    -0.019 S 
BRANCH   2   4
ATOM      4  N   UNL     1       0.389   5.051  -1.207  0.00  0.00    -0.324 N 
ATOM      5  H   UNL     1       0.608   5.617  -0.290  0.00  0.00    +0.148 HD
BRANCH   4   6
ATOM      6  C   UNL     1       0.396   3.583  -1.181  0.00  0.00    +0.069 C 
ATOM      7  C   UNL     1       1.298   3.104  -0.042  0.00  0.00    +0.009 C 
ATOM      8  C   UNL     1       1.320   1.577  -0.002  0.00  0.00    -0.072 C 
ATOM      9  N   UNL     1      -0.012   1.005   0.008  0.00  0.00    +0.386 N 
ATOM     10  C   UNL     1      -1.042   1.551  -0.852  0.00  0.00    -0.072 C 
ATOM     11  C   UNL     1      -1.022   3.076  -0.918  0.00  0.00    +0.009 C 
ATOM     12  C   UNL     1      -0.944   0.975  -2.269  0.00  0.00    -0.010 C 
ATOM     13  C   UNL     1      -2.415   1.129  -0.282  0.00  0.00    -0.010 C 
ATOM     14  C   UNL     1       2.035   1.156   1.301  0.00  0.00    -0.010 C 
ATOM     15  C   UNL     1       2.151   1.041  -1.172  0.00  0.00    -0.010 C 
ATOM     16  H   UNL     1       0.042  -0.055  -0.283  0.00  0.00    -0.084 HD
ATOM     17  H   UNL     1      -0.438   1.086   1.018  0.00  0.00    -0.084 HD
ENDBRANCH   4   6
ENDBRANCH   2   4
ENDBRANCH   1   2
BRANCH   1  18
ATOM     18  C   UNL     1      -0.194   7.761  -3.622  0.00  0.00    +0.141 C 
BRANCH  18  22
ATOM     19  C   UNL     1      -4.401   8.447  -3.894  0.00  0.00    -0.048 A 
ATOM     20  C   UNL     1      -3.586   9.383  -3.285  0.00  0.00    +0.004 A 
ATOM     21  C   UNL     1      -2.224   9.161  -3.198  0.00  0.00    +0.005 A 
ATOM     22  C   UNL     1      -1.678   8.002  -3.718  0.00  0.00    -0.030 A 
ATOM     23  C   UNL     1      -2.493   7.069  -4.331  0.00  0.00    +0.005 A 
ATOM     24  C   UNL     1      -3.855   7.289  -4.415  0.00  0.00    +0.004 A 
BRANCH  19  26
ATOM     25  C   UNL     1      -6.200   9.430  -5.289  0.00  0.00    +0.009 C 
ATOM     26  C   UNL     1      -5.886   8.688  -3.989  0.00  0.00    +0.032 C 
ENDBRANCH  19  26
ENDBRANCH  18  22
ENDBRANCH   1  18
BRANCH   1  27
ATOM     27  C   UNL     1       0.398   7.806  -1.155  0.00  0.00    +0.108 C 
BRANCH  27  28
ATOM     28  C   UNL     1       1.903   8.070  -1.067  0.00  0.00    +0.034 C 
BRANCH  28  29
ATOM     29  C   UNL     1       2.208   8.859   0.208  0.00  0.00    +0.086 C 
BRANCH  29  30
ATOM     30  N   UNL     1       3.653   9.113   0.293  0.00  0.00    -0.298 NA
ATOM     31  C   UNL     1       4.398   7.859   0.478  0.00  0.00    +0.112 C 
ATOM     32  C   UNL     1       5.898   8.162   0.501  0.00  0.00    +0.175 C 
ATOM     33  O   UNL     1       6.172   9.112   1.535  0.00  0.00    -0.377 OA
ATOM     34  C   UNL     1       5.463  10.345   1.385  0.00  0.00    +0.175 C 
ATOM     35  C   UNL     1       3.958  10.064   1.371  0.00  0.00    +0.112 C 
ENDBRANCH  29  30
ENDBRANCH  28  29
ENDBRANCH  27  28
ENDBRANCH   1  27
TORSDOF 10
