REMARK  Name = ZINC02755101
REMARK  8 active torsions:
REMARK  status: ('A' for Active; 'I' for Inactive)
REMARK    1  A    between atoms: C_1  and  C_2
REMARK    2  A    between atoms: C_2  and  C_3
REMARK    3  A    between atoms: C_5  and  C_8
REMARK    4  A    between atoms: N_10  and  N_11
REMARK    5  A    between atoms: C_12  and  C_14
REMARK    6  A    between atoms: C_17  and  C_25
REMARK    7  A    between atoms: C_18  and  C_24
REMARK    8  A    between atoms: C_20  and  C_22
REMARK                            x       y       z     vdW  Elec       q    Type
REMARK                         _______ _______ _______ _____ _____    ______ ____
ROOT
ATOM      1  N   UNL     1       1.151   1.898   0.181  0.00  0.00    -0.234 N 
ATOM      2  C   UNL     1       2.284   1.171   0.129  0.00  0.00    +0.233 C 
ATOM      3  O   UNL     1       2.229  -0.041   0.149  0.00  0.00    -0.274 OA
ATOM      4  H   UNL     1       1.194   2.867   0.165  0.00  0.00    +0.173 HD
ENDROOT
BRANCH   2   5
ATOM      5  C   UNL     1       3.620   1.863   0.044  0.00  0.00    +0.095 C 
ATOM      6  C   UNL     1       3.814   2.757   1.270  0.00  0.00    +0.044 C 
ATOM      7  C   UNL     1       5.233   3.243   1.336  0.00  0.00    -0.073 C 
ATOM      8  C   UNL     1       6.214   2.709   0.682  0.00  0.00    -0.073 C 
ATOM      9  C   UNL     1       6.067   1.536  -0.242  0.00  0.00    +0.046 C 
ATOM     10  C   UNL     1       4.742   0.818   0.023  0.00  0.00    +0.118 C 
ATOM     11  C   UNL     1       7.588   3.302   0.859  0.00  0.00    +0.039 C 
ATOM     12  C   UNL     1       5.534   4.426   2.220  0.00  0.00    +0.039 C 
BRANCH  10  13
ATOM     13  C   UNL     1       4.481  -0.184  -1.072  0.00  0.00    +0.360 C 
ATOM     14  O   UNL     1       3.498  -0.077  -1.767  0.00  0.00    -0.246 OA
ATOM     15  O   UNL     1       5.339  -1.196  -1.275  0.00  0.00    -0.246 OA
ENDBRANCH  10  13
ENDBRANCH   2   5
BRANCH   1  18
ATOM     16  C   UNL     1      -1.225   1.981   0.307  0.00  0.00    +0.261 C 
ATOM     17  O   UNL     1      -1.170   3.196   0.287  0.00  0.00    -0.269 OA
ATOM     18  N   UNL     1      -0.091   1.254   0.260  0.00  0.00    -0.230 N 
ATOM     19  H   UNL     1      -0.135   0.285   0.276  0.00  0.00    +0.173 HD
BRANCH  16  22
ATOM     20  C   UNL     1      -4.906   1.341   0.504  0.00  0.00    -0.010 A 
ATOM     21  C   UNL     1      -3.762   2.051   0.442  0.00  0.00    +0.024 A 
ATOM     22  C   UNL     1      -2.530   1.305   0.384  0.00  0.00    +0.045 A 
ATOM     23  C   UNL     1      -2.628  -0.071   0.409  0.00  0.00    +0.058 A 
ATOM     24  S   UNL     1      -4.336  -0.346   0.500  0.00  0.00    -0.101 S 
BRANCH  20  26
ATOM     25  C   UNL     1      -6.876   2.002  -0.850  0.00  0.00    +0.009 C 
ATOM     26  C   UNL     1      -6.323   1.851   0.569  0.00  0.00    +0.039 C 
ENDBRANCH  20  26
ENDBRANCH  16  22
ENDBRANCH   1  18
TORSDOF 5
