REMARK  Name = ZINC15004701
REMARK  5 active torsions:
REMARK  status: ('A' for Active; 'I' for Inactive)
REMARK    1  A    between atoms: C_1  and  C_2
REMARK    2  A    between atoms: C_6  and  C_29
REMARK    3  A    between atoms: C_16  and  N_57
REMARK    4  A    between atoms: C_20  and  C_21
REMARK    5  A    between atoms: C_20  and  N_57
REMARK                            x       y       z     vdW  Elec       q    Type
REMARK                         _______ _______ _______ _____ _____    ______ ____
ROOT
ATOM      1  C   UNL     1       2.492   1.020  -0.016  0.00  0.00    +0.044 C 
ATOM      2  C   UNL     1       1.190   1.779   0.000  0.00  0.00    -0.048 A 
ATOM      3  C   UNL     1      -0.013   1.076   0.008  0.00  0.00    +0.004 A 
ATOM      4  C   UNL     1      -1.207   1.731   0.017  0.00  0.00    +0.012 A 
ATOM      5  C   UNL     1      -1.226   3.133   0.030  0.00  0.00    +0.022 A 
ATOM      6  C   UNL     1      -2.428   3.864   0.045  0.00  0.00    +0.051 A 
ATOM      7  N   UNL     1      -2.364   5.179   0.052  0.00  0.00    -0.219 NA
ATOM      8  C   UNL     1      -1.196   5.820   0.044  0.00  0.00    +0.219 A 
ATOM      9  N   UNL     1      -0.039   5.188   0.029  0.00  0.00    -0.214 NA
ATOM     10  C   UNL     1      -0.002   3.850   0.022  0.00  0.00    +0.077 A 
ATOM     11  C   UNL     1       1.209   3.141   0.007  0.00  0.00    +0.032 A 
ATOM     12  N   UNL     1      -1.198   7.203   0.051  0.00  0.00    -0.300 N 
ATOM     13  C   UNL     1      -0.323   7.727   1.119  0.00  0.00    +0.108 C 
ATOM     14  C   UNL     1       0.216   9.061   0.667  0.00  0.00    +0.017 C 
ATOM     15  C   UNL     1      -0.634  10.227   1.200  0.00  0.00    -0.014 C 
ATOM     16  C   UNL     1      -2.143   9.919   1.130  0.00  0.00    -0.070 C 
ATOM     17  C   UNL     1      -2.535   9.230  -0.152  0.00  0.00    +0.003 C 
ATOM     18  C   UNL     1      -2.504   7.702   0.067  0.00  0.00    +0.106 C 
ATOM     19  C   UNL     1      -3.760   3.158   0.053  0.00  0.00    +0.066 C 
ENDROOT
BRANCH  16  20
ATOM     20  N   UNL     1      -2.885  11.190   1.236  0.00  0.00    +0.381 N 
ATOM     21  H   UNL     1      -2.998  11.595   0.299  0.00  0.00    -0.086 HD
ATOM     22  H   UNL     1      -2.357  11.841   1.829  0.00  0.00    -0.086 HD
BRANCH  20  23
ATOM     23  C   UNL     1      -4.215  10.958   1.830  0.00  0.00    -0.077 C 
BRANCH  23  24
ATOM     24  C   UNL     1      -4.959  12.291   1.927  0.00  0.00    -0.006 C 
ATOM     25  C   UNL     1      -6.295  12.078   2.659  0.00  0.00    +0.026 C 
ATOM     26  C   UNL     1      -7.160  13.357   2.469  0.00  0.00    +0.166 C 
ATOM     27  S   UNL     1      -6.810  13.742   0.702  0.00  0.00    -0.031 S 
ATOM     28  O   UNL     1      -7.798  13.124  -0.111  0.00  0.00    -0.174 OA
ATOM     29  O   UNL     1      -6.569  15.136   0.572  0.00  0.00    -0.174 OA
ATOM     30  C   UNL     1      -5.220  12.839   0.503  0.00  0.00    +0.167 C 
ENDBRANCH  23  24
ENDBRANCH  20  23
ENDBRANCH  16  20
TORSDOF 3
