REMARK  Name = ZINC20895095
REMARK  12 active torsions:
REMARK  status: ('A' for Active; 'I' for Inactive)
REMARK    1  A    between atoms: C_1  and  O_2
REMARK    2  A    between atoms: O_2  and  C_3
REMARK    3  A    between atoms: C_3  and  C_4
REMARK    4  A    between atoms: C_4  and  C_5
REMARK    5  A    between atoms: C_5  and  N_6
REMARK    6  A    between atoms: N_6  and  C_7
REMARK    7  A    between atoms: C_8  and  N_23
REMARK    8  A    between atoms: N_9  and  C_16
REMARK    9  A    between atoms: C_16  and  C_17
REMARK   10  A    between atoms: C_24  and  C_26
REMARK   11  A    between atoms: C_26  and  S_27
REMARK   12  A    between atoms: S_27  and  C_28
REMARK                            x       y       z     vdW  Elec       q    Type
REMARK                         _______ _______ _______ _____ _____    ______ ____
ROOT
ATOM      1  N   UNL     1       2.359   3.681   0.046  0.00  0.00    -0.263 N 
ATOM      2  C   UNL     1       2.319   5.023  -0.093  0.00  0.00    +0.230 C 
ATOM      3  O   UNL     1       1.252   5.598  -0.129  0.00  0.00    -0.274 OA
ENDROOT
BRANCH   1   4
ATOM      4  C   UNL     1       1.160   2.937   0.045  0.00  0.00    +0.140 A 
ATOM      5  C   UNL     1       0.748   2.269   1.181  0.00  0.00    +0.128 A 
ATOM      6  N   UNL     1      -0.425   1.552   1.149  0.00  0.00    -0.276 N 
ATOM      7  C   UNL     1      -1.165   1.506   0.027  0.00  0.00    +0.331 A 
ATOM      8  O   UNL     1      -2.202   0.870   0.021  0.00  0.00    -0.246 OA
ATOM      9  N   UNL     1      -0.777   2.146  -1.090  0.00  0.00    -0.273 N 
ATOM     10  H   UNL     1      -1.393   2.089  -2.000  0.00  0.00    +0.173 HD
ATOM     11  C   UNL     1       0.364   2.863  -1.113  0.00  0.00    +0.277 A 
ATOM     12  O   UNL     1       0.704   3.443  -2.130  0.00  0.00    -0.266 OA
BRANCH   5  13
ATOM     13  N   UNL     1       1.502   2.319   2.329  0.00  0.00    -0.343 N 
ATOM     14  H   UNL     1       1.168   1.784   3.230  0.00  0.00    +0.144 HD
ATOM     15  H   UNL     1       2.439   2.894   2.347  0.00  0.00    +0.144 HD
ENDBRANCH   5  13
BRANCH   6  16
ATOM     16  C   UNL     1      -0.874   0.838   2.347  0.00  0.00    +0.163 C 
BRANCH  16  17
ATOM     17  C   UNL     1      -1.744   1.746   3.177  0.00  0.00    -0.028 A 
ATOM     18  C   UNL     1      -1.178   2.544   4.153  0.00  0.00    +0.005 A 
ATOM     19  C   UNL     1      -1.975   3.381   4.911  0.00  0.00    +0.000 A 
ATOM     20  C   UNL     1      -3.341   3.412   4.699  0.00  0.00    +0.000 A 
ATOM     21  C   UNL     1      -3.908   2.611   3.726  0.00  0.00    +0.000 A 
ATOM     22  C   UNL     1      -3.110   1.778   2.965  0.00  0.00    +0.005 A 
ENDBRANCH  16  17
ENDBRANCH   6  16
ENDBRANCH   1   4
BRANCH   1  23
ATOM     23  C   UNL     1       3.646   2.998   0.198  0.00  0.00    +0.116 C 
BRANCH  23  24
ATOM     24  C   UNL     1       4.247   2.731  -1.183  0.00  0.00    +0.047 C 
BRANCH  24  25
ATOM     25  C   UNL     1       5.591   2.017  -1.024  0.00  0.00    +0.161 C 
BRANCH  25  27
ATOM     26  C   UNL     1       7.417   1.101  -2.279  0.00  0.00    +0.193 C 
ATOM     27  O   UNL     1       6.154   1.768  -2.314  0.00  0.00    -0.383 OA
ENDBRANCH  25  27
ENDBRANCH  24  25
ENDBRANCH  23  24
ENDBRANCH   1  23
BRANCH   2  28
ATOM     28  C   UNL     1       3.602   5.806  -0.205  0.00  0.00    +0.173 C 
BRANCH  28  29
ATOM     29  S   UNL     1       3.219   7.571  -0.380  0.00  0.00    -0.076 S 
BRANCH  29  30
ATOM     30  C   UNL     1       4.800   8.341  -0.497  0.00  0.00    +0.196 A 
ATOM     31  N   UNL     1       5.965   7.735  -0.461  0.00  0.00    -0.122 NA
ATOM     32  N   UNL     1       6.918   8.593  -0.572  0.00  0.00    -0.129 NA
ATOM     33  C   UNL     1       6.412   9.807  -0.687  0.00  0.00    +0.162 A 
ATOM     34  N   UNL     1       5.040   9.674  -0.647  0.00  0.00    -0.278 N 
ATOM     35  C   UNL     1       4.236  10.776  -0.738  0.00  0.00    +0.095 A 
ATOM     36  C   UNL     1       4.773  12.005  -0.879  0.00  0.00    +0.018 A 
ATOM     37  C   UNL     1       6.169  12.171  -0.928  0.00  0.00    +0.005 A 
ATOM     38  C   UNL     1       6.984  11.087  -0.834  0.00  0.00    +0.049 A 
ENDBRANCH  29  30
ENDBRANCH  28  29
ENDBRANCH   2  28
TORSDOF 11
