REMARK  Name = ZINC20616627
REMARK  5 active torsions:
REMARK  status: ('A' for Active; 'I' for Inactive)
REMARK    1  A    between atoms: C_1  and  O_2
REMARK    2  A    between atoms: O_2  and  C_3
REMARK    3  A    between atoms: N_11  and  C_12
REMARK    4  A    between atoms: C_15  and  C_18
REMARK    5  A    between atoms: C_21  and  C_23
REMARK                            x       y       z     vdW  Elec       q    Type
REMARK                         _______ _______ _______ _____ _____    ______ ____
ROOT
ATOM      1  C   UNL     1      -0.069   3.851   0.049  0.00  0.00    +0.163 A 
ATOM      2  C   UNL     1      -1.242   3.115   0.067  0.00  0.00    +0.049 A 
ATOM      3  C   UNL     1      -1.205   1.729   0.051  0.00  0.00    +0.004 A 
ATOM      4  C   UNL     1      -0.012   1.064   0.031  0.00  0.00    +0.012 A 
ATOM      5  C   UNL     1       1.188   1.787   0.017  0.00  0.00    +0.022 A 
ATOM      6  C   UNL     1       1.157   3.194   0.022  0.00  0.00    +0.179 A 
ATOM      7  O   UNL     1       2.317   3.895  -0.002  0.00  0.00    -0.435 OA
ATOM      8  C   UNL     1       3.411   3.294   0.531  0.00  0.00    +0.212 A 
ATOM      9  N   UNL     1       4.266   3.974   1.268  0.00  0.00    -0.325 N 
ATOM     10  C   UNL     1       3.613   1.858   0.261  0.00  0.00    +0.097 A 
ATOM     11  C   UNL     1       2.479   1.098  -0.000  0.00  0.00    +0.030 A 
ATOM     12  H   UNL     1       5.099   3.453   1.764  0.00  0.00    +0.169 HD
ENDROOT
BRANCH   9  13
ATOM     13  C   UNL     1       4.120   5.319   1.416  0.00  0.00    +0.042 A 
ATOM     14  C   UNL     1       4.662   6.192   0.464  0.00  0.00    +0.026 A 
ATOM     15  C   UNL     1       4.511   7.540   0.610  0.00  0.00    +0.017 A 
ATOM     16  C   UNL     1       3.823   8.051   1.717  0.00  0.00    +0.063 A 
ATOM     17  C   UNL     1       3.286   7.179   2.672  0.00  0.00    +0.017 A 
ATOM     18  C   UNL     1       3.432   5.832   2.524  0.00  0.00    +0.026 A 
BRANCH  16  19
ATOM     19  C   UNL     1       3.664   9.506   1.877  0.00  0.00    +0.387 C 
ATOM     20  O   UNL     1       3.067   9.950   2.838  0.00  0.00    -0.241 OA
ATOM     21  O   UNL     1       4.181  10.346   0.958  0.00  0.00    -0.241 OA
ENDBRANCH  16  19
ENDBRANCH   9  13
BRANCH  10  22
ATOM     22  C   UNL     1       4.957   1.257   0.268  0.00  0.00    +0.247 C 
ATOM     23  O   UNL     1       5.931   1.947   0.500  0.00  0.00    -0.270 OA
ATOM     24  N   UNL     1       5.108  -0.059   0.017  0.00  0.00    -0.325 N 
ATOM     25  H   UNL     1       6.112  -0.508   0.022  0.00  0.00    +0.145 HD
ATOM     26  H   UNL     1       4.228  -0.683  -0.193  0.00  0.00    +0.145 HD
ENDBRANCH  10  22
BRANCH   1  28
ATOM     27  C   UNL     1      -1.410   5.815   0.087  0.00  0.00    +0.277 C 
ATOM     28  O   UNL     1      -0.115   5.210   0.059  0.00  0.00    -0.491 OA
ENDBRANCH   1  28
TORSDOF 4
