REMARK  Name = ZINC65357108
REMARK  5 active torsions:
REMARK  status: ('A' for Active; 'I' for Inactive)
REMARK    1  A    between atoms: C_3  and  C_15
REMARK    2  A    between atoms: N_4  and  C_6
REMARK    3  A    between atoms: C_9  and  N_12
REMARK    4  A    between atoms: N_16  and  N_17
REMARK    5  A    between atoms: C_18  and  C_20
REMARK                            x       y       z     vdW  Elec       q    Type
REMARK                         _______ _______ _______ _____ _____    ______ ____
ROOT
ATOM      1  C   UNL     1       3.508   0.617  -0.029  0.00  0.00    +0.156 C 
ATOM      2  N   UNL     1       4.201   1.761  -0.029  0.00  0.00    -0.186 NA
ENDROOT
BRANCH   1   5
ATOM      3  C   UNL     1      -0.017   1.393   0.010  0.00  0.00    +0.020 A 
ATOM      4  C   UNL     1       1.268   1.843  -0.000  0.00  0.00    +0.029 A 
ATOM      5  C   UNL     1       2.126   0.645  -0.015  0.00  0.00    +0.066 A 
ATOM      6  N   UNL     1       1.272  -0.450  -0.013  0.00  0.00    -0.315 N 
ATOM      7  C   UNL     1       0.002  -0.004   0.002  0.00  0.00    +0.092 A 
BRANCH   6   8
ATOM      8  C   UNL     1       1.665  -1.793  -0.024  0.00  0.00    +0.047 A 
ATOM      9  C   UNL     1       2.598  -2.237  -0.953  0.00  0.00    +0.028 A 
ATOM     10  C   UNL     1       2.984  -3.563  -0.961  0.00  0.00    +0.035 A 
ATOM     11  C   UNL     1       2.443  -4.449  -0.047  0.00  0.00    +0.126 A 
ATOM     12  C   UNL     1       1.515  -4.010   0.879  0.00  0.00    +0.035 A 
ATOM     13  C   UNL     1       1.129  -2.684   0.897  0.00  0.00    +0.028 A 
BRANCH  11  14
ATOM     14  N   UNL     1       2.859  -5.869  -0.059  0.00  0.00    +0.056 N 
ATOM     15  O   UNL     1       3.744  -6.288  -0.941  0.00  0.00    -0.126 OA
ATOM     16  O   UNL     1       2.345  -6.713   0.811  0.00  0.00    -0.126 OA
ENDBRANCH  11  14
ENDBRANCH   6   8
ENDBRANCH   1   5
BRANCH   2  17
ATOM     17  N   UNL     1       5.491   1.735  -0.042  0.00  0.00    -0.203 N 
ATOM     18  C   UNL     1       6.188   2.888  -0.042  0.00  0.00    +0.262 C 
ATOM     19  O   UNL     1       5.602   3.954  -0.030  0.00  0.00    -0.269 OA
ATOM     20  H   UNL     1       5.958   0.885  -0.051  0.00  0.00    +0.178 HD
BRANCH  18  21
ATOM     21  C   UNL     1       7.603   2.858  -0.056  0.00  0.00    +0.045 C 
ATOM     22  C   UNL     1       8.355   4.008  -0.051  0.00  0.00    +0.011 C 
ATOM     23  C   UNL     1       9.755   3.970  -0.068  0.00  0.00    +0.001 C 
ATOM     24  C   UNL     1      10.478   2.844  -0.344  0.00  0.00    +0.006 C 
ATOM     25  C   UNL     1       9.800   1.649  -0.608  0.00  0.00    -0.017 C 
ATOM     26  C   UNL     1       9.981   0.462  -1.218  0.00  0.00    +0.025 C 
ATOM     27  C   UNL     1       8.670  -0.139  -1.462  0.00  0.00    +0.106 C 
ATOM     28  N   UNL     1       7.728   0.528  -0.857  0.00  0.00    -0.279 NA
ATOM     29  C   UNL     1       8.373   1.568  -0.071  0.00  0.00    +0.170 C 
ENDBRANCH  18  21
ENDBRANCH   2  17
TORSDOF 5
