REMARK  Name = ZINC49520307
REMARK  5 active torsions:
REMARK  status: ('A' for Active; 'I' for Inactive)
REMARK    1  A    between atoms: C_1  and  C_2
REMARK    2  A    between atoms: C_3  and  C_19
REMARK    3  A    between atoms: C_7  and  N_8
REMARK    4  A    between atoms: C_9  and  C_11
REMARK    5  A    between atoms: C_13  and  C_17
REMARK                            x       y       z     vdW  Elec       q    Type
REMARK                         _______ _______ _______ _____ _____    ______ ____
ROOT
ATOM      1  N   UNL     1       0.030  -0.396   2.428  0.00  0.00    -0.265 N 
ATOM      2  C   UNL     1       0.052  -1.309   3.420  0.00  0.00    +0.268 C 
ATOM      3  O   UNL     1       0.066  -2.496   3.153  0.00  0.00    -0.268 OA
ATOM      4  H   UNL     1       0.018   0.551   2.641  0.00  0.00    +0.157 HD
ENDROOT
BRANCH   2   5
ATOM      5  C   UNL     1       0.058  -0.870   4.823  0.00  0.00    +0.135 A 
ATOM      6  C   UNL     1       0.086  -1.679   5.947  0.00  0.00    +0.070 A 
ATOM      7  C   UNL     1       0.081  -0.801   7.034  0.00  0.00    +0.074 A 
ATOM      8  N   UNL     1       0.054   0.420   6.565  0.00  0.00    -0.177 NA
ATOM      9  N   UNL     1       0.045   0.418   5.280  0.00  0.00    -0.271 N 
ATOM     10  H   UNL     1       0.028   1.210   4.720  0.00  0.00    +0.189 HD
ATOM     11  C   UNL     1       0.104  -1.191   8.490  0.00  0.00    +0.068 C 
ATOM     12 BR   UNL     1       0.120  -3.569   5.999  0.00  0.00    -0.046 Br
ENDBRANCH   2   5
BRANCH   1  19
ATOM     13  C   UNL     1      -0.018   1.503   0.010  0.00  0.00    +0.049 C 
ATOM     14  C   UNL     1       0.002  -0.004   0.002  0.00  0.00    +0.021 A 
ATOM     15  C   UNL     1       0.009  -0.821  -1.132  0.00  0.00    +0.170 A 
ATOM     16  N   UNL     1       0.028  -2.069  -0.743  0.00  0.00    -0.168 NA
ATOM     17  N   UNL     1       0.035  -2.096   0.658  0.00  0.00    -0.263 N 
ATOM     18  H   UNL     1       0.048  -2.891   1.214  0.00  0.00    +0.190 HD
ATOM     19  C   UNL     1       0.024  -0.811   1.098  0.00  0.00    +0.124 A 
BRANCH  15  20
ATOM     20  C   UNL     1      -0.004  -0.343  -2.561  0.00  0.00    +0.436 C 
ATOM     21  F   UNL     1       1.310  -0.177  -3.010  0.00  0.00    -0.164 F 
ATOM     22  F   UNL     1      -0.654  -1.288  -3.362  0.00  0.00    -0.164 F 
ATOM     23  F   UNL     1      -0.682   0.878  -2.639  0.00  0.00    -0.164 F 
ENDBRANCH  15  20
ENDBRANCH   1  19
TORSDOF 3
