REMARK  Name = ZINC32563413
REMARK  11 active torsions:
REMARK  status: ('A' for Active; 'I' for Inactive)
REMARK    1  A    between atoms: C_1  and  C_2
REMARK    2  A    between atoms: C_2  and  C_4
REMARK    3  A    between atoms: C_2  and  S_10
REMARK    4  A    between atoms: N_6  and  C_7
REMARK    5  A    between atoms: C_7  and  C_8
REMARK    6  A    between atoms: C_7  and  C_9
REMARK    7  A    between atoms: S_10  and  C_11
REMARK    8  A    between atoms: C_14  and  C_17
REMARK    9  A    between atoms: N_15  and  N_16
REMARK   10  A    between atoms: C_20  and  O_23
REMARK   11  A    between atoms: O_23  and  C_24
REMARK                            x       y       z     vdW  Elec       q    Type
REMARK                         _______ _______ _______ _____ _____    ______ ____
ROOT
ATOM      1  C   UNL     1      -2.335  -0.110   1.573  0.00  0.00    +0.209 A 
ATOM      2  N   UNL     1      -1.690   0.581   2.486  0.00  0.00    -0.121 NA
ATOM      3  N   UNL     1      -2.450   0.790   3.501  0.00  0.00    -0.127 NA
ATOM      4  C   UNL     1      -3.627   0.245   3.299  0.00  0.00    +0.182 A 
ATOM      5  N   UNL     1      -3.592  -0.344   2.056  0.00  0.00    -0.224 N 
ENDROOT
BRANCH   4   6
ATOM      6  C   UNL     1      -4.776   0.265   4.229  0.00  0.00    +0.021 A 
ATOM      7  C   UNL     1      -5.847  -0.610   4.037  0.00  0.00    +0.015 A 
ATOM      8  C   UNL     1      -6.916  -0.589   4.907  0.00  0.00    +0.046 A 
ATOM      9  C   UNL     1      -6.929   0.301   5.973  0.00  0.00    +0.127 A 
ATOM     10  C   UNL     1      -5.865   1.173   6.167  0.00  0.00    +0.046 A 
ATOM     11  C   UNL     1      -4.790   1.154   5.305  0.00  0.00    +0.015 A 
BRANCH   9  12
ATOM     12  O   UNL     1      -7.985   0.319   6.828  0.00  0.00    -0.434 OA
BRANCH  12  13
ATOM     13  C   UNL     1      -7.933   1.260   7.903  0.00  0.00    +0.541 C 
ATOM     14  F   UNL     1      -6.811   0.999   8.697  0.00  0.00    -0.166 F 
ATOM     15  F   UNL     1      -7.847   2.556   7.384  0.00  0.00    -0.166 F 
ENDBRANCH  12  13
ENDBRANCH   9  12
ENDBRANCH   4   6
BRANCH   5  16
ATOM     16  N   UNL     1      -4.601  -1.022   1.435  0.00  0.00    -0.295 N 
ATOM     17  H   UNL     1      -4.569  -2.005   1.662  0.00  0.00    +0.163 HD
ATOM     18  H   UNL     1      -5.500  -0.627   1.667  0.00  0.00    +0.163 HD
ENDBRANCH   5  16
BRANCH   1  19
ATOM     19  S   UNL     1      -1.700  -0.632   0.015  0.00  0.00    -0.072 S 
BRANCH  19  21
ATOM     20  C   UNL     1      -0.019   1.526   0.010  0.00  0.00    +0.029 C 
ATOM     21  C   UNL     1       0.002  -0.004   0.002  0.00  0.00    +0.137 C 
BRANCH  21  22
ATOM     22  C   UNL     1       0.707  -0.490  -1.238  0.00  0.00    +0.226 C 
ATOM     23  O   UNL     1       0.066  -0.782  -2.225  0.00  0.00    -0.275 OA
ATOM     24  N   UNL     1       2.051  -0.601  -1.250  0.00  0.00    -0.312 N 
ATOM     25  H   UNL     1       2.563  -0.367  -0.460  0.00  0.00    +0.149 HD
BRANCH  24  26
ATOM     26  C   UNL     1       2.736  -1.073  -2.455  0.00  0.00    +0.067 C 
ATOM     27  C   UNL     1       4.172  -0.543  -2.466  0.00  0.00    +0.027 C 
ATOM     28  C   UNL     1       2.757  -2.603  -2.463  0.00  0.00    +0.027 C 
ENDBRANCH  24  26
ENDBRANCH  21  22
ENDBRANCH  19  21
ENDBRANCH   1  19
TORSDOF 8
