REMARK  Name = ZINC08763571
REMARK  6 active torsions:
REMARK  status: ('A' for Active; 'I' for Inactive)
REMARK    1  A    between atoms: C_1  and  C_2
REMARK    2  A    between atoms: C_2  and  C_31
REMARK    3  A    between atoms: C_8  and  N_14
REMARK    4  A    between atoms: N_14  and  S_15
REMARK    5  A    between atoms: S_15  and  C_18
REMARK    6  A    between atoms: C_22  and  N_24
REMARK                            x       y       z     vdW  Elec       q    Type
REMARK                         _______ _______ _______ _____ _____    ______ ____
ROOT
ATOM      1  C   UNL     1       2.013   1.535  -0.990  0.00  0.00    +0.012 C 
ATOM      2  C   UNL     1       1.327   2.074   0.267  0.00  0.00    -0.021 C 
ATOM      3  C   UNL     1       2.100   1.607   1.503  0.00  0.00    +0.082 C 
ATOM      4  C   UNL     1       1.962   0.111   1.647  0.00  0.00    +0.117 A 
ATOM      5  C   UNL     1       0.944  -0.602   1.056  0.00  0.00    +0.066 A 
ATOM      6  C   UNL     1       1.153  -1.992   1.420  0.00  0.00    +0.034 A 
ATOM      7  C   UNL     1       0.466  -3.170   1.132  0.00  0.00    +0.039 A 
ATOM      8  C   UNL     1       0.978  -4.345   1.673  0.00  0.00    +0.076 A 
ATOM      9  C   UNL     1       2.121  -4.344   2.463  0.00  0.00    +0.050 A 
ATOM     10  C   UNL     1       2.812  -3.181   2.756  0.00  0.00    +0.086 A 
ATOM     11  C   UNL     1       2.317  -1.992   2.225  0.00  0.00    +0.154 A 
ATOM     12  O   UNL     1       2.751  -0.728   2.325  0.00  0.00    -0.457 OA
ATOM     13 CL   UNL     1       4.239  -3.203   3.745  0.00  0.00    -0.080 Cl
ATOM     14  C   UNL     1      -0.088   0.045   0.242  0.00  0.00    +0.168 C 
ATOM     15  O   UNL     1      -0.866  -0.588  -0.442  0.00  0.00    -0.292 OA
ATOM     16  C   UNL     1      -0.117   1.564   0.313  0.00  0.00    +0.086 C 
ATOM     17  C   UNL     1       1.322   3.603   0.223  0.00  0.00    +0.012 C 
ENDROOT
BRANCH   8  18
ATOM     18  N   UNL     1       0.327  -5.555   1.415  0.00  0.00    -0.098 NA
BRANCH  18  19
ATOM     19  S   UNL     1       1.201  -6.886   0.960  0.00  0.00    +0.092 S 
ATOM     20  O   UNL     1       2.225  -7.050   1.932  0.00  0.00    -0.148 OA
ATOM     21  O   UNL     1       0.261  -7.908   0.663  0.00  0.00    -0.148 OA
BRANCH  19  22
ATOM     22  C   UNL     1       2.006  -6.486  -0.556  0.00  0.00    +0.113 A 
ATOM     23  C   UNL     1       1.339  -6.649  -1.756  0.00  0.00    +0.030 A 
ATOM     24  C   UNL     1       1.968  -6.332  -2.945  0.00  0.00    +0.024 A 
ATOM     25  C   UNL     1       3.269  -5.861  -2.935  0.00  0.00    +0.071 A 
ATOM     26  C   UNL     1       3.937  -5.703  -1.734  0.00  0.00    +0.146 A 
ATOM     27  C   UNL     1       3.306  -6.016  -0.545  0.00  0.00    +0.063 A 
ATOM     28 CL   UNL     1       4.061  -5.468  -4.429  0.00  0.00    -0.081 Cl
BRANCH  26  29
ATOM     29  N   UNL     1       5.329  -5.199  -1.723  0.00  0.00    +0.058 N 
ATOM     30  O   UNL     1       5.918  -5.060  -0.665  0.00  0.00    -0.126 OA
ATOM     31  O   UNL     1       5.886  -4.924  -2.771  0.00  0.00    -0.126 OA
ENDBRANCH  26  29
ENDBRANCH  19  22
ENDBRANCH  18  19
ENDBRANCH   8  18
TORSDOF 4
