REMARK  Name = ZINC12852567
REMARK  12 active torsions:
REMARK  status: ('A' for Active; 'I' for Inactive)
REMARK    1  A    between atoms: C_1  and  C_2
REMARK    2  A    between atoms: C_2  and  C_3
REMARK    3  A    between atoms: C_2  and  C_4
REMARK    4  A    between atoms: C_2  and  C_5
REMARK    5  A    between atoms: C_8  and  C_11
REMARK    6  A    between atoms: N_13  and  C_14
REMARK    7  A    between atoms: C_14  and  C_16
REMARK    8  A    between atoms: C_14  and  C_20
REMARK    9  A    between atoms: C_16  and  C_17
REMARK   10  A    between atoms: C_17  and  S_18
REMARK   11  A    between atoms: S_18  and  C_19
REMARK   12  A    between atoms: N_22  and  C_23
REMARK                            x       y       z     vdW  Elec       q    Type
REMARK                         _______ _______ _______ _____ _____    ______ ____
ROOT
ATOM      1  C   UNL     1       6.051   2.245   0.171  0.00  0.00    +0.160 C 
ENDROOT
BRANCH   1   4
ATOM      2  C   UNL     1       8.327   1.687   0.839  0.00  0.00    +0.245 C 
ATOM      3  O   UNL     1       8.434   2.806   1.300  0.00  0.00    -0.270 OA
ATOM      4  N   UNL     1       7.174   1.308   0.252  0.00  0.00    -0.300 N 
ATOM      5  H   UNL     1       7.089   0.415  -0.117  0.00  0.00    +0.150 HD
BRANCH   2   9
ATOM      6  C   UNL     1      11.584  -1.029   1.075  0.00  0.00    -0.042 A 
ATOM      7  C   UNL     1      11.709   0.244   1.601  0.00  0.00    +0.005 A 
ATOM      8  C   UNL     1      10.655   1.131   1.528  0.00  0.00    +0.013 A 
ATOM      9  C   UNL     1       9.460   0.742   0.920  0.00  0.00    +0.037 A 
ATOM     10  C   UNL     1       9.339  -0.546   0.396  0.00  0.00    +0.013 A 
ATOM     11  C   UNL     1      10.402  -1.422   0.472  0.00  0.00    +0.005 A 
BRANCH   6  13
ATOM     12  C   UNL     1      13.099  -2.231   2.627  0.00  0.00    +0.015 C 
ATOM     13  C   UNL     1      12.739  -1.993   1.159  0.00  0.00    -0.013 C 
ATOM     14  C   UNL     1      12.344  -3.320   0.509  0.00  0.00    +0.015 C 
ATOM     15  C   UNL     1      13.947  -1.406   0.426  0.00  0.00    +0.015 C 
ENDBRANCH   6  13
ENDBRANCH   2   9
ENDBRANCH   1   4
BRANCH   1  16
ATOM     16  C   UNL     1       4.760   1.474   0.065  0.00  0.00    +0.238 C 
ATOM     17  O   UNL     1       4.777   0.261   0.058  0.00  0.00    -0.273 OA
ATOM     18  N   UNL     1       3.587   2.131  -0.022  0.00  0.00    -0.284 N 
ATOM     19  H   UNL     1       3.578   3.099  -0.093  0.00  0.00    +0.155 HD
BRANCH  18  20
ATOM     20  C   UNL     1       2.381   1.418  -0.009  0.00  0.00    +0.035 A 
ATOM     21  C   UNL     1       2.273   0.252   0.738  0.00  0.00    +0.027 A 
ATOM     22  C   UNL     1       1.085  -0.455   0.754  0.00  0.00    +0.049 A 
ATOM     23  C   UNL     1      -0.000  -0.000   0.026  0.00  0.00    +0.142 A 
ATOM     24  C   UNL     1       0.105   1.170  -0.725  0.00  0.00    +0.077 A 
ATOM     25  C   UNL     1       1.295   1.878  -0.741  0.00  0.00    +0.050 A 
ATOM     26  N   UNL     1      -1.001   1.614  -1.462  0.00  0.00    -0.280 N 
ATOM     27  C   UNL     1      -2.221   1.101  -1.183  0.00  0.00    +0.255 C 
ATOM     28  O   UNL     1      -3.189   1.450  -1.826  0.00  0.00    -0.272 OA
ATOM     29  C   UNL     1      -2.372   0.091  -0.075  0.00  0.00    +0.325 C 
ATOM     30  O   UNL     1      -1.176  -0.685   0.035  0.00  0.00    -0.481 OA
ATOM     31  H   UNL     1      -0.894   2.282  -2.157  0.00  0.00    +0.155 HD
ENDBRANCH  18  20
ENDBRANCH   1  16
BRANCH   1  32
ATOM     32  C   UNL     1       6.216   3.134  -1.064  0.00  0.00    +0.042 C 
BRANCH  32  33
ATOM     33  C   UNL     1       7.461   4.008  -0.900  0.00  0.00    +0.071 C 
BRANCH  33  34
ATOM     34  S   UNL     1       7.657   5.062  -2.363  0.00  0.00    -0.164 S 
ATOM     35  C   UNL     1       9.156   6.022  -2.015  0.00  0.00    +0.084 C 
ENDBRANCH  33  34
ENDBRANCH  32  33
ENDBRANCH   1  32
TORSDOF 8
