REMARK  Name = ZINC67309946
REMARK  10 active torsions:
REMARK  status: ('A' for Active; 'I' for Inactive)
REMARK    1  A    between atoms: C_1  and  C_2
REMARK    2  A    between atoms: C_5  and  N_11
REMARK    3  A    between atoms: C_7  and  C_8
REMARK    4  A    between atoms: N_14  and  C_15
REMARK    5  A    between atoms: C_15  and  C_16
REMARK    6  A    between atoms: C_23  and  O_25
REMARK    7  A    between atoms: O_25  and  C_26
REMARK    8  A    between atoms: C_26  and  C_27
REMARK    9  A    between atoms: C_26  and  C_28
REMARK   10  A    between atoms: C_26  and  C_29
REMARK                            x       y       z     vdW  Elec       q    Type
REMARK                         _______ _______ _______ _____ _____    ______ ____
ROOT
ATOM      1  N   UNL     1      -2.215  -4.559  -5.108  0.00  0.00    -0.269 N 
ATOM      2  C   UNL     1      -1.264  -4.761  -4.174  0.00  0.00    +0.304 C 
ATOM      3  O   UNL     1      -0.568  -3.836  -3.805  0.00  0.00    -0.253 OA
ATOM      4  N   UNL     1      -1.086  -5.990  -3.650  0.00  0.00    -0.297 N 
ATOM      5  H   UNL     1      -2.717  -5.311  -5.460  0.00  0.00    +0.156 HD
ATOM      6  H   UNL     1      -1.642  -6.728  -3.944  0.00  0.00    +0.150 HD
ENDROOT
BRANCH   1  11
ATOM      7  C   UNL     1      -3.295   0.687  -7.008  0.00  0.00    +0.044 C 
ATOM      8  C   UNL     1      -3.007  -0.703  -6.502  0.00  0.00    -0.038 A 
ATOM      9  C   UNL     1      -3.225  -1.794  -7.318  0.00  0.00    +0.006 A 
ATOM     10  C   UNL     1      -2.963  -3.070  -6.858  0.00  0.00    +0.023 A 
ATOM     11  C   UNL     1      -2.478  -3.264  -5.569  0.00  0.00    +0.035 A 
ATOM     12  C   UNL     1      -2.256  -2.175  -4.742  0.00  0.00    +0.036 A 
ATOM     13  C   UNL     1      -2.515  -0.886  -5.208  0.00  0.00    +0.041 A 
BRANCH  13  14
ATOM     14  C   UNL     1      -2.275   0.282  -4.333  0.00  0.00    +0.242 C 
ATOM     15  O   UNL     1      -2.569   1.398  -4.715  0.00  0.00    -0.270 OA
ATOM     16  N   UNL     1      -1.731   0.109  -3.113  0.00  0.00    -0.325 N 
ATOM     17  H   UNL     1      -1.497  -0.782  -2.808  0.00  0.00    +0.145 HD
ATOM     18  H   UNL     1      -1.574   0.875  -2.539  0.00  0.00    +0.145 HD
ENDBRANCH  13  14
ENDBRANCH   1  11
BRANCH   4  19
ATOM     19  C   UNL     1      -0.052  -6.210  -2.635  0.00  0.00    +0.128 C 
BRANCH  19  20
ATOM     20  C   UNL     1       0.026  -7.701  -2.302  0.00  0.00    +0.096 C 
ATOM     21  C   UNL     1       0.340  -8.495  -3.574  0.00  0.00    +0.024 C 
ATOM     22  C   UNL     1       0.554  -9.967  -3.212  0.00  0.00    +0.003 C 
ATOM     23  C   UNL     1       1.746 -10.091  -2.259  0.00  0.00    +0.019 C 
ATOM     24  C   UNL     1       1.448  -9.315  -0.972  0.00  0.00    +0.111 C 
ATOM     25  N   UNL     1       1.096  -7.931  -1.321  0.00  0.00    -0.263 N 
ATOM     26  C   UNL     1       1.744  -6.894  -0.756  0.00  0.00    +0.404 C 
ATOM     27  O   UNL     1       1.374  -5.756  -0.971  0.00  0.00    -0.226 OA
BRANCH  26  28
ATOM     28  O   UNL     1       2.802  -7.117   0.046  0.00  0.00    -0.445 OA
BRANCH  28  29
ATOM     29  C   UNL     1       3.441  -5.971   0.611  0.00  0.00    +0.107 C 
ATOM     30  C   UNL     1       2.436  -5.194   1.464  0.00  0.00    +0.055 C 
ATOM     31  C   UNL     1       4.613  -6.420   1.487  0.00  0.00    +0.055 C 
ATOM     32  C   UNL     1       3.960  -5.071  -0.512  0.00  0.00    +0.055 C 
ENDBRANCH  28  29
ENDBRANCH  26  28
ENDBRANCH  19  20
ENDBRANCH   4  19
TORSDOF 6
