REMARK  Name = ZINC63317427
REMARK  9 active torsions:
REMARK  status: ('A' for Active; 'I' for Inactive)
REMARK    1  A    between atoms: C_5  and  C_7
REMARK    2  A    between atoms: C_7  and  C_8
REMARK    3  A    between atoms: C_7  and  O_26
REMARK    4  A    between atoms: C_8  and  N_9
REMARK    5  A    between atoms: N_12  and  C_13
REMARK    6  A    between atoms: C_13  and  C_14
REMARK    7  A    between atoms: C_14  and  C_15
REMARK    8  A    between atoms: C_15  and  N_16
REMARK    9  A    between atoms: C_17  and  C_19
REMARK                            x       y       z     vdW  Elec       q    Type
REMARK                         _______ _______ _______ _____ _____    ______ ____
ROOT
ATOM      1  N   UNL     1       1.514  -4.161   1.392  0.00  0.00    -0.297 N 
ATOM      2  C   UNL     1       1.657  -4.839   2.548  0.00  0.00    +0.300 C 
ATOM      3  O   UNL     1       1.671  -4.240   3.607  0.00  0.00    -0.253 OA
ATOM      4  N   UNL     1       1.786  -6.180   2.531  0.00  0.00    -0.299 N 
ATOM      5  H   UNL     1       1.503  -4.638   0.548  0.00  0.00    +0.150 HD
ATOM      6  H   UNL     1       1.775  -6.658   1.687  0.00  0.00    +0.150 HD
ENDROOT
BRANCH   1   7
ATOM      7  C   UNL     1       1.375  -2.703   1.411  0.00  0.00    +0.142 C 
BRANCH   7   8
ATOM      8  C   UNL     1       1.228  -2.186  -0.022  0.00  0.00    +0.164 C 
BRANCH   8  13
ATOM      9  C   UNL     1      -0.017   1.378   0.010  0.00  0.00    +0.001 A 
ATOM     10  C   UNL     1       1.171   2.087   0.002  0.00  0.00    +0.003 A 
ATOM     11  C   UNL     1       2.377   1.414  -0.013  0.00  0.00    +0.039 A 
ATOM     12  C   UNL     1       2.397   0.029  -0.021  0.00  0.00    +0.129 A 
ATOM     13  C   UNL     1       1.208  -0.679  -0.013  0.00  0.00    +0.018 A 
ATOM     14  C   UNL     1       0.002  -0.004   0.002  0.00  0.00    +0.009 A 
ATOM     15  F   UNL     1       3.577  -0.630  -0.036  0.00  0.00    -0.205 F 
ENDBRANCH   8  13
BRANCH   8  16
ATOM     16  O   UNL     1       0.008  -2.676  -0.582  0.00  0.00    -0.386 OA
ATOM     17  H   UNL     1      -0.784  -2.404  -0.099  0.00  0.00    +0.210 HD
ENDBRANCH   8  16
ENDBRANCH   7   8
ENDBRANCH   1   7
BRANCH   4  18
ATOM     18  C   UNL     1       1.942  -6.917   3.788  0.00  0.00    +0.107 C 
BRANCH  18  19
ATOM     19  C   UNL     1       2.066  -8.413   3.490  0.00  0.00    +0.037 C 
BRANCH  19  20
ATOM     20  C   UNL     1       2.229  -9.182   4.802  0.00  0.00    +0.106 C 
BRANCH  20  21
ATOM     21  N   UNL     1       2.348 -10.614   4.517  0.00  0.00    -0.311 N 
ATOM     22  C   UNL     1       2.501 -11.492   5.528  0.00  0.00    +0.247 C 
ATOM     23  O   UNL     1       2.540 -11.096   6.677  0.00  0.00    -0.270 OA
ATOM     24  H   UNL     1       2.316 -10.931   3.601  0.00  0.00    +0.149 HD
BRANCH  22  25
ATOM     25  C   UNL     1       2.620 -12.936   5.241  0.00  0.00    +0.072 A 
ATOM     26  C   UNL     1       2.582 -13.395   3.922  0.00  0.00    +0.016 A 
ATOM     27  C   UNL     1       2.695 -14.743   3.660  0.00  0.00    +0.001 A 
ATOM     28  C   UNL     1       2.846 -15.645   4.700  0.00  0.00    +0.003 A 
ATOM     29  C   UNL     1       2.885 -15.201   6.009  0.00  0.00    +0.039 A 
ATOM     30  C   UNL     1       2.779 -13.850   6.287  0.00  0.00    +0.135 A 
ATOM     31  F   UNL     1       2.823 -13.416   7.565  0.00  0.00    -0.205 F 
ENDBRANCH  22  25
ENDBRANCH  20  21
ENDBRANCH  19  20
ENDBRANCH  18  19
ENDBRANCH   4  18
TORSDOF 9
