REMARK  Name = ZINC33701469
REMARK  10 active torsions:
REMARK  status: ('A' for Active; 'I' for Inactive)
REMARK    1  A    between atoms: C_1  and  C_2
REMARK    2  A    between atoms: C_4  and  O_10
REMARK    3  A    between atoms: C_6  and  C_9
REMARK    4  A    between atoms: O_10  and  C_11
REMARK    5  A    between atoms: C_11  and  C_12
REMARK    6  A    between atoms: N_14  and  C_15
REMARK    7  A    between atoms: C_15  and  C_17
REMARK    8  A    between atoms: C_15  and  C_25
REMARK    9  A    between atoms: C_17  and  C_18
REMARK   10  A    between atoms: C_21  and  O_24
REMARK                            x       y       z     vdW  Elec       q    Type
REMARK                         _______ _______ _______ _____ _____    ______ ____
ROOT
ATOM      1  C   UNL     1      -0.014   1.209   0.009  0.00  0.00    +0.251 C 
ATOM      2  O   UNL     1       0.002  -0.004   0.002  0.00  0.00    -0.272 OA
ATOM      3  N   UNL     1       1.143   1.898   0.001  0.00  0.00    -0.301 N 
ATOM      4  H   UNL     1       1.129   2.998   0.007  0.00  0.00    +0.150 HD
ENDROOT
BRANCH   1   5
ATOM      5  C   UNL     1      -1.330   1.944   0.019  0.00  0.00    +0.324 C 
BRANCH   5   6
ATOM      6  O   UNL     1      -2.403   1.001   0.019  0.00  0.00    -0.483 OA
BRANCH   6  10
ATOM      7  C   UNL     1      -7.221   0.224   0.038  0.00  0.00    +0.045 C 
ATOM      8  C   UNL     1      -6.038   1.157   0.037  0.00  0.00    -0.028 A 
ATOM      9  C   UNL     1      -4.755   0.644   0.028  0.00  0.00    +0.050 A 
ATOM     10  C   UNL     1      -3.666   1.503   0.028  0.00  0.00    +0.122 A 
ATOM     11  C   UNL     1      -3.867   2.876   0.042  0.00  0.00    +0.050 A 
ATOM     12  C   UNL     1      -5.152   3.385   0.046  0.00  0.00    -0.028 A 
ATOM     13  C   UNL     1      -6.237   2.526   0.046  0.00  0.00    +0.047 A 
ATOM     14 CL   UNL     1      -7.850   3.168   0.058  0.00  0.00    -0.083 Cl
ATOM     15  C   UNL     1      -5.371   4.875   0.056  0.00  0.00    +0.045 C 
ENDBRANCH   6  10
ENDBRANCH   5   6
ENDBRANCH   1   5
BRANCH   3  16
ATOM     16  C   UNL     1       2.422   1.183  -0.015  0.00  0.00    +0.163 C 
BRANCH  16  17
ATOM     17  C   UNL     1       2.813   0.822   1.395  0.00  0.00    +0.231 C 
ATOM     18  O   UNL     1       2.095   1.132   2.322  0.00  0.00    -0.274 OA
ATOM     19  N   UNL     1       3.962   0.155   1.626  0.00  0.00    -0.328 N 
ATOM     20  H   UNL     1       4.247  -0.108   2.655  0.00  0.00    +0.145 HD
ATOM     21  H   UNL     1       4.613  -0.126   0.785  0.00  0.00    +0.145 HD
ENDBRANCH  16  17
BRANCH  16  22
ATOM     22  C   UNL     1       3.499   2.078  -0.630  0.00  0.00    +0.067 C 
BRANCH  22  23
ATOM     23  C   UNL     1       3.170   2.339  -2.077  0.00  0.00    -0.045 A 
ATOM     24  C   UNL     1       3.650   1.490  -3.058  0.00  0.00    +0.007 A 
ATOM     25  C   UNL     1       3.345   1.723  -4.385  0.00  0.00    +0.045 A 
ATOM     26  C   UNL     1       2.565   2.817  -4.734  0.00  0.00    +0.117 A 
ATOM     27  C   UNL     1       2.090   3.670  -3.749  0.00  0.00    +0.045 A 
ATOM     28  C   UNL     1       2.393   3.429  -2.423  0.00  0.00    +0.007 A 
BRANCH  26  29
ATOM     29  O   UNL     1       2.268   3.051  -6.039  0.00  0.00    -0.507 OA
ATOM     30  H   UNL     1       1.650   3.918  -6.315  0.00  0.00    +0.292 HD
ENDBRANCH  26  29
ENDBRANCH  22  23
ENDBRANCH  16  22
ENDBRANCH   3  16
TORSDOF 8
