REMARK  Name = ZINC67238465
REMARK  6 active torsions:
REMARK  status: ('A' for Active; 'I' for Inactive)
REMARK    1  A    between atoms: C_1  and  C_2
REMARK    2  A    between atoms: C_5  and  N_22
REMARK    3  A    between atoms: C_7  and  C_8
REMARK    4  A    between atoms: N_10  and  C_11
REMARK    5  A    between atoms: C_14  and  C_17
REMARK    6  A    between atoms: C_17  and  N_18
REMARK                            x       y       z     vdW  Elec       q    Type
REMARK                         _______ _______ _______ _____ _____    ______ ____
ROOT
ATOM      1  C   UNL     1      -0.882  -1.740   3.478  0.00  0.00    +0.249 C 
ATOM      2  O   UNL     1      -1.456  -2.201   4.445  0.00  0.00    -0.270 OA
ATOM      3  N   UNL     1      -0.329  -0.512   3.544  0.00  0.00    -0.281 N 
ATOM      4  H   UNL     1       0.063  -0.113   2.752  0.00  0.00    +0.155 HD
ENDROOT
BRANCH   1  11
ATOM      5  C   UNL     1      -1.817  -4.477   3.437  0.00  0.00    +0.044 C 
ATOM      6  C   UNL     1      -1.236  -3.847   2.197  0.00  0.00    -0.038 A 
ATOM      7  C   UNL     1      -1.152  -4.572   1.027  0.00  0.00    +0.006 A 
ATOM      8  C   UNL     1      -0.620  -3.995  -0.112  0.00  0.00    +0.033 A 
ATOM      9  C   UNL     1      -0.169  -2.687  -0.086  0.00  0.00    +0.127 A 
ATOM     10  C   UNL     1      -0.248  -1.950   1.077  0.00  0.00    +0.046 A 
ATOM     11  C   UNL     1      -0.789  -2.525   2.229  0.00  0.00    +0.042 A 
BRANCH   9  12
ATOM     12  N   UNL     1       0.400  -2.077  -1.309  0.00  0.00    +0.056 N 
ATOM     13  O   UNL     1       0.470  -2.722  -2.329  0.00  0.00    -0.126 OA
ATOM     14  O   UNL     1       0.794  -0.934  -1.288  0.00  0.00    -0.126 OA
ENDBRANCH   9  12
ENDBRANCH   1  11
BRANCH   3  15
ATOM     15  C   UNL     1      -0.322   0.187   4.756  0.00  0.00    +0.034 A 
ATOM     16  C   UNL     1      -0.448   1.570   4.762  0.00  0.00    +0.023 A 
ATOM     17  C   UNL     1      -0.441   2.257   5.960  0.00  0.00    +0.007 A 
ATOM     18  C   UNL     1      -0.308   1.569   7.152  0.00  0.00    -0.030 A 
ATOM     19  C   UNL     1      -0.182   0.192   7.149  0.00  0.00    +0.007 A 
ATOM     20  C   UNL     1      -0.195  -0.501   5.955  0.00  0.00    +0.023 A 
BRANCH  18  21
ATOM     21  C   UNL     1      -0.300   2.322   8.458  0.00  0.00    +0.141 C 
BRANCH  21  22
ATOM     22  N   UNL     1      -1.670   2.441   8.962  0.00  0.00    -0.295 N 
ATOM     23  C   UNL     1      -1.907   3.081  10.124  0.00  0.00    +0.297 C 
ATOM     24  O   UNL     1      -0.984   3.559  10.754  0.00  0.00    -0.253 OA
ATOM     25  N   UNL     1      -3.168   3.191  10.588  0.00  0.00    -0.313 N 
ATOM     26  H   UNL     1      -2.407   2.059   8.459  0.00  0.00    +0.151 HD
ATOM     27  H   UNL     1      -3.905   2.809  10.085  0.00  0.00    +0.146 HD
ATOM     28  H   UNL     1      -3.339   3.651  11.424  0.00  0.00    +0.146 HD
ENDBRANCH  21  22
ENDBRANCH  18  21
ENDBRANCH   3  15
TORSDOF 5
