REMARK  Name = ZINC58423731
REMARK  6 active torsions:
REMARK  status: ('A' for Active; 'I' for Inactive)
REMARK    1  A    between atoms: C_1  and  C_2
REMARK    2  A    between atoms: C_5  and  C_23
REMARK    3  A    between atoms: N_6  and  C_7
REMARK    4  A    between atoms: C_11  and  C_12
REMARK    5  A    between atoms: N_14  and  O_15
REMARK    6  A    between atoms: O_15  and  C_16
REMARK                            x       y       z     vdW  Elec       q    Type
REMARK                         _______ _______ _______ _____ _____    ______ ____
ROOT
ATOM      1  C   UNL     1       0.030  -0.376   2.433  0.00  0.00    +0.066 A 
ATOM      2  C   UNL     1      -1.133  -0.168   3.147  0.00  0.00    +0.034 A 
ATOM      3  C   UNL     1      -1.052   0.253   4.431  0.00  0.00    +0.048 A 
ATOM      4  S   UNL     1       0.597   0.384   4.723  0.00  0.00    -0.090 S 
ATOM      5  C   UNL     1       1.212  -0.129   3.130  0.00  0.00    +0.100 A 
ENDROOT
BRANCH   1  11
ATOM      6  C   UNL     1      -0.018   1.503   0.010  0.00  0.00    +0.064 C 
ATOM      7  C   UNL     1       0.002  -0.004   0.002  0.00  0.00    +0.021 A 
ATOM      8  C   UNL     1       0.008  -0.789  -1.095  0.00  0.00    +0.023 A 
ATOM      9  C   UNL     1       0.029  -2.128  -0.656  0.00  0.00    +0.023 A 
ATOM     10  C   UNL     1       0.035  -2.113   0.692  0.00  0.00    +0.021 A 
ATOM     11  N   UNL     1       0.024  -0.811   1.104  0.00  0.00    -0.316 N 
ATOM     12  C   UNL     1       0.055  -3.324   1.589  0.00  0.00    +0.064 C 
ENDBRANCH   1  11
BRANCH   5  13
ATOM     13  C   UNL     1       2.594  -0.255   2.672  0.00  0.00    +0.275 C 
ATOM     14  O   UNL     1       2.828  -0.623   1.536  0.00  0.00    -0.267 OA
ATOM     15  N   UNL     1       3.609   0.036   3.509  0.00  0.00    -0.187 N 
ATOM     16  H   UNL     1       3.423   0.329   4.415  0.00  0.00    +0.183 HD
BRANCH  15  17
ATOM     17  O   UNL     1       4.949  -0.087   3.066  0.00  0.00    -0.248 OA
BRANCH  17  18
ATOM     18  C   UNL     1       5.922   0.254   4.056  0.00  0.00    +0.276 C 
ATOM     19  C   UNL     1       7.173   0.809   3.372  0.00  0.00    +0.063 C 
ATOM     20  C   UNL     1       8.233   1.115   4.434  0.00  0.00    +0.007 C 
ATOM     21  C   UNL     1       8.524  -0.160   5.231  0.00  0.00    +0.028 C 
ATOM     22  C   UNL     1       7.221  -0.679   5.843  0.00  0.00    +0.163 C 
ATOM     23  O   UNL     1       6.268  -0.913   4.804  0.00  0.00    -0.349 OA
ENDBRANCH  17  18
ENDBRANCH  15  17
ENDBRANCH   5  13
TORSDOF 4
