REMARK  Name = ZINC05508711
REMARK  5 active torsions:
REMARK  status: ('A' for Active; 'I' for Inactive)
REMARK    1  A    between atoms: C_4  and  S_14
REMARK    2  A    between atoms: S_14  and  N_17
REMARK    3  A    between atoms: N_17  and  C_18
REMARK    4  A    between atoms: C_21  and  O_26
REMARK    5  A    between atoms: C_22  and  C_24
REMARK                            x       y       z     vdW  Elec       q    Type
REMARK                         _______ _______ _______ _____ _____    ______ ____
ROOT
ATOM      1  S   UNL     1       2.811   5.678  -0.007  0.00  0.00    +0.073 S 
ATOM      2  O   UNL     1       1.932   6.256   0.949  0.00  0.00    -0.150 OA
ATOM      3  O   UNL     1       4.225   5.761   0.110  0.00  0.00    -0.150 OA
ENDROOT
BRANCH   1   7
ATOM      4  C   UNL     1      -1.257   4.041  -0.490  0.00  0.00    +0.001 A 
ATOM      5  C   UNL     1       0.022   4.491  -0.340  0.00  0.00    +0.010 A 
ATOM      6  C   UNL     1       1.074   3.564  -0.243  0.00  0.00    +0.010 A 
ATOM      7  C   UNL     1       2.412   3.964  -0.087  0.00  0.00    +0.116 A 
ATOM      8  C   UNL     1       3.403   3.032   0.003  0.00  0.00    +0.030 A 
ATOM      9  C   UNL     1       3.114   1.667  -0.058  0.00  0.00    +0.018 A 
ATOM     10  C   UNL     1       1.818   1.253  -0.209  0.00  0.00    +0.024 A 
ATOM     11  C   UNL     1       0.774   2.183  -0.306  0.00  0.00    +0.009 A 
ATOM     12  C   UNL     1      -0.539   1.728  -0.460  0.00  0.00    +0.038 A 
ATOM     13  C   UNL     1      -1.556   2.689  -0.546  0.00  0.00    +0.013 A 
ATOM     14  C   UNL     1      -0.678   0.247  -0.506  0.00  0.00    +0.225 C 
ATOM     15  O   UNL     1      -1.691  -0.416  -0.632  0.00  0.00    -0.279 OA
ATOM     16  S   UNL     1       1.006  -0.318  -0.332  0.00  0.00    -0.046 S 
ENDBRANCH   1   7
BRANCH   1  17
ATOM     17  N   UNL     1       2.417   6.342  -1.473  0.00  0.00    -0.216 N 
ATOM     18  H   UNL     1       1.746   7.040  -1.524  0.00  0.00    +0.174 HD
BRANCH  17  19
ATOM     19  C   UNL     1       3.052   5.894  -2.637  0.00  0.00    +0.049 A 
ATOM     20  C   UNL     1       4.434   5.729  -2.654  0.00  0.00    +0.028 A 
ATOM     21  C   UNL     1       5.068   5.284  -3.796  0.00  0.00    +0.048 A 
ATOM     22  C   UNL     1       4.333   5.006  -4.939  0.00  0.00    +0.131 A 
ATOM     23  C   UNL     1       2.942   5.175  -4.931  0.00  0.00    +0.106 A 
ATOM     24  C   UNL     1       2.305   5.621  -3.769  0.00  0.00    +0.043 A 
BRANCH  23  25
ATOM     25  C   UNL     1       2.154   4.882  -6.141  0.00  0.00    +0.390 C 
ATOM     26  O   UNL     1       2.710   4.494  -7.149  0.00  0.00    -0.240 OA
ATOM     27  O   UNL     1       0.816   5.044  -6.130  0.00  0.00    -0.240 OA
ENDBRANCH  23  25
BRANCH  22  28
ATOM     28  O   UNL     1       4.960   4.574  -6.062  0.00  0.00    -0.506 OA
ATOM     29  H   UNL     1       5.241   5.285  -6.654  0.00  0.00    +0.292 HD
ENDBRANCH  22  28
ENDBRANCH  17  19
ENDBRANCH   1  17
TORSDOF 5
