REMARK  Name = ZINC47703226
REMARK  10 active torsions:
REMARK  status: ('A' for Active; 'I' for Inactive)
REMARK    1  A    between atoms: C_1  and  C_2
REMARK    2  A    between atoms: C_6  and  C_28
REMARK    3  A    between atoms: C_7  and  N_8
REMARK    4  A    between atoms: N_11  and  C_12
REMARK    5  A    between atoms: C_12  and  C_14
REMARK    6  A    between atoms: C_12  and  C_15
REMARK    7  A    between atoms: C_18  and  N_21
REMARK    8  A    between atoms: N_24  and  C_25
REMARK    9  A    between atoms: C_28  and  C_29
REMARK   10  A    between atoms: C_28  and  C_30
REMARK                            x       y       z     vdW  Elec       q    Type
REMARK                         _______ _______ _______ _____ _____    ______ ____
ROOT
ATOM      1  C   UNL     1      -0.508   3.492   3.542  0.00  0.00    +0.102 C 
ATOM      2  C   UNL     1      -1.998   3.705   3.815  0.00  0.00    +0.033 C 
ENDROOT
BRANCH   1   6
ATOM      3  N   UNL     1      -0.079  -0.057   2.679  0.00  0.00    -0.269 N 
ATOM      4  C   UNL     1      -0.370   1.256   2.583  0.00  0.00    +0.304 C 
ATOM      5  O   UNL     1      -0.794   1.710   1.538  0.00  0.00    -0.252 OA
ATOM      6  N   UNL     1      -0.191   2.065   3.646  0.00  0.00    -0.293 N 
ATOM      7  H   UNL     1       0.207  -0.429   3.528  0.00  0.00    +0.156 HD
ATOM      8  H   UNL     1       0.147   1.703   4.480  0.00  0.00    +0.151 HD
BRANCH   3  15
ATOM      9  C   UNL     1      -2.677  -0.557   1.631  0.00  0.00    +0.045 C 
ATOM     10  C   UNL     1      -1.439  -1.152   1.011  0.00  0.00    -0.029 A 
ATOM     11  C   UNL     1      -1.545  -1.963  -0.103  0.00  0.00    +0.005 A 
ATOM     12  C   UNL     1      -0.410  -2.509  -0.672  0.00  0.00    +0.001 A 
ATOM     13  C   UNL     1       0.835  -2.247  -0.129  0.00  0.00    +0.006 A 
ATOM     14  C   UNL     1       0.947  -1.438   0.984  0.00  0.00    -0.023 A 
ATOM     15  C   UNL     1      -0.191  -0.882   1.555  0.00  0.00    +0.041 A 
BRANCH  14  16
ATOM     16  C   UNL     1       2.304  -1.153   1.575  0.00  0.00    +0.015 C 
ATOM     17  C   UNL     1       2.958  -2.467   2.007  0.00  0.00    +0.012 C 
ATOM     18  C   UNL     1       3.183  -0.465   0.529  0.00  0.00    +0.012 C 
ENDBRANCH  14  16
ENDBRANCH   3  15
ENDBRANCH   1   6
BRANCH   1  19
ATOM     19  C   UNL     1       0.304   4.262   4.552  0.00  0.00    -0.027 A 
ATOM     20  C   UNL     1       0.502   3.742   5.818  0.00  0.00    +0.007 A 
ATOM     21  C   UNL     1       1.245   4.445   6.745  0.00  0.00    +0.023 A 
ATOM     22  C   UNL     1       1.794   5.675   6.406  0.00  0.00    +0.035 A 
ATOM     23  C   UNL     1       1.593   6.194   5.134  0.00  0.00    +0.023 A 
ATOM     24  C   UNL     1       0.853   5.483   4.208  0.00  0.00    +0.007 A 
BRANCH  22  25
ATOM     25  N   UNL     1       2.547   6.390   7.344  0.00  0.00    -0.269 N 
ATOM     26  C   UNL     1       3.298   5.731   8.248  0.00  0.00    +0.304 C 
ATOM     27  O   UNL     1       3.397   4.520   8.190  0.00  0.00    -0.253 OA
ATOM     28  N   UNL     1       3.941   6.413   9.217  0.00  0.00    -0.296 N 
ATOM     29  H   UNL     1       2.528   7.359   7.343  0.00  0.00    +0.156 HD
ATOM     30  H   UNL     1       3.862   7.379   9.263  0.00  0.00    +0.151 HD
BRANCH  28  31
ATOM     31  C   UNL     1       4.757   5.697  10.200  0.00  0.00    +0.075 C 
ATOM     32  C   UNL     1       4.628   6.116  11.665  0.00  0.00    +0.024 C 
ATOM     33  C   UNL     1       5.890   6.472  10.876  0.00  0.00    +0.024 C 
ENDBRANCH  28  31
ENDBRANCH  22  25
ENDBRANCH   1  19
TORSDOF 6
