REMARK  Name = ZINC52004812
REMARK  5 active torsions:
REMARK  status: ('A' for Active; 'I' for Inactive)
REMARK    1  A    between atoms: C_3  and  C_21
REMARK    2  A    between atoms: C_4  and  S_8
REMARK    3  A    between atoms: S_8  and  N_11
REMARK    4  A    between atoms: N_11  and  C_12
REMARK    5  A    between atoms: C_18  and  O_20
REMARK                            x       y       z     vdW  Elec       q    Type
REMARK                         _______ _______ _______ _____ _____    ______ ____
ROOT
ATOM      1  S   UNL     1       4.025  -0.886  -0.005  0.00  0.00    +0.060 S 
ATOM      2  O   UNL     1       5.009  -0.395   0.895  0.00  0.00    -0.153 OA
ATOM      3  O   UNL     1       3.567  -2.231   0.027  0.00  0.00    -0.153 OA
ENDROOT
BRANCH   1   7
ATOM      4  C   UNL     1       0.364   1.745   0.509  0.00  0.00    +0.021 A 
ATOM      5  C   UNL     1       0.346   0.730  -0.424  0.00  0.00    +0.022 A 
ATOM      6  C   UNL     1       1.468  -0.084  -0.588  0.00  0.00    +0.078 A 
ATOM      7  C   UNL     1       2.604   0.136   0.195  0.00  0.00    +0.124 A 
ATOM      8  C   UNL     1       2.610   1.154   1.124  0.00  0.00    +0.049 A 
ATOM      9  C   UNL     1       1.493   1.958   1.283  0.00  0.00    +0.043 A 
ATOM     10 CL   UNL     1       1.509   3.238   2.455  0.00  0.00    -0.083 Cl
BRANCH   6  11
ATOM     11  C   UNL     1       1.455  -1.140  -1.556  0.00  0.00    +0.101 C 
ATOM     12  N   UNL     1       1.444  -1.978  -2.323  0.00  0.00    -0.191 NA
ENDBRANCH   6  11
ENDBRANCH   1   7
BRANCH   1  13
ATOM     13  N   UNL     1       4.608  -0.622  -1.533  0.00  0.00    -0.184 NA
ATOM     14  H   UNL     1       4.607  -1.341  -2.183  0.00  0.00    +0.148 HD
BRANCH  13  15
ATOM     15  C   UNL     1       5.125   0.699  -1.901  0.00  0.00    +0.105 C 
ATOM     16  C   UNL     1       6.645   0.717  -1.731  0.00  0.00    +0.023 C 
ATOM     17  C   UNL     1       7.185   2.096  -2.116  0.00  0.00    +0.002 C 
ATOM     18  C   UNL     1       6.831   2.393  -3.574  0.00  0.00    +0.003 C 
ATOM     19  C   UNL     1       5.311   2.375  -3.744  0.00  0.00    +0.033 C 
ATOM     20  C   UNL     1       4.771   0.996  -3.360  0.00  0.00    +0.133 C 
BRANCH  20  21
ATOM     21  O   UNL     1       3.351   0.979  -3.518  0.00  0.00    -0.390 OA
ATOM     22  H   UNL     1       3.054   1.160  -4.421  0.00  0.00    +0.210 HD
ENDBRANCH  20  21
ENDBRANCH  13  15
ENDBRANCH   1  13
TORSDOF 5
