REMARK  Name = ZINC32561818
REMARK  4 active torsions:
REMARK  status: ('A' for Active; 'I' for Inactive)
REMARK    1  A    between atoms: C_4  and  C_7
REMARK    2  A    between atoms: C_7  and  C_9
REMARK    3  A    between atoms: C_7  and  N_15
REMARK    4  A    between atoms: C_9  and  N_10
REMARK                            x       y       z     vdW  Elec       q    Type
REMARK                         _______ _______ _______ _____ _____    ______ ____
ROOT
ATOM      1  N   UNL     1      -2.395  -2.659   0.011  0.00  0.00    -0.320 N 
ATOM      2  C   UNL     1      -1.190  -1.986   0.003  0.00  0.00    +0.135 A 
ATOM      3  C   UNL     1       0.030  -2.692  -0.013  0.00  0.00    +0.078 A 
ATOM      4  C   UNL     1       0.384  -4.059  -0.023  0.00  0.00    +0.147 A 
ATOM      5  N   UNL     1       1.683  -4.149  -0.036  0.00  0.00    -0.180 NA
ATOM      6  N   UNL     1       2.245  -2.866  -0.034  0.00  0.00    -0.260 N 
ATOM      7  H   UNL     1       3.338  -2.744  -0.044  0.00  0.00    +0.191 HD
ATOM      8  C   UNL     1       1.230  -1.956  -0.020  0.00  0.00    +0.163 A 
ATOM      9  N   UNL     1       1.169  -0.625  -0.013  0.00  0.00    -0.195 NA
ATOM     10  C   UNL     1       0.002  -0.004   0.002  0.00  0.00    +0.216 A 
ATOM     11  N   UNL     1      -1.153  -0.659   0.015  0.00  0.00    -0.199 NA
ATOM     12  N   UNL     1      -0.017   1.380   0.010  0.00  0.00    -0.327 N 
ATOM     13  H   UNL     1      -2.411  -3.759   0.005  0.00  0.00    +0.148 HD
ATOM     14  H   UNL     1      -0.977   1.917   0.022  0.00  0.00    +0.145 HD
ATOM     15  H   UNL     1       0.928   1.942   0.004  0.00  0.00    +0.145 HD
ENDROOT
BRANCH   1  16
ATOM     16  C   UNL     1      -3.653  -1.909   0.027  0.00  0.00    +0.122 C 
BRANCH  16  20
ATOM     17  C   UNL     1      -6.730  -4.323   1.745  0.00  0.00    +0.000 A 
ATOM     18  C   UNL     1      -6.660  -2.976   2.045  0.00  0.00    +0.000 A 
ATOM     19  C   UNL     1      -5.665  -2.194   1.488  0.00  0.00    +0.005 A 
ATOM     20  C   UNL     1      -4.739  -2.761   0.633  0.00  0.00    -0.026 A 
ATOM     21  C   UNL     1      -4.811  -4.107   0.329  0.00  0.00    +0.005 A 
ATOM     22  C   UNL     1      -5.804  -4.889   0.889  0.00  0.00    +0.000 A 
ENDBRANCH  16  20
BRANCH  16  23
ATOM     23  C   UNL     1      -4.040  -1.532  -1.405  0.00  0.00    +0.149 C 
BRANCH  23  24
ATOM     24  N   UNL     1      -3.045  -0.608  -1.953  0.00  0.00    -0.335 N 
ATOM     25  C   UNL     1      -1.911  -0.949  -2.639  0.00  0.00    +0.107 A 
ATOM     26  C   UNL     1      -1.287   0.202  -2.957  0.00  0.00    +0.130 A 
ATOM     27  N   UNL     1      -2.020   1.217  -2.478  0.00  0.00    -0.244 NA
ATOM     28  C   UNL     1      -3.077   0.741  -1.880  0.00  0.00    +0.199 A 
ENDBRANCH  23  24
ENDBRANCH  16  23
ENDBRANCH   1  16
TORSDOF 4
