REMARK  Name = ZINC45599372
REMARK  11 active torsions:
REMARK  status: ('A' for Active; 'I' for Inactive)
REMARK    1  A    between atoms: C_1  and  C_2
REMARK    2  A    between atoms: C_3  and  C_29
REMARK    3  A    between atoms: N_9  and  C_26
REMARK    4  A    between atoms: C_10  and  S_12
REMARK    5  A    between atoms: S_12  and  C_13
REMARK    6  A    between atoms: C_13  and  C_15
REMARK    7  A    between atoms: C_13  and  C_16
REMARK    8  A    between atoms: N_22  and  C_23
REMARK    9  A    between atoms: N_22  and  C_24
REMARK   10  A    between atoms: C_26  and  C_27
REMARK   11  A    between atoms: C_26  and  C_28
REMARK                            x       y       z     vdW  Elec       q    Type
REMARK                         _______ _______ _______ _____ _____    ______ ____
ROOT
ATOM      1  C   UNL     1      -0.018   1.503   0.010  0.00  0.00    +0.045 C 
ATOM      2  C   UNL     1       0.002  -0.004   0.002  0.00  0.00    -0.026 A 
ATOM      3  C   UNL     1       0.006  -0.676  -1.159  0.00  0.00    -0.008 A 
ATOM      4  S   UNL     1       0.031  -2.384  -0.648  0.00  0.00    -0.073 S 
ATOM      5  C   UNL     1       0.036  -2.146   1.110  0.00  0.00    +0.117 A 
ATOM      6  C   UNL     1       0.024  -0.746   1.251  0.00  0.00    +0.075 A 
ATOM      7  C   UNL     1       0.030  -0.255   2.595  0.00  0.00    +0.263 A 
ATOM      8  O   UNL     1       0.015   0.944   2.815  0.00  0.00    -0.267 OA
ATOM      9  N   UNL     1       0.051  -1.135   3.613  0.00  0.00    -0.285 N 
ATOM     10  C   UNL     1       0.067  -2.481   3.386  0.00  0.00    +0.174 A 
ATOM     11  N   UNL     1       0.052  -2.960   2.159  0.00  0.00    -0.216 NA
ATOM     12  C   UNL     1      -0.009  -0.120  -2.559  0.00  0.00    +0.052 C 
ENDROOT
BRANCH   9  13
ATOM     13  C   UNL     1       0.057  -0.638   4.992  0.00  0.00    +0.087 C 
ATOM     14  C   UNL     1       1.297   0.230   5.215  0.00  0.00    +0.031 C 
ATOM     15  C   UNL     1      -1.201   0.196   5.239  0.00  0.00    +0.031 C 
ENDBRANCH   9  13
BRANCH  10  16
ATOM     16  S   UNL     1       0.095  -3.592   4.753  0.00  0.00    -0.077 S 
BRANCH  16  17
ATOM     17  C   UNL     1       0.110  -5.234   3.983  0.00  0.00    +0.119 C 
ATOM     18  C   UNL     1      -1.202  -5.455   3.226  0.00  0.00    +0.028 C 
BRANCH  17  19
ATOM     19  C   UNL     1       0.258  -6.288   5.049  0.00  0.00    +0.149 A 
ATOM     20  N   UNL     1      -0.467  -6.216   6.153  0.00  0.00    -0.198 NA
ATOM     21  C   UNL     1      -0.339  -7.145   7.097  0.00  0.00    +0.217 A 
ATOM     22  N   UNL     1       0.518  -8.147   6.929  0.00  0.00    -0.181 NA
ATOM     23  C   UNL     1       1.244  -8.216   5.819  0.00  0.00    +0.222 A 
ATOM     24  N   UNL     1       1.107  -7.286   4.877  0.00  0.00    -0.198 NA
ATOM     25  N   UNL     1       2.135  -9.254   5.641  0.00  0.00    -0.306 N 
ATOM     26  C   UNL     1       2.282 -10.281   6.676  0.00  0.00    +0.132 C 
ATOM     27  C   UNL     1       2.936  -9.330   4.416  0.00  0.00    +0.132 C 
ATOM     28  N   UNL     1      -1.095  -7.068   8.248  0.00  0.00    -0.327 N 
ATOM     29  H   UNL     1      -1.720  -6.336   8.370  0.00  0.00    +0.145 HD
ATOM     30  H   UNL     1      -1.002  -7.746   8.936  0.00  0.00    +0.145 HD
ENDBRANCH  17  19
ENDBRANCH  16  17
ENDBRANCH  10  16
TORSDOF 4
