REMARK  Name = ZINC37471366
REMARK  6 active torsions:
REMARK  status: ('A' for Active; 'I' for Inactive)
REMARK    1  A    between atoms: C_1  and  C_2
REMARK    2  A    between atoms: C_2  and  N_3
REMARK    3  A    between atoms: N_3  and  S_4
REMARK    4  A    between atoms: S_4  and  C_7
REMARK    5  A    between atoms: C_8  and  N_15
REMARK    6  A    between atoms: N_15  and  N_16
REMARK                            x       y       z     vdW  Elec       q    Type
REMARK                         _______ _______ _______ _____ _____    ______ ____
ROOT
ATOM      1  C   UNL     1      -0.256  -3.060  -1.302  0.00  0.00    +0.222 A 
ATOM      2  C   UNL     1      -0.869  -3.568  -0.213  0.00  0.00    +0.179 A 
ATOM      3  N   UNL     1      -1.933  -4.280  -0.622  0.00  0.00    -0.203 NA
ATOM      4  C   UNL     1      -2.002  -4.231  -1.923  0.00  0.00    +0.181 A 
ATOM      5  N   UNL     1      -0.979  -3.473  -2.425  0.00  0.00    -0.276 N 
ATOM      6  C   UNL     1      -0.925  -3.324  -3.793  0.00  0.00    +0.102 A 
ATOM      7  C   UNL     1      -1.837  -3.896  -4.578  0.00  0.00    +0.067 A 
ATOM      8  S   UNL     1      -2.876  -4.730  -3.388  0.00  0.00    -0.058 S 
ENDROOT
BRANCH   1   9
ATOM      9  S   UNL     1       1.189  -2.051  -1.307  0.00  0.00    +0.078 S 
ATOM     10  O   UNL     1       1.786  -2.204  -2.588  0.00  0.00    -0.151 OA
ATOM     11  O   UNL     1       1.887  -2.336  -0.102  0.00  0.00    -0.151 OA
BRANCH   9  12
ATOM     12  N   UNL     1       0.688  -0.476  -1.203  0.00  0.00    -0.189 NA
ATOM     13  H   UNL     1       0.848   0.133  -1.941  0.00  0.00    +0.148 HD
BRANCH  12  15
ATOM     14  C   UNL     1      -0.019   1.526   0.010  0.00  0.00    +0.022 C 
ATOM     15  C   UNL     1       0.002  -0.004   0.002  0.00  0.00    +0.102 C 
ENDBRANCH  12  15
ENDBRANCH   9  12
ENDBRANCH   1   9
BRANCH   2  16
ATOM     16  N   UNL     1      -0.464  -3.386   1.118  0.00  0.00    -0.265 N 
ATOM     17  H   UNL     1       0.322  -2.853   1.318  0.00  0.00    +0.168 HD
BRANCH  16  18
ATOM     18  N   UNL     1      -1.177  -3.959   2.133  0.00  0.00    -0.255 NA
ATOM     19  H   UNL     1      -0.768  -3.741   3.030  0.00  0.00    +0.140 HD
ATOM     20  H   UNL     1      -2.145  -3.677   2.099  0.00  0.00    +0.140 HD
ENDBRANCH  16  18
ENDBRANCH   2  16
TORSDOF 5
