REMARK  Name = ZINC37055367
REMARK  5 active torsions:
REMARK  status: ('A' for Active; 'I' for Inactive)
REMARK    1  A    between atoms: C_1  and  C_2
REMARK    2  A    between atoms: C_4  and  N_21
REMARK    3  A    between atoms: C_7  and  S_8
REMARK    4  A    between atoms: S_8  and  N_11
REMARK    5  A    between atoms: C_15  and  C_18
REMARK                            x       y       z     vdW  Elec       q    Type
REMARK                         _______ _______ _______ _____ _____    ______ ____
ROOT
ATOM      1  S   UNL     1       0.025   0.175   2.725  0.00  0.00    +0.061 S 
ATOM      2  O   UNL     1      -1.014   1.140   2.642  0.00  0.00    -0.153 OA
ATOM      3  O   UNL     1       0.076  -0.804   3.754  0.00  0.00    -0.153 OA
ENDROOT
BRANCH   1  10
ATOM      4  C   UNL     1      -0.018   1.503   0.010  0.00  0.00    +0.046 C 
ATOM      5  C   UNL     1       0.002  -0.004   0.002  0.00  0.00    -0.022 A 
ATOM      6  C   UNL     1       0.006  -0.687  -1.198  0.00  0.00    +0.028 A 
ATOM      7  C   UNL     1       0.025  -2.076  -1.205  0.00  0.00    +0.025 A 
ATOM      8  C   UNL     1       0.041  -2.773  -0.004  0.00  0.00    +0.024 A 
ATOM      9  C   UNL     1       0.037  -2.084   1.193  0.00  0.00    +0.030 A 
ATOM     10  C   UNL     1       0.023  -0.701   1.196  0.00  0.00    +0.108 A 
BRANCH   7  11
ATOM     11  N   UNL     1       0.028  -2.770  -2.417  0.00  0.00    -0.358 N 
ATOM     12  H   UNL     1       0.017  -2.282  -3.256  0.00  0.00    +0.142 HD
ATOM     13  H   UNL     1       0.042  -3.740  -2.421  0.00  0.00    +0.142 HD
ENDBRANCH   7  11
ENDBRANCH   1  10
BRANCH   1  14
ATOM     14  N   UNL     1       1.449   1.018   2.804  0.00  0.00    -0.176 NA
ATOM     15  C   UNL     1       2.647   0.410   3.399  0.00  0.00    +0.109 C 
ATOM     16  C   UNL     1       3.187   1.345   4.485  0.00  0.00    +0.018 C 
ATOM     17  C   UNL     1       3.418   2.735   3.888  0.00  0.00    +0.015 C 
ATOM     18  C   UNL     1       2.090   3.301   3.380  0.00  0.00    +0.090 C 
ATOM     19  C   UNL     1       1.539   2.386   2.276  0.00  0.00    +0.122 C 
BRANCH  18  20
ATOM     20  C   UNL     1       2.313   4.683   2.822  0.00  0.00    +0.215 C 
ATOM     21  O   UNL     1       2.053   4.917   1.660  0.00  0.00    -0.276 OA
ATOM     22  N   UNL     1       2.801   5.658   3.613  0.00  0.00    -0.329 N 
ATOM     23  H   UNL     1       3.008   5.471   4.542  0.00  0.00    +0.145 HD
ATOM     24  H   UNL     1       2.944   6.548   3.254  0.00  0.00    +0.145 HD
ENDBRANCH  18  20
ENDBRANCH   1  14
TORSDOF 4
