REMARK  Name = ZINC58214902
REMARK  6 active torsions:
REMARK  status: ('A' for Active; 'I' for Inactive)
REMARK    1  A    between atoms: C_4  and  N_22
REMARK    2  A    between atoms: C_6  and  C_7
REMARK    3  A    between atoms: C_7  and  N_8
REMARK    4  A    between atoms: N_11  and  C_12
REMARK    5  A    between atoms: C_12  and  C_13
REMARK    6  A    between atoms: N_15  and  C_16
REMARK                            x       y       z     vdW  Elec       q    Type
REMARK                         _______ _______ _______ _____ _____    ______ ____
ROOT
ATOM      1  N   UNL     1      -1.699  -1.012  -1.431  0.00  0.00    -0.295 N 
ATOM      2  C   UNL     1      -2.829  -1.698  -1.694  0.00  0.00    +0.300 C 
ATOM      3  O   UNL     1      -3.502  -2.134  -0.781  0.00  0.00    -0.253 OA
ATOM      4  N   UNL     1      -3.211  -1.902  -2.971  0.00  0.00    -0.291 N 
ATOM      5  H   UNL     1      -1.161  -0.664  -2.160  0.00  0.00    +0.151 HD
ATOM      6  H   UNL     1      -2.674  -1.554  -3.699  0.00  0.00    +0.151 HD
ENDROOT
BRANCH   1   7
ATOM      7  C   UNL     1      -1.283  -0.791  -0.044  0.00  0.00    +0.141 C 
BRANCH   7  13
ATOM      8  C   UNL     1      -0.017   1.384   0.010  0.00  0.00    +0.023 A 
ATOM      9  C   UNL     1       1.178   2.076   0.028  0.00  0.00    +0.084 A 
ATOM     10  N   UNL     1       2.331   1.436   0.013  0.00  0.00    -0.350 N 
ATOM     11  C   UNL     1       2.391   0.113  -0.021  0.00  0.00    +0.099 A 
ATOM     12  C   UNL     1       1.226  -0.647  -0.041  0.00  0.00    +0.047 A 
ATOM     13  C   UNL     1       0.002  -0.004  -0.024  0.00  0.00    -0.026 A 
ATOM     14  H   UNL     1       3.156   1.946   0.026  0.00  0.00    +0.166 HD
BRANCH  11  15
ATOM     15  N   UNL     1       3.628  -0.520  -0.036  0.00  0.00    -0.317 N 
ATOM     16  C   UNL     1       4.867   0.261  -0.148  0.00  0.00    +0.106 C 
ATOM     17  C   UNL     1       5.799  -0.125   1.006  0.00  0.00    +0.019 C 
ATOM     18  C   UNL     1       6.008  -1.641   1.002  0.00  0.00    +0.003 C 
ATOM     19  C   UNL     1       4.665  -2.344   1.210  0.00  0.00    +0.019 C 
ATOM     20  C   UNL     1       3.721  -1.983   0.065  0.00  0.00    +0.106 C 
ENDBRANCH  11  15
ENDBRANCH   7  13
ENDBRANCH   1   7
BRANCH   4  21
ATOM     21  C   UNL     1      -4.439  -2.648  -3.257  0.00  0.00    +0.201 C 
BRANCH  21  22
ATOM     22  C   UNL     1      -4.639  -2.733  -4.748  0.00  0.00    +0.230 C 
ATOM     23  O   UNL     1      -3.835  -2.221  -5.498  0.00  0.00    -0.274 OA
ATOM     24  N   UNL     1      -5.711  -3.378  -5.249  0.00  0.00    -0.311 N 
ATOM     25  H   UNL     1      -6.354  -3.788  -4.649  0.00  0.00    +0.149 HD
BRANCH  24  26
ATOM     26  C   UNL     1      -5.905  -3.462  -6.699  0.00  0.00    +0.073 C 
ATOM     27  C   UNL     1      -6.618  -2.200  -7.191  0.00  0.00    +0.022 C 
ATOM     28  C   UNL     1      -6.821  -2.287  -8.705  0.00  0.00    +0.002 C 
ATOM     29  C   UNL     1      -7.670  -3.515  -9.036  0.00  0.00    +0.000 C 
ATOM     30  C   UNL     1      -6.957  -4.777  -8.544  0.00  0.00    +0.002 C 
ATOM     31  C   UNL     1      -6.755  -4.690  -7.030  0.00  0.00    +0.022 C 
ENDBRANCH  24  26
ENDBRANCH  21  22
ENDBRANCH   4  21
TORSDOF 6
