REMARK  Name = ZINC19893729
REMARK  7 active torsions:
REMARK  status: ('A' for Active; 'I' for Inactive)
REMARK    1  A    between atoms: C_1  and  C_2
REMARK    2  A    between atoms: C_17  and  C_29
REMARK    3  A    between atoms: C_22  and  C_23
REMARK    4  A    between atoms: C_22  and  O_28
REMARK    5  A    between atoms: C_23  and  C_25
REMARK    6  A    between atoms: C_23  and  O_27
REMARK    7  A    between atoms: C_25  and  O_26
REMARK                            x       y       z     vdW  Elec       q    Type
REMARK                         _______ _______ _______ _____ _____    ______ ____
ROOT
ATOM      1  C   UNL     1      -0.476   3.118  -5.114  0.00  0.00    +0.016 C 
ATOM      2  C   UNL     1      -0.477   4.415  -4.297  0.00  0.00    -0.007 C 
ATOM      3  C   UNL     1      -1.897   4.929  -4.420  0.00  0.00    +0.019 C 
ATOM      4  C   UNL     1      -2.007   6.437  -4.593  0.00  0.00    +0.080 C 
ATOM      5  C   UNL     1      -1.080   6.879  -5.705  0.00  0.00    +0.156 C 
ATOM      6  O   UNL     1      -1.455   7.602  -6.606  0.00  0.00    -0.293 OA
ATOM      7  C   UNL     1       0.299   6.383  -5.631  0.00  0.00    +0.046 C 
ATOM      8  C   UNL     1       0.564   5.288  -4.932  0.00  0.00    -0.060 C 
ATOM      9  C   UNL     1       2.012   4.846  -4.792  0.00  0.00    +0.032 C 
ATOM     10  C   UNL     1       2.291   4.785  -3.285  0.00  0.00    +0.008 C 
ATOM     11  C   UNL     1       1.354   3.777  -2.619  0.00  0.00    -0.003 C 
ATOM     12  C   UNL     1      -0.107   4.098  -2.862  0.00  0.00    +0.002 C 
ATOM     13  C   UNL     1      -1.030   3.081  -2.218  0.00  0.00    +0.005 C 
ATOM     14  C   UNL     1      -0.627   1.640  -2.374  0.00  0.00    +0.010 C 
ATOM     15  C   UNL     1       0.829   1.322  -2.363  0.00  0.00    +0.002 C 
ATOM     16  C   UNL     1       1.740   2.359  -3.019  0.00  0.00    +0.001 C 
ATOM     17  C   UNL     1       3.136   2.050  -2.404  0.00  0.00    +0.007 C 
ATOM     18  C   UNL     1       2.812   1.655  -0.945  0.00  0.00    +0.038 C 
ATOM     19  C   UNL     1       1.429   0.966  -1.005  0.00  0.00    +0.100 C 
ATOM     20  C   UNL     1       0.979   0.053  -3.219  0.00  0.00    +0.014 C 
ENDROOT
BRANCH  19  21
ATOM     21  O   UNL     1       1.599  -0.454  -0.907  0.00  0.00    -0.385 OA
ATOM     22  H   UNL     1       2.022  -0.896   0.007  0.00  0.00    +0.210 HD
ENDBRANCH  19  21
BRANCH  19  23
ATOM     23  C   UNL     1       0.570   1.459   0.160  0.00  0.00    +0.172 C 
BRANCH  23  24
ATOM     24  O   UNL     1      -0.670   0.749   0.171  0.00  0.00    -0.387 OA
ATOM     25  H   UNL     1      -1.422   0.968   0.943  0.00  0.00    +0.210 HD
ENDBRANCH  23  24
BRANCH  23  26
ATOM     26  C   UNL     1       1.309   1.215   1.477  0.00  0.00    +0.190 C 
BRANCH  26  27
ATOM     27  O   UNL     1       0.560   1.779   2.555  0.00  0.00    -0.392 OA
ATOM     28  H   UNL     1       0.936   1.703   3.586  0.00  0.00    +0.210 HD
ENDBRANCH  26  27
ENDBRANCH  23  26
ENDBRANCH  19  23
TORSDOF 5
