REMARK  Name = ZINC65182328
REMARK  12 active torsions:
REMARK  status: ('A' for Active; 'I' for Inactive)
REMARK    1  A    between atoms: C_1  and  C_2
REMARK    2  A    between atoms: C_2  and  C_3
REMARK    3  A    between atoms: C_6  and  C_34
REMARK    4  A    between atoms: C_11  and  C_13
REMARK    5  A    between atoms: C_16  and  C_19
REMARK    6  A    between atoms: C_19  and  C_20
REMARK    7  A    between atoms: C_20  and  N_21
REMARK    8  A    between atoms: N_21  and  C_22
REMARK    9  A    between atoms: C_23  and  C_25
REMARK   10  A    between atoms: C_28  and  N_31
REMARK   11  A    between atoms: N_31  and  C_32
REMARK   12  A    between atoms: N_31  and  C_33
REMARK                            x       y       z     vdW  Elec       q    Type
REMARK                         _______ _______ _______ _____ _____    ______ ____
ROOT
ATOM      1  C   UNL     1       1.927  -2.609  -0.436  0.00  0.00    +0.318 C 
ATOM      2  N   UNL     1       2.194  -3.981  -0.898  0.00  0.00    -0.291 N 
ATOM      3  C   UNL     1       1.634  -4.829   0.027  0.00  0.00    +0.139 C 
ATOM      4  N   UNL     1       1.068  -4.180   0.979  0.00  0.00    -0.072 NA
ATOM      5  O   UNL     1       1.194  -2.781   0.787  0.00  0.00    -0.367 OA
ATOM      6  H   UNL     1       2.674  -4.237  -1.702  0.00  0.00    +0.151 HD
ENDROOT
BRANCH   1  15
ATOM      7  C   UNL     1       0.878  -0.422  -1.020  0.00  0.00    -0.033 C 
ATOM      8  C   UNL     1       1.436   0.351  -1.978  0.00  0.00    -0.000 A 
ATOM      9  C   UNL     1       1.569   1.805  -2.131  0.00  0.00    +0.013 A 
ATOM     10  C   UNL     1       2.192   2.296  -3.226  0.00  0.00    -0.050 A 
ATOM     11  C   UNL     1       2.712   1.452  -4.218  0.00  0.00    +0.005 A 
ATOM     12  C   UNL     1       2.629   0.107  -4.148  0.00  0.00    +0.026 A 
ATOM     13  C   UNL     1       1.994  -0.517  -3.039  0.00  0.00    +0.043 A 
ATOM     14  N   UNL     1       1.789  -1.779  -2.747  0.00  0.00    -0.373 N 
ATOM     15  C   UNL     1       1.082  -1.853  -1.464  0.00  0.00    +0.169 C 
ATOM     16  C   UNL     1       2.331   3.788  -3.385  0.00  0.00    +0.044 C 
ATOM     17  H   UNL     1       2.063  -2.537  -3.288  0.00  0.00    +0.160 HD
BRANCH   7  19
ATOM     18  C   UNL     1       0.213   1.576   0.290  0.00  0.00    +0.008 C 
ATOM     19  C   UNL     1       0.196   0.047   0.240  0.00  0.00    +0.030 C 
ENDBRANCH   7  19
ENDBRANCH   1  15
BRANCH   3  20
ATOM     20  C   UNL     1       1.678  -6.333  -0.065  0.00  0.00    +0.094 C 
BRANCH  20  21
ATOM     21  C   UNL     1       0.953  -6.939   1.139  0.00  0.00    +0.115 C 
BRANCH  21  22
ATOM     22  N   UNL     1       0.996  -8.400   1.050  0.00  0.00    -0.300 N 
ATOM     23  C   UNL     1       2.106  -9.139   1.657  0.00  0.00    +0.132 C 
ATOM     24  C   UNL     1       0.014  -9.065   0.409  0.00  0.00    +0.246 C 
ATOM     25  O   UNL     1      -0.850  -8.450  -0.186  0.00  0.00    -0.270 OA
BRANCH  24  26
ATOM     26  C   UNL     1      -0.013 -10.540   0.429  0.00  0.00    +0.037 A 
ATOM     27  C   UNL     1       0.408 -11.233   1.568  0.00  0.00    +0.015 A 
ATOM     28  C   UNL     1       0.381 -12.608   1.584  0.00  0.00    +0.024 A 
ATOM     29  C   UNL     1      -0.063 -13.310   0.467  0.00  0.00    +0.029 A 
ATOM     30  C   UNL     1      -0.482 -12.624  -0.669  0.00  0.00    +0.024 A 
ATOM     31  C   UNL     1      -0.464 -11.248  -0.689  0.00  0.00    +0.015 A 
BRANCH  29  32
ATOM     32  N   UNL     1      -0.088 -14.701   0.486  0.00  0.00    -0.336 N 
ATOM     33  C   UNL     1       0.352 -15.425   1.680  0.00  0.00    +0.129 C 
ATOM     34  C   UNL     1      -0.556 -15.441  -0.689  0.00  0.00    +0.129 C 
ENDBRANCH  29  32
ENDBRANCH  24  26
ENDBRANCH  21  22
ENDBRANCH  20  21
ENDBRANCH   3  20
TORSDOF 7
