REMARK  Name = ZINC39041074
REMARK  9 active torsions:
REMARK  status: ('A' for Active; 'I' for Inactive)
REMARK    1  A    between atoms: C_1  and  C_2
REMARK    2  A    between atoms: C_4  and  C_9
REMARK    3  A    between atoms: C_5  and  C_8
REMARK    4  A    between atoms: C_9  and  C_10
REMARK    5  A    between atoms: C_11  and  C_25
REMARK    6  A    between atoms: N_13  and  C_18
REMARK    7  A    between atoms: C_21  and  C_24
REMARK    8  A    between atoms: C_30  and  O_31
REMARK    9  A    between atoms: O_31  and  C_32
REMARK                            x       y       z     vdW  Elec       q    Type
REMARK                         _______ _______ _______ _____ _____    ______ ____
ROOT
ATOM      1  C   UNL     1      -2.323   0.285  -2.066  0.00  0.00    +0.076 C 
ATOM      2  C   UNL     1      -0.945   0.718  -2.508  0.00  0.00    +0.150 C 
ATOM      3  N   UNL     1      -1.123   1.405  -3.793  0.00  0.00    -0.261 N 
ATOM      4  C   UNL     1      -2.435   1.390  -4.091  0.00  0.00    +0.289 C 
ATOM      5  O   UNL     1      -2.929   1.874  -5.090  0.00  0.00    -0.266 OA
ATOM      6  C   UNL     1      -3.187   0.693  -3.026  0.00  0.00    +0.249 C 
ATOM      7  O   UNL     1      -4.525   0.495  -3.012  0.00  0.00    -0.282 OA
ENDROOT
BRANCH   3   8
ATOM      8  C   UNL     1      -0.061   2.000  -4.607  0.00  0.00    +0.208 C 
ATOM      9  C   UNL     1      -0.122   3.515  -4.547  0.00  0.00    +0.057 C 
ATOM     10  C   UNL     1      -0.675   3.942  -5.662  0.00  0.00    +0.121 C 
ATOM     11  O   UNL     1      -1.016   2.925  -6.489  0.00  0.00    -0.409 OA
ATOM     12  N   UNL     1      -0.282   1.719  -6.049  0.00  0.00    -0.131 NA
ATOM     13  C   UNL     1      -0.903   5.397  -5.982  0.00  0.00    +0.088 C 
ATOM     14  H   UNL     1       0.596   1.630  -6.539  0.00  0.00    +0.170 HD
ENDBRANCH   3   8
BRANCH   2  15
ATOM     15  C   UNL     1      -0.054  -0.485  -2.681  0.00  0.00    +0.019 A 
ATOM     16  C   UNL     1       0.058  -1.089  -3.919  0.00  0.00    +0.009 A 
ATOM     17  C   UNL     1       0.875  -2.194  -4.079  0.00  0.00    +0.001 A 
ATOM     18  C   UNL     1       1.581  -2.696  -3.001  0.00  0.00    +0.004 A 
ATOM     19  C   UNL     1       1.472  -2.096  -1.762  0.00  0.00    +0.046 A 
ATOM     20  C   UNL     1       0.657  -0.984  -1.600  0.00  0.00    +0.125 A 
BRANCH  20  21
ATOM     21  O   UNL     1       0.553  -0.388  -0.383  0.00  0.00    -0.495 OA
ATOM     22  C   UNL     1       1.393  -0.888   0.659  0.00  0.00    +0.277 C 
ENDBRANCH  20  21
ENDBRANCH   2  15
BRANCH   1  23
ATOM     23  C   UNL     1      -2.660  -0.441  -0.838  0.00  0.00    +0.193 C 
ATOM     24  O   UNL     1      -3.098  -1.575  -0.902  0.00  0.00    -0.287 OA
BRANCH  23  27
ATOM     25  C   UNL     1      -3.075   2.600   0.147  0.00  0.00    +0.035 C 
ATOM     26  C   UNL     1      -2.049   1.630   0.737  0.00  0.00    +0.110 C 
ATOM     27  C   UNL     1      -2.469   0.200   0.472  0.00  0.00    +0.026 C 
ATOM     28  C   UNL     1      -2.631  -0.364   1.688  0.00  0.00    -0.026 C 
ATOM     29  C   UNL     1      -2.337   0.630   2.721  0.00  0.00    +0.082 C 
ATOM     30  N   UNL     1      -2.006   1.764   2.198  0.00  0.00    -0.383 N 
ATOM     31  C   UNL     1      -3.049  -1.790   1.941  0.00  0.00    +0.046 C 
ATOM     32  H   UNL     1      -1.768   2.567   2.687  0.00  0.00    +0.160 HD
ENDBRANCH  23  27
ENDBRANCH   1  23
TORSDOF 5
