REMARK  Name = ZINC12679625
REMARK  8 active torsions:
REMARK  status: ('A' for Active; 'I' for Inactive)
REMARK    1  A    between atoms: C_3  and  S_8
REMARK    2  A    between atoms: S_8  and  C_9
REMARK    3  A    between atoms: C_9  and  C_10
REMARK    4  A    between atoms: C_10  and  C_11
REMARK    5  A    between atoms: N_13  and  N_14
REMARK    6  A    between atoms: C_15  and  C_17
REMARK    7  A    between atoms: C_20  and  N_26
REMARK    8  A    between atoms: C_21  and  N_23
REMARK                            x       y       z     vdW  Elec       q    Type
REMARK                         _______ _______ _______ _____ _____    ______ ____
ROOT
ATOM      1  N   UNL     1       9.889  -0.094   0.055  0.00  0.00    -0.230 N 
ATOM      2  C   UNL     1      11.165   0.247  -0.212  0.00  0.00    +0.260 C 
ATOM      3  O   UNL     1      11.442   1.399  -0.487  0.00  0.00    -0.269 OA
ATOM      4  H   UNL     1       9.668  -1.013   0.275  0.00  0.00    +0.173 HD
ENDROOT
BRANCH   2   5
ATOM      5  C   UNL     1      12.226  -0.777  -0.172  0.00  0.00    +0.040 A 
ATOM      6  C   UNL     1      11.909  -2.103   0.138  0.00  0.00    +0.015 A 
ATOM      7  C   UNL     1      12.900  -3.056   0.175  0.00  0.00    +0.026 A 
ATOM      8  C   UNL     1      14.219  -2.701  -0.097  0.00  0.00    +0.055 A 
ATOM      9  C   UNL     1      14.538  -1.382  -0.406  0.00  0.00    +0.147 A 
ATOM     10  C   UNL     1      13.550  -0.425  -0.449  0.00  0.00    +0.047 A 
BRANCH   9  11
ATOM     11  N   UNL     1      15.942  -1.009  -0.694  0.00  0.00    +0.058 N 
ATOM     12  O   UNL     1      16.373   0.056  -0.317  0.00  0.00    -0.126 OA
ATOM     13  O   UNL     1      16.656  -1.769  -1.305  0.00  0.00    -0.126 OA
ENDBRANCH   9  11
BRANCH   8  14
ATOM     14  N   UNL     1      15.219  -3.666  -0.059  0.00  0.00    -0.356 N 
ATOM     15  H   UNL     1      14.986  -4.602   0.044  0.00  0.00    +0.142 HD
ATOM     16  H   UNL     1      16.150  -3.404  -0.135  0.00  0.00    +0.142 HD
ENDBRANCH   8  14
ENDBRANCH   2   5
BRANCH   1  19
ATOM     17  C   UNL     1       7.605   0.538   0.284  0.00  0.00    +0.230 C 
ATOM     18  O   UNL     1       7.329  -0.611   0.559  0.00  0.00    -0.274 OA
ATOM     19  N   UNL     1       8.881   0.879   0.017  0.00  0.00    -0.234 N 
ATOM     20  H   UNL     1       9.102   1.797  -0.202  0.00  0.00    +0.173 HD
BRANCH  17  21
ATOM     21  C   UNL     1       6.521   1.584   0.243  0.00  0.00    +0.108 C 
BRANCH  21  22
ATOM     22  C   UNL     1       5.176   0.938   0.583  0.00  0.00    +0.083 C 
BRANCH  22  23
ATOM     23  S   UNL     1       3.871   2.198   0.533  0.00  0.00    -0.125 S 
BRANCH  23  26
ATOM     24  C   UNL     1       0.037   1.271   1.317  0.00  0.00    +0.039 A 
ATOM     25  C   UNL     1       1.185   1.970   0.998  0.00  0.00    +0.017 A 
ATOM     26  C   UNL     1       2.405   1.309   0.940  0.00  0.00    +0.008 A 
ATOM     27  C   UNL     1       2.468  -0.054   1.204  0.00  0.00    +0.017 A 
ATOM     28  C   UNL     1       1.318  -0.748   1.523  0.00  0.00    +0.039 A 
ATOM     29  C   UNL     1       0.102  -0.087   1.579  0.00  0.00    +0.123 A 
ATOM     30  F   UNL     1      -1.022  -0.769   1.891  0.00  0.00    -0.205 F 
ENDBRANCH  23  26
ENDBRANCH  22  23
ENDBRANCH  21  22
ENDBRANCH  17  21
ENDBRANCH   1  19
TORSDOF 8
