REMARK  Name = ZINC32092667
REMARK  6 active torsions:
REMARK  status: ('A' for Active; 'I' for Inactive)
REMARK    1  A    between atoms: C_1  and  C_2
REMARK    2  A    between atoms: C_2  and  C_3
REMARK    3  A    between atoms: C_2  and  C_4
REMARK    4  A    between atoms: C_2  and  N_5
REMARK    5  A    between atoms: C_12  and  O_14
REMARK    6  A    between atoms: N_22  and  C_25
REMARK                            x       y       z     vdW  Elec       q    Type
REMARK                         _______ _______ _______ _____ _____    ______ ____
ROOT
ATOM      1  N   UNL     1       0.688  -0.476  -1.203  0.00  0.00    -0.241 N 
ATOM      2  C   UNL     1       0.891  -1.765  -1.550  0.00  0.00    +0.159 A 
ATOM      3  C   UNL     1       1.586  -1.760  -2.754  0.00  0.00    +0.036 A 
ATOM      4  C   UNL     1       1.785  -0.443  -3.123  0.00  0.00    +0.141 A 
ATOM      5  N   UNL     1       1.246   0.330  -2.208  0.00  0.00    -0.177 NA
ATOM      6  C   UNL     1       1.992  -3.043  -3.424  0.00  0.00    +0.113 C 
ATOM      7  C   UNL     1       0.991  -4.132  -3.042  0.00  0.00    +0.121 C 
ATOM      8  C   UNL     1       0.619  -4.049  -1.589  0.00  0.00    +0.191 C 
ATOM      9  N   UNL     1       0.558  -2.932  -0.928  0.00  0.00    -0.198 NA
ATOM     10  C   UNL     1       3.386  -3.434  -3.053  0.00  0.00    +0.012 A 
ATOM     11  C   UNL     1       4.113  -3.467  -4.250  0.00  0.00    +0.042 A 
ATOM     12  C   UNL     1       5.467  -3.803  -4.240  0.00  0.00    +0.024 A 
ATOM     13  C   UNL     1       6.040  -4.096  -3.012  0.00  0.00    +0.003 A 
ATOM     14  C   UNL     1       5.314  -4.061  -1.840  0.00  0.00    +0.020 A 
ATOM     15  C   UNL     1       3.962  -3.727  -1.835  0.00  0.00    +0.047 A 
ATOM     16 CL   UNL     1       3.044  -3.681  -0.362  0.00  0.00    -0.083 Cl
ATOM     17  N   UNL     1       3.298  -3.132  -5.317  0.00  0.00    -0.273 N 
ATOM     18  C   UNL     1       2.034  -2.867  -4.925  0.00  0.00    +0.235 C 
ATOM     19  O   UNL     1       1.107  -2.550  -5.640  0.00  0.00    -0.274 OA
ATOM     20  C   UNL     1       3.753  -3.074  -6.709  0.00  0.00    +0.138 C 
ENDROOT
BRANCH   1  22
ATOM     21  C   UNL     1      -0.019   1.526   0.010  0.00  0.00    +0.036 C 
ATOM     22  C   UNL     1       0.002  -0.004   0.002  0.00  0.00    +0.057 C 
ATOM     23  C   UNL     1       0.742  -0.511   1.242  0.00  0.00    +0.036 C 
ATOM     24  C   UNL     1      -1.433  -0.534   0.013  0.00  0.00    +0.036 C 
ENDBRANCH   1  22
BRANCH   8  25
ATOM     25  O   UNL     1       0.332  -5.194  -0.937  0.00  0.00    -0.495 OA
ATOM     26  H   UNL     1       0.101  -5.069  -0.006  0.00  0.00    +0.293 HD
ENDBRANCH   8  25
TORSDOF 2
