REMARK  Name = ZINC06498947
REMARK  8 active torsions:
REMARK  status: ('A' for Active; 'I' for Inactive)
REMARK    1  A    between atoms: C_1  and  O_2
REMARK    2  A    between atoms: O_2  and  C_3
REMARK    3  A    between atoms: C_3  and  C_5
REMARK    4  A    between atoms: C_5  and  C_6
REMARK    5  A    between atoms: C_13  and  N_35
REMARK    6  A    between atoms: C_14  and  C_33
REMARK    7  A    between atoms: N_22  and  C_25
REMARK    8  A    between atoms: C_25  and  C_26
REMARK                            x       y       z     vdW  Elec       q    Type
REMARK                         _______ _______ _______ _____ _____    ______ ____
ROOT
ATOM      1  C   UNL     1       1.374  -2.514  -2.380  0.00  0.00    +0.055 A 
ATOM      2  C   UNL     1       2.701  -2.634  -2.533  0.00  0.00    +0.062 A 
ATOM      3  C   UNL     1       2.954  -3.039  -3.864  0.00  0.00    +0.245 A 
ATOM      4  N   UNL     1       1.811  -3.153  -4.474  0.00  0.00    -0.135 NA
ATOM      5  N   UNL     1       0.794  -2.834  -3.560  0.00  0.00    -0.277 N 
ATOM      6  H   UNL     1      -0.159  -2.839  -3.743  0.00  0.00    +0.189 HD
ATOM      7  O   UNL     1       4.217  -3.244  -4.325  0.00  0.00    -0.421 OA
ATOM      8  C   UNL     1       5.241  -2.803  -3.568  0.00  0.00    +0.201 C 
ATOM      9  C   UNL     1       5.124  -2.403  -2.283  0.00  0.00    +0.110 C 
ATOM     10  C   UNL     1       3.813  -2.409  -1.547  0.00  0.00    +0.145 C 
ATOM     11  C   UNL     1       3.799  -3.443  -0.467  0.00  0.00    -0.001 A 
ATOM     12  C   UNL     1       3.938  -4.813  -0.510  0.00  0.00    +0.007 A 
ATOM     13  C   UNL     1       3.875  -5.492   0.702  0.00  0.00    +0.000 A 
ATOM     14  C   UNL     1       3.683  -4.821   1.892  0.00  0.00    +0.002 A 
ATOM     15  C   UNL     1       3.543  -3.443   1.944  0.00  0.00    +0.024 A 
ATOM     16  C   UNL     1       3.604  -2.749   0.734  0.00  0.00    +0.041 A 
ATOM     17  N   UNL     1       3.500  -1.391   0.494  0.00  0.00    -0.265 N 
ATOM     18  C   UNL     1       3.612  -1.099  -0.819  0.00  0.00    +0.241 C 
ATOM     19  O   UNL     1       3.561   0.005  -1.320  0.00  0.00    -0.274 OA
ENDROOT
BRANCH   8  20
ATOM     20  N   UNL     1       6.488  -2.759  -4.141  0.00  0.00    -0.328 N 
ATOM     21  H   UNL     1       6.609  -3.039  -5.062  0.00  0.00    +0.145 HD
ATOM     22  H   UNL     1       7.248  -2.447  -3.626  0.00  0.00    +0.145 HD
ENDBRANCH   8  20
BRANCH   9  23
ATOM     23  C   UNL     1       6.296  -1.955  -1.593  0.00  0.00    +0.102 C 
ATOM     24  N   UNL     1       7.226  -1.599  -1.046  0.00  0.00    -0.191 NA
ENDBRANCH   9  23
BRANCH   1  25
ATOM     25  C   UNL     1       0.657  -2.104  -1.120  0.00  0.00    +0.175 C 
BRANCH  25  26
ATOM     26  C   UNL     1       0.598  -0.600  -1.043  0.00  0.00    +0.313 C 
ATOM     27  O   UNL     1       1.088   0.070  -1.921  0.00  0.00    -0.250 OA
BRANCH  26  29
ATOM     28  C   UNL     1      -0.017   1.425   0.010  0.00  0.00    +0.280 C 
ATOM     29  O   UNL     1       0.002  -0.004   0.002  0.00  0.00    -0.468 OA
ENDBRANCH  26  29
ENDBRANCH  25  26
ENDBRANCH   1  25
BRANCH  17  30
ATOM     30  C   UNL     1       3.291  -0.388   1.541  0.00  0.00    +0.148 C 
BRANCH  30  31
ATOM     31  C   UNL     1       4.626   0.091   2.051  0.00  0.00    -0.030 A 
ATOM     32  C   UNL     1       5.235  -0.558   3.109  0.00  0.00    +0.006 A 
ATOM     33  C   UNL     1       6.460  -0.119   3.576  0.00  0.00    +0.020 A 
ATOM     34  C   UNL     1       7.076   0.970   2.986  0.00  0.00    +0.041 A 
ATOM     35  C   UNL     1       6.465   1.619   1.928  0.00  0.00    +0.020 A 
ATOM     36  C   UNL     1       5.244   1.176   1.457  0.00  0.00    +0.006 A 
ATOM     37 CL   UNL     1       8.613   1.522   3.574  0.00  0.00    -0.084 Cl
ENDBRANCH  30  31
ENDBRANCH  17  30
TORSDOF 7
