REMARK  Name = ZINC40146442
REMARK  6 active torsions:
REMARK  status: ('A' for Active; 'I' for Inactive)
REMARK    1  A    between atoms: C_1  and  N_2
REMARK    2  A    between atoms: C_6  and  C_7
REMARK    3  A    between atoms: C_11  and  N_13
REMARK    4  A    between atoms: C_14  and  C_16
REMARK    5  A    between atoms: N_18  and  C_25
REMARK    6  A    between atoms: C_19  and  C_22
REMARK                            x       y       z     vdW  Elec       q    Type
REMARK                         _______ _______ _______ _____ _____    ______ ____
ROOT
ATOM      1  N   UNL     1      -1.295  -1.453   5.773  0.00  0.00    -0.280 N 
ATOM      2  C   UNL     1      -1.202  -1.102   7.071  0.00  0.00    +0.264 C 
ATOM      3  O   UNL     1      -0.611  -0.085   7.385  0.00  0.00    -0.268 OA
ATOM      4  H   UNL     1      -1.829  -2.221   5.515  0.00  0.00    +0.155 HD
ENDROOT
BRANCH   1   9
ATOM      5  C   UNL     1       1.265   0.617   4.117  0.00  0.00    +0.017 A 
ATOM      6  C   UNL     1       0.700   0.760   2.849  0.00  0.00    +0.011 A 
ATOM      7  C   UNL     1      -0.515   0.171   2.564  0.00  0.00    +0.002 A 
ATOM      8  C   UNL     1      -1.177  -0.562   3.531  0.00  0.00    +0.023 A 
ATOM      9  C   UNL     1      -0.622  -0.711   4.797  0.00  0.00    +0.034 A 
ATOM     10  C   UNL     1       0.601  -0.127   5.091  0.00  0.00    +0.034 A 
BRANCH   5  16
ATOM     11  C   UNL     1       3.639   0.972   2.153  0.00  0.00    +0.150 C 
ATOM     12  N   UNL     1       3.606   1.400   3.554  0.00  0.00    -0.335 N 
ATOM     13  C   UNL     1       4.611   2.032   4.236  0.00  0.00    +0.104 A 
ATOM     14  C   UNL     1       4.164   2.242   5.491  0.00  0.00    +0.102 A 
ATOM     15  N   UNL     1       2.921   1.755   5.584  0.00  0.00    -0.346 N 
ATOM     16  C   UNL     1       2.567   1.248   4.425  0.00  0.00    +0.118 A 
ATOM     17  H   UNL     1       2.368   1.776   6.381  0.00  0.00    +0.167 HD
ENDBRANCH   5  16
ENDBRANCH   1   9
BRANCH   2  18
ATOM     18  C   UNL     1      -1.809  -1.943   8.101  0.00  0.00    +0.123 C 
ATOM     19  N   UNL     1      -2.453  -3.045   7.884  0.00  0.00    -0.178 NA
ATOM     20  N   UNL     1      -2.934  -3.657   9.039  0.00  0.00    -0.212 N 
ATOM     21  C   UNL     1      -2.555  -2.843  10.204  0.00  0.00    +0.189 C 
ATOM     22  C   UNL     1      -1.777  -1.664   9.587  0.00  0.00    +0.096 C 
BRANCH  20  23
ATOM     23  C   UNL     1      -3.659  -4.849   9.084  0.00  0.00    +0.052 A 
ATOM     24  C   UNL     1      -4.090  -5.357  10.303  0.00  0.00    +0.025 A 
ATOM     25  C   UNL     1      -4.807  -6.537  10.344  0.00  0.00    +0.002 A 
ATOM     26  C   UNL     1      -5.095  -7.213   9.172  0.00  0.00    +0.000 A 
ATOM     27  C   UNL     1      -4.667  -6.711   7.957  0.00  0.00    +0.002 A 
ATOM     28  C   UNL     1      -3.955  -5.529   7.908  0.00  0.00    +0.025 A 
ENDBRANCH  20  23
BRANCH  21  29
ATOM     29  C   UNL     1      -3.782  -2.355  10.931  0.00  0.00    +0.233 C 
ATOM     30  O   UNL     1      -4.858  -2.353  10.372  0.00  0.00    -0.274 OA
ATOM     31  N   UNL     1      -3.683  -1.922  12.204  0.00  0.00    -0.328 N 
ATOM     32  H   UNL     1      -2.823  -1.924  12.652  0.00  0.00    +0.145 HD
ATOM     33  H   UNL     1      -4.473  -1.609  12.672  0.00  0.00    +0.145 HD
ENDBRANCH  21  29
ENDBRANCH   2  18
TORSDOF 5
