REMARK  Name = ZINC38556207
REMARK  8 active torsions:
REMARK  status: ('A' for Active; 'I' for Inactive)
REMARK    1  A    between atoms: C_1  and  C_2
REMARK    2  A    between atoms: C_7  and  C_8
REMARK    3  A    between atoms: C_8  and  C_10
REMARK    4  A    between atoms: C_10  and  S_11
REMARK    5  A    between atoms: S_11  and  C_12
REMARK    6  A    between atoms: C_16  and  C_20
REMARK    7  A    between atoms: N_18  and  N_19
REMARK    8  A    between atoms: C_23  and  C_26
REMARK                            x       y       z     vdW  Elec       q    Type
REMARK                         _______ _______ _______ _____ _____    ______ ____
ROOT
ATOM      1  C   UNL     1       0.880  -0.635   6.586  0.00  0.00    +0.214 C 
ATOM      2  N   UNL     1       2.097  -1.464   6.388  0.00  0.00    -0.228 NA
ATOM      3  N   UNL     1       1.902  -2.619   7.268  0.00  0.00    -0.234 NA
ATOM      4  C   UNL     1       0.447  -2.751   7.486  0.00  0.00    +0.185 C 
ATOM      5  N   UNL     1      -0.197  -1.650   6.728  0.00  0.00    -0.197 NA
ATOM      6  H   UNL     1       2.184  -1.754   5.425  0.00  0.00    +0.143 HD
ATOM      7  H   UNL     1       2.283  -3.457   6.855  0.00  0.00    +0.143 HD
ENDROOT
BRANCH   4   8
ATOM      8  C   UNL     1      -0.041  -4.105   6.966  0.00  0.00    +0.187 C 
ATOM      9  C   UNL     1       0.585  -5.239   7.758  0.00  0.00    +0.034 C 
ATOM     10  C   UNL     1       1.288  -5.926   6.837  0.00  0.00    +0.091 C 
ATOM     11  N   UNL     1       1.159  -5.348   5.614  0.00  0.00    -0.154 NA
ATOM     12  N   UNL     1       0.443  -4.340   5.596  0.00  0.00    -0.176 NA
BRANCH  10  13
ATOM     13  C   UNL     1       2.091  -7.142   7.118  0.00  0.00    +0.002 A 
ATOM     14  C   UNL     1       2.152  -7.656   8.412  0.00  0.00    +0.010 A 
ATOM     15  C   UNL     1       2.900  -8.787   8.668  0.00  0.00    +0.001 A 
ATOM     16  C   UNL     1       3.588  -9.411   7.643  0.00  0.00    +0.000 A 
ATOM     17  C   UNL     1       3.532  -8.905   6.357  0.00  0.00    +0.001 A 
ATOM     18  C   UNL     1       2.783  -7.777   6.089  0.00  0.00    +0.010 A 
ENDBRANCH  10  13
ENDBRANCH   4   8
BRANCH   5  19
ATOM     19  N   UNL     1      -1.334  -1.107   7.454  0.00  0.00    -0.264 NA
ATOM     20  H   UNL     1      -1.720  -0.308   6.975  0.00  0.00    +0.137 HD
ATOM     21  H   UNL     1      -2.038  -1.814   7.604  0.00  0.00    +0.137 HD
ENDBRANCH   5  19
BRANCH   1  22
ATOM     22  S   UNL     1       0.580   0.423   5.143  0.00  0.00    -0.116 S 
BRANCH  22  23
ATOM     23  C   UNL     1       0.491  -0.743   3.756  0.00  0.00    +0.151 C 
BRANCH  23  24
ATOM     24  C   UNL     1       0.242   0.015   2.478  0.00  0.00    +0.173 C 
ATOM     25  O   UNL     1       0.135   1.223   2.500  0.00  0.00    -0.291 OA
BRANCH  24  32
ATOM     26  C   UNL     1      -0.503   1.454   0.080  0.00  0.00    +0.044 C 
ATOM     27  C   UNL     1      -0.231  -0.028   0.036  0.00  0.00    -0.040 A 
ATOM     28  C   UNL     1      -0.330  -0.713  -1.157  0.00  0.00    +0.004 A 
ATOM     29  C   UNL     1      -0.079  -2.073  -1.200  0.00  0.00    +0.000 A 
ATOM     30  C   UNL     1       0.271  -2.757  -0.049  0.00  0.00    +0.001 A 
ATOM     31  C   UNL     1       0.374  -2.086   1.151  0.00  0.00    +0.011 A 
ATOM     32  C   UNL     1       0.129  -0.710   1.202  0.00  0.00    +0.021 A 
ENDBRANCH  24  32
ENDBRANCH  23  24
ENDBRANCH  22  23
ENDBRANCH   1  22
TORSDOF 7
