REMARK  Name = ZINC66876867
REMARK  7 active torsions:
REMARK  status: ('A' for Active; 'I' for Inactive)
REMARK    1  A    between atoms: C_1  and  C_2
REMARK    2  A    between atoms: C_2  and  C_4
REMARK    3  A    between atoms: C_2  and  N_11
REMARK    4  A    between atoms: N_9  and  C_10
REMARK    5  A    between atoms: C_14  and  N_17
REMARK    6  A    between atoms: C_18  and  C_20
REMARK    7  A    between atoms: C_20  and  C_21
REMARK                            x       y       z     vdW  Elec       q    Type
REMARK                         _______ _______ _______ _____ _____    ______ ____
ROOT
ATOM      1  N   UNL     1       1.037  -0.553  -0.884  0.00  0.00    -0.292 NA
ATOM      2  C   UNL     1       1.021  -2.021  -0.866  0.00  0.00    +0.087 C 
ATOM      3  C   UNL     1       2.200  -2.556  -1.682  0.00  0.00    +0.037 C 
ATOM      4  C   UNL     1       2.093  -2.043  -3.121  0.00  0.00    +0.075 C 
ATOM      5  C   UNL     1       2.063  -0.512  -3.108  0.00  0.00    +0.037 C 
ATOM      6  C   UNL     1       0.888  -0.037  -2.251  0.00  0.00    +0.087 C 
ENDROOT
BRANCH   4   7
ATOM      7  N   UNL     1       3.250  -2.504  -3.893  0.00  0.00    -0.312 N 
ATOM      8  C   UNL     1       3.160  -2.630  -5.231  0.00  0.00    +0.214 C 
ATOM      9  O   UNL     1       2.122  -2.361  -5.798  0.00  0.00    -0.276 OA
ATOM     10  H   UNL     1       4.080  -2.719  -3.440  0.00  0.00    +0.149 HD
BRANCH   8  11
ATOM     11  C   UNL     1       4.351  -3.104  -6.025  0.00  0.00    +0.099 C 
BRANCH  11  12
ATOM     12  C   UNL     1       3.985  -3.157  -7.510  0.00  0.00    -0.002 C 
ATOM     13  C   UNL     1       2.946  -4.271  -7.758  0.00  0.00    +0.004 C 
ATOM     14  C   UNL     1       3.349  -4.867  -9.129  0.00  0.00    +0.000 C 
ATOM     15  C   UNL     1       4.897  -4.840  -9.072  0.00  0.00    +0.000 C 
ATOM     16  C   UNL     1       5.225  -3.519  -8.345  0.00  0.00    +0.004 C 
ENDBRANCH  11  12
ENDBRANCH   8  11
ENDBRANCH   4   7
BRANCH   1  18
ATOM     17  C   UNL     1      -1.366  -0.131  -0.672  0.00  0.00    +0.034 C 
ATOM     18  C   UNL     1       0.002  -0.004   0.002  0.00  0.00    +0.140 C 
BRANCH  18  19
ATOM     19  C   UNL     1       0.294   1.449   0.276  0.00  0.00    +0.237 C 
ATOM     20  O   UNL     1       1.095   2.046  -0.410  0.00  0.00    -0.274 OA
ATOM     21  N   UNL     1      -0.335   2.084   1.285  0.00  0.00    -0.239 N 
ATOM     22  C   UNL     1      -0.073   3.383   1.530  0.00  0.00    +0.306 C 
ATOM     23  O   UNL     1       0.730   3.982   0.842  0.00  0.00    -0.252 OA
ATOM     24  N   UNL     1      -0.702   4.018   2.539  0.00  0.00    -0.302 N 
ATOM     25  C   UNL     1      -0.418   5.430   2.806  0.00  0.00    +0.129 C 
ATOM     26  H   UNL     1      -0.975   1.606   1.835  0.00  0.00    +0.159 HD
ATOM     27  H   UNL     1      -1.343   3.540   3.089  0.00  0.00    +0.150 HD
ENDBRANCH  18  19
ENDBRANCH   1  18
TORSDOF 5
