REMARK  Name = ZINC50440474
REMARK  7 active torsions:
REMARK  status: ('A' for Active; 'I' for Inactive)
REMARK    1  A    between atoms: C_1  and  C_2
REMARK    2  A    between atoms: C_2  and  C_4
REMARK    3  A    between atoms: C_2  and  C_17
REMARK    4  A    between atoms: C_4  and  O_5
REMARK    5  A    between atoms: O_5  and  C_6
REMARK    6  A    between atoms: C_9  and  N_13
REMARK    7  A    between atoms: N_18  and  O_19
REMARK                            x       y       z     vdW  Elec       q    Type
REMARK                         _______ _______ _______ _____ _____    ______ ____
ROOT
ATOM      1  O   UNL     1      -0.036  -0.123  -2.412  0.00  0.00    -0.488 OA
ENDROOT
BRANCH   1   2
ATOM      2  C   UNL     1       0.466  -0.488  -3.621  0.00  0.00    +0.157 A 
ATOM      3  C   UNL     1       1.333   0.358  -4.298  0.00  0.00    +0.086 A 
ATOM      4  C   UNL     1       1.842  -0.016  -5.528  0.00  0.00    +0.056 A 
ATOM      5  C   UNL     1       1.488  -1.231  -6.084  0.00  0.00    +0.129 A 
ATOM      6  C   UNL     1       0.623  -2.076  -5.412  0.00  0.00    +0.056 A 
ATOM      7  C   UNL     1       0.116  -1.710  -4.179  0.00  0.00    +0.086 A 
ATOM      8 CL   UNL     1      -0.964  -2.774  -3.333  0.00  0.00    -0.080 Cl
ATOM      9 CL   UNL     1       1.778   1.884  -3.601  0.00  0.00    -0.080 Cl
BRANCH   5  10
ATOM     10  N   UNL     1       2.034  -1.629  -7.401  0.00  0.00    +0.057 N 
ATOM     11  O   UNL     1       2.789  -0.891  -7.989  0.00  0.00    -0.126 OA
ATOM     12  O   UNL     1       1.724  -2.691  -7.888  0.00  0.00    -0.126 OA
ENDBRANCH   5  10
ENDBRANCH   1   2
BRANCH   1  13
ATOM     13  C   UNL     1       0.718  -0.497  -1.257  0.00  0.00    +0.240 C 
BRANCH  13  15
ATOM     14  C   UNL     1      -0.019   1.526   0.010  0.00  0.00    +0.019 C 
ATOM     15  C   UNL     1       0.002  -0.004   0.002  0.00  0.00    +0.090 C 
BRANCH  15  16
ATOM     16  C   UNL     1       0.731  -0.503   1.223  0.00  0.00    +0.138 C 
ATOM     17  N   UNL     1       1.609   0.246   1.802  0.00  0.00    -0.076 NA
ATOM     18  N   UNL     1       0.461  -1.758   1.721  0.00  0.00    -0.344 N 
ATOM     19  H   UNL     1      -0.199  -2.321   1.286  0.00  0.00    +0.144 HD
ATOM     20  H   UNL     1       0.930  -2.080   2.507  0.00  0.00    +0.144 HD
BRANCH  17  21
ATOM     21  O   UNL     1       2.294  -0.223   2.949  0.00  0.00    -0.408 OA
ATOM     22  H   UNL     1       2.931   0.408   3.312  0.00  0.00    +0.328 HD
ENDBRANCH  17  21
ENDBRANCH  15  16
ENDBRANCH  13  15
ENDBRANCH   1  13
TORSDOF 6
