REMARK  Name = ZINC04160575
REMARK  6 active torsions:
REMARK  status: ('A' for Active; 'I' for Inactive)
REMARK    1  A    between atoms: C_1  and  C_2
REMARK    2  A    between atoms: C_7  and  C_14
REMARK    3  A    between atoms: C_14  and  C_16
REMARK    4  A    between atoms: C_14  and  N_60
REMARK    5  A    between atoms: N_20  and  C_21
REMARK    6  A    between atoms: C_29  and  C_32
REMARK                            x       y       z     vdW  Elec       q    Type
REMARK                         _______ _______ _______ _____ _____    ______ ____
ROOT
ATOM      1  C   UNL     1      -0.145   1.005  -2.408  0.00  0.00    +0.039 C 
ENDROOT
BRANCH   1   8
ATOM      2  C   UNL     1      -4.963   1.724  -8.724  0.00  0.00    +0.044 C 
ATOM      3  C   UNL     1      -4.076   1.358  -7.562  0.00  0.00    -0.048 A 
ATOM      4  C   UNL     1      -3.845   0.020  -7.269  0.00  0.00    +0.004 A 
ATOM      5  C   UNL     1      -3.044  -0.333  -6.221  0.00  0.00    +0.010 A 
ATOM      6  C   UNL     1      -2.450   0.661  -5.436  0.00  0.00    -0.001 A 
ATOM      7  C   UNL     1      -1.582   0.318  -4.308  0.00  0.00    +0.017 A 
ATOM      8  C   UNL     1      -1.039   1.323  -3.578  0.00  0.00    +0.011 A 
ATOM      9  C   UNL     1      -1.304   2.668  -3.915  0.00  0.00    +0.251 A 
ATOM     10  O   UNL     1      -0.802   3.557  -3.249  0.00  0.00    -0.268 OA
ATOM     11  N   UNL     1      -2.095   2.993  -4.952  0.00  0.00    -0.322 N 
ATOM     12  H   UNL     1      -2.261   3.957  -5.163  0.00  0.00    +0.169 HD
ATOM     13  C   UNL     1      -2.682   2.018  -5.730  0.00  0.00    +0.049 A 
ATOM     14  C   UNL     1      -3.502   2.354  -6.802  0.00  0.00    +0.029 A 
ENDBRANCH   1   8
BRANCH   1  21
ATOM     15  C   UNL     1       0.246   1.464  -0.063  0.00  0.00    -0.077 C 
ATOM     16  C   UNL     1      -0.220   2.311   1.123  0.00  0.00    -0.018 C 
ATOM     17  C   UNL     1      -1.659   1.930   1.482  0.00  0.00    -0.001 C 
ATOM     18  C   UNL     1      -2.554   2.134   0.257  0.00  0.00    -0.031 C 
ATOM     19  C   UNL     1      -2.021   1.292  -0.904  0.00  0.00    -0.074 C 
ATOM     20  C   UNL     1      -3.982   1.700   0.590  0.00  0.00    +0.005 C 
ATOM     21  N   UNL     1      -0.642   1.724  -1.217  0.00  0.00    +0.389 N 
ATOM     22  H   UNL     1      -0.645   2.732  -1.413  0.00  0.00    -0.080 HD
ENDBRANCH   1  21
BRANCH   1  23
ATOM     23  C   UNL     1       1.258   1.465  -2.707  0.00  0.00    +0.143 A 
ATOM     24  N   UNL     1       1.693   2.701  -2.704  0.00  0.00    -0.115 NA
ATOM     25  N   UNL     1       2.946   2.683  -3.007  0.00  0.00    -0.023 NA
ATOM     26  N   UNL     1       3.318   1.468  -3.211  0.00  0.00    -0.044 NA
ATOM     27  N   UNL     1       2.306   0.687  -3.036  0.00  0.00    -0.227 N 
BRANCH  27  28
ATOM     28  C   UNL     1       2.299  -0.772  -3.169  0.00  0.00    +0.111 C 
ATOM     29  C   UNL     1       3.335  -1.395  -2.211  0.00  0.00    +0.027 C 
ATOM     30  C   UNL     1       3.923  -2.585  -3.010  0.00  0.00    +0.002 C 
ATOM     31  C   UNL     1       3.997  -2.026  -4.453  0.00  0.00    +0.002 C 
ATOM     32  C   UNL     1       2.719  -1.173  -4.594  0.00  0.00    +0.027 C 
ENDBRANCH  27  28
ENDBRANCH   1  23
TORSDOF 4
