REMARK  Name = ZINC20296525
REMARK  4 active torsions:
REMARK  status: ('A' for Active; 'I' for Inactive)
REMARK    1  A    between atoms: N_9  and  C_12
REMARK    2  A    between atoms: C_12  and  C_13
REMARK    3  A    between atoms: C_16  and  C_19
REMARK    4  A    between atoms: C_19  and  N_21
REMARK                            x       y       z     vdW  Elec       q    Type
REMARK                         _______ _______ _______ _____ _____    ______ ____
ROOT
ATOM      1  C   UNL     1       2.428   0.978  -0.016  0.00  0.00    +0.161 C 
ENDROOT
BRANCH   1  10
ATOM      2  C   UNL     1      -1.383   5.806   0.048  0.00  0.00    +0.001 A 
ATOM      3  C   UNL     1      -2.549   5.051   0.054  0.00  0.00    +0.002 A 
ATOM      4  C   UNL     1      -2.498   3.675   0.046  0.00  0.00    +0.028 A 
ATOM      5  C   UNL     1      -1.260   3.029   0.030  0.00  0.00    +0.078 A 
ATOM      6  C   UNL     1      -0.077   3.800   0.023  0.00  0.00    +0.065 A 
ATOM      7  C   UNL     1      -0.150   5.192   0.032  0.00  0.00    +0.015 A 
ATOM      8  C   UNL     1       1.210   3.089   0.007  0.00  0.00    +0.262 A 
ATOM      9  O   UNL     1       2.267   3.694  -0.000  0.00  0.00    -0.267 OA
ATOM     10  N   UNL     1       1.175   1.736   0.000  0.00  0.00    -0.294 N 
ATOM     11  C   UNL     1      -0.013   1.076   0.008  0.00  0.00    +0.203 A 
ATOM     12  N   UNL     1      -1.164   1.676   0.017  0.00  0.00    -0.237 NA
ENDBRANCH   1  10
BRANCH   1  13
ATOM     13  C   UNL     1       2.843   0.725  -1.443  0.00  0.00    -0.028 A 
ATOM     14  C   UNL     1       2.416  -0.419  -2.092  0.00  0.00    +0.006 A 
ATOM     15  C   UNL     1       2.788  -0.653  -3.400  0.00  0.00    +0.010 A 
ATOM     16  C   UNL     1       3.607   0.262  -4.064  0.00  0.00    +0.003 A 
ATOM     17  C   UNL     1       4.040   1.412  -3.400  0.00  0.00    +0.010 A 
ATOM     18  C   UNL     1       3.655   1.637  -2.095  0.00  0.00    +0.006 A 
BRANCH  16  19
ATOM     19  C   UNL     1       4.014   0.015  -5.462  0.00  0.00    +0.077 C 
ATOM     20  S   UNL     1       5.568   0.494  -5.998  0.00  0.00    -0.035 S 
BRANCH  19  21
ATOM     21  N   UNL     1       3.163  -0.587  -6.315  0.00  0.00    -0.352 N 
ATOM     22  H   UNL     1       3.466  -0.771  -7.356  0.00  0.00    +0.143 HD
ATOM     23  H   UNL     1       2.164  -0.895  -5.970  0.00  0.00    +0.143 HD
ENDBRANCH  19  21
ENDBRANCH  16  19
ENDBRANCH   1  13
TORSDOF 4
