REMARK  Name = ZINC21054596
REMARK  10 active torsions:
REMARK  status: ('A' for Active; 'I' for Inactive)
REMARK    1  A    between atoms: C_1  and  C_2
REMARK    2  A    between atoms: C_7  and  S_8
REMARK    3  A    between atoms: S_8  and  C_9
REMARK    4  A    between atoms: C_9  and  C_10
REMARK    5  A    between atoms: N_12  and  C_13
REMARK    6  A    between atoms: N_12  and  C_20
REMARK    7  A    between atoms: C_13  and  C_14
REMARK    8  A    between atoms: C_21  and  N_36
REMARK    9  A    between atoms: N_22  and  C_29
REMARK   10  A    between atoms: C_29  and  C_30
REMARK                            x       y       z     vdW  Elec       q    Type
REMARK                         _______ _______ _______ _____ _____    ______ ____
ROOT
ATOM      1  C   UNL     1       5.448   2.071   0.387  0.00  0.00    +0.230 C 
ATOM      2  O   UNL     1       5.730   0.941   0.727  0.00  0.00    -0.274 OA
ATOM      3  N   UNL     1       6.399   2.879  -0.126  0.00  0.00    -0.259 N 
ENDROOT
BRANCH   3   4
ATOM      4  C   UNL     1       7.697   2.380  -0.361  0.00  0.00    +0.140 A 
ATOM      5  C   UNL     1       8.771   2.847   0.368  0.00  0.00    +0.128 A 
ATOM      6  N   UNL     1      10.025   2.338   0.119  0.00  0.00    -0.276 N 
ATOM      7  C   UNL     1      10.203   1.402  -0.831  0.00  0.00    +0.331 A 
ATOM      8  O   UNL     1      11.319   0.968  -1.038  0.00  0.00    -0.246 OA
ATOM      9  N   UNL     1       9.169   0.939  -1.555  0.00  0.00    -0.273 N 
ATOM     10  H   UNL     1       9.337   0.174  -2.327  0.00  0.00    +0.173 HD
ATOM     11  C   UNL     1       7.920   1.401  -1.347  0.00  0.00    +0.277 A 
ATOM     12  O   UNL     1       6.990   0.974  -2.010  0.00  0.00    -0.266 OA
BRANCH   5  13
ATOM     13  N   UNL     1       8.590   3.806   1.336  0.00  0.00    -0.343 N 
ATOM     14  H   UNL     1       9.451   4.174   1.914  0.00  0.00    +0.144 HD
ATOM     15  H   UNL     1       7.585   4.206   1.532  0.00  0.00    +0.144 HD
ENDBRANCH   5  13
BRANCH   6  16
ATOM     16  C   UNL     1      11.173   2.821   0.890  0.00  0.00    +0.163 C 
BRANCH  16  17
ATOM     17  C   UNL     1      11.784   4.007   0.190  0.00  0.00    -0.028 A 
ATOM     18  C   UNL     1      12.789   3.818  -0.741  0.00  0.00    +0.005 A 
ATOM     19  C   UNL     1      13.347   4.906  -1.386  0.00  0.00    +0.000 A 
ATOM     20  C   UNL     1      12.907   6.184  -1.094  0.00  0.00    +0.000 A 
ATOM     21  C   UNL     1      11.906   6.373  -0.159  0.00  0.00    +0.000 A 
ATOM     22  C   UNL     1      11.345   5.285   0.482  0.00  0.00    +0.005 A 
ENDBRANCH  16  17
ENDBRANCH   6  16
ENDBRANCH   3   4
BRANCH   1  23
ATOM     23  C   UNL     1       4.034   2.571   0.537  0.00  0.00    +0.170 C 
BRANCH  23  24
ATOM     24  S   UNL     1       3.013   1.279   1.297  0.00  0.00    -0.116 S 
BRANCH  24  31
ATOM     25  C   UNL     1       0.574  -0.115   2.446  0.00  0.00    +0.045 C 
ATOM     26  C   UNL     1       0.354   1.290   1.946  0.00  0.00    -0.037 A 
ATOM     27  C   UNL     1      -0.900   1.863   2.023  0.00  0.00    +0.004 A 
ATOM     28  C   UNL     1      -1.101   3.154   1.569  0.00  0.00    +0.000 A 
ATOM     29  C   UNL     1      -0.050   3.872   1.028  0.00  0.00    +0.001 A 
ATOM     30  C   UNL     1       1.205   3.304   0.944  0.00  0.00    +0.015 A 
ATOM     31  C   UNL     1       1.412   2.009   1.403  0.00  0.00    +0.011 A 
ENDBRANCH  24  31
ENDBRANCH  23  24
ENDBRANCH   1  23
BRANCH   3  32
ATOM     32  C   UNL     1       6.083   4.275  -0.439  0.00  0.00    +0.149 C 
BRANCH  32  33
ATOM     33  C   UNL     1       5.726   4.394  -1.898  0.00  0.00    -0.030 A 
ATOM     34  C   UNL     1       6.721   4.558  -2.843  0.00  0.00    +0.005 A 
ATOM     35  C   UNL     1       6.394   4.662  -4.182  0.00  0.00    +0.000 A 
ATOM     36  C   UNL     1       5.070   4.614  -4.575  0.00  0.00    +0.000 A 
ATOM     37  C   UNL     1       4.073   4.455  -3.630  0.00  0.00    +0.000 A 
ATOM     38  C   UNL     1       4.401   4.346  -2.292  0.00  0.00    +0.005 A 
ENDBRANCH  32  33
ENDBRANCH   3  32
TORSDOF 9
