REMARK  Name = ZINC00909460
REMARK  10 active torsions:
REMARK  status: ('A' for Active; 'I' for Inactive)
REMARK    1  A    between atoms: C_1  and  C_2
REMARK    2  A    between atoms: C_2  and  C_3
REMARK    3  A    between atoms: C_3  and  C_4
REMARK    4  A    between atoms: C_3  and  C_5
REMARK    5  A    between atoms: C_3  and  N_6
REMARK    6  A    between atoms: C_7  and  C_11
REMARK    7  A    between atoms: C_11  and  C_13
REMARK    8  A    between atoms: C_11  and  N_62
REMARK    9  A    between atoms: C_19  and  C_25
REMARK   10  A    between atoms: C_28  and  C_31
REMARK                            x       y       z     vdW  Elec       q    Type
REMARK                         _______ _______ _______ _____ _____    ______ ____
ROOT
ATOM      1  C   UNL     1      -0.026  -2.902   4.908  0.00  0.00    +0.039 C 
ENDROOT
BRANCH   1   2
ATOM      2  C   UNL     1      -0.285  -2.007   3.723  0.00  0.00    +0.011 A 
ATOM      3  C   UNL     1      -0.456  -2.549   2.492  0.00  0.00    +0.017 A 
ATOM      4  C   UNL     1      -0.706  -1.653   1.362  0.00  0.00    -0.001 A 
ATOM      5  C   UNL     1      -0.890  -2.152   0.068  0.00  0.00    +0.010 A 
ATOM      6  C   UNL     1      -1.122  -1.289  -0.965  0.00  0.00    +0.001 A 
ATOM      7  C   UNL     1      -1.183   0.080  -0.742  0.00  0.00    +0.005 A 
ATOM      8  C   UNL     1      -0.999   0.595   0.523  0.00  0.00    -0.026 A 
ATOM      9  C   UNL     1      -0.761  -0.265   1.591  0.00  0.00    +0.052 A 
ATOM     10  N   UNL     1      -0.580   0.223   2.868  0.00  0.00    -0.322 N 
ATOM     11  H   UNL     1      -0.620   1.209   3.029  0.00  0.00    +0.169 HD
ATOM     12  C   UNL     1      -0.351  -0.608   3.899  0.00  0.00    +0.251 A 
ATOM     13  O   UNL     1      -0.195  -0.142   5.015  0.00  0.00    -0.268 OA
ATOM     14  C   UNL     1      -1.062   2.083   0.750  0.00  0.00    +0.046 C 
ENDBRANCH   1   2
BRANCH   1  21
ATOM     15  C   UNL     1      -2.383  -2.735   5.435  0.00  0.00    -0.077 C 
ATOM     16  C   UNL     1      -3.378  -2.298   6.512  0.00  0.00    -0.015 C 
ATOM     17  C   UNL     1      -3.210  -3.187   7.747  0.00  0.00    -0.018 C 
ATOM     18  C   UNL     1      -1.764  -3.090   8.243  0.00  0.00    -0.015 C 
ATOM     19  C   UNL     1      -0.815  -3.504   7.116  0.00  0.00    -0.077 C 
ATOM     20  C   UNL     1      -4.160  -2.717   8.850  0.00  0.00    +0.007 C 
ATOM     21  N   UNL     1      -1.010  -2.595   5.966  0.00  0.00    +0.389 N 
ATOM     22  H   UNL     1      -0.871  -1.627   6.280  0.00  0.00    -0.080 HD
ENDBRANCH   1  21
BRANCH   1  24
ATOM     23  N   UNL     1       2.413  -3.476   5.382  0.00  0.00    -0.225 N 
ATOM     24  C   UNL     1       1.359  -2.641   5.440  0.00  0.00    +0.143 A 
ATOM     25  N   UNL     1       1.770  -1.559   6.055  0.00  0.00    -0.115 NA
ATOM     26  N   UNL     1       3.014  -1.719   6.354  0.00  0.00    -0.023 NA
ATOM     27  N   UNL     1       3.406  -2.875   5.946  0.00  0.00    -0.043 NA
BRANCH  23  28
ATOM     28  C   UNL     1       2.431  -4.815   4.787  0.00  0.00    +0.061 C 
ATOM     29  C   UNL     1       1.454  -5.721   5.540  0.00  0.00    +0.036 C 
ATOM     30  C   UNL     1       2.014  -4.725   3.318  0.00  0.00    +0.036 C 
BRANCH  28  32
ATOM     31  C   UNL     1       3.861  -6.795   4.261  0.00  0.00    +0.006 C 
ATOM     32  C   UNL     1       3.843  -5.397   4.882  0.00  0.00    +0.026 C 
ENDBRANCH  28  32
ENDBRANCH  23  28
ENDBRANCH   1  24
TORSDOF 5
