REMARK  Name = ZINC23585624
REMARK  7 active torsions:
REMARK  status: ('A' for Active; 'I' for Inactive)
REMARK    1  A    between atoms: C_1  and  C_2
REMARK    2  A    between atoms: C_7  and  N_8
REMARK    3  A    between atoms: C_9  and  C_11
REMARK    4  A    between atoms: C_11  and  C_13
REMARK    5  A    between atoms: C_11  and  S_14
REMARK    6  A    between atoms: S_14  and  C_15
REMARK    7  A    between atoms: C_18  and  C_20
REMARK                            x       y       z     vdW  Elec       q    Type
REMARK                         _______ _______ _______ _____ _____    ______ ____
ROOT
ATOM      1  C   UNL     1       0.146   0.110  -4.878  0.00  0.00    +0.139 C 
ATOM      2  C   UNL     1       1.602   0.496  -5.149  0.00  0.00    +0.029 C 
ENDROOT
BRANCH   1   4
ATOM      3  N   UNL     1      -0.033   0.011  -2.413  0.00  0.00    -0.284 N 
ATOM      4  C   UNL     1       0.061  -0.653  -3.582  0.00  0.00    +0.230 C 
ATOM      5  O   UNL     1       0.078  -1.866  -3.590  0.00  0.00    -0.274 OA
ATOM      6  H   UNL     1      -0.139   1.106  -2.410  0.00  0.00    +0.155 HD
BRANCH   3  13
ATOM      7  C   UNL     1      -1.257   1.194  -0.133  0.00  0.00    +0.045 C 
ATOM      8  C   UNL     1      -0.580  -0.151  -0.066  0.00  0.00    -0.029 A 
ATOM      9  C   UNL     1      -0.546  -0.850   1.125  0.00  0.00    +0.005 A 
ATOM     10  C   UNL     1       0.074  -2.084   1.187  0.00  0.00    +0.000 A 
ATOM     11  C   UNL     1       0.662  -2.623   0.057  0.00  0.00    +0.002 A 
ATOM     12  C   UNL     1       0.631  -1.930  -1.137  0.00  0.00    +0.023 A 
ATOM     13  C   UNL     1       0.005  -0.692  -1.203  0.00  0.00    +0.036 A 
ENDBRANCH   3  13
ENDBRANCH   1   4
BRANCH   1  14
ATOM     14  S   UNL     1      -0.465  -0.926  -6.230  0.00  0.00    -0.053 S 
BRANCH  14  15
ATOM     15  C   UNL     1      -0.399   0.231  -7.557  0.00  0.00    +0.278 A 
ATOM     16  N   UNL     1      -0.005   1.481  -7.479  0.00  0.00    -0.101 NA
ATOM     17  N   UNL     1      -0.085   2.029  -8.640  0.00  0.00    -0.106 NA
ATOM     18  C   UNL     1      -0.540   1.154  -9.504  0.00  0.00    +0.249 A 
ATOM     19  O   UNL     1      -0.748  -0.003  -8.836  0.00  0.00    -0.411 OA
BRANCH  18  20
ATOM     20  C   UNL     1      -0.780   1.389 -10.943  0.00  0.00    +0.039 A 
ATOM     21  C   UNL     1      -1.263   0.357 -11.750  0.00  0.00    +0.014 A 
ATOM     22  C   UNL     1      -1.490   0.584 -13.091  0.00  0.00    +0.021 A 
ATOM     23  C   UNL     1      -1.230   1.829 -13.640  0.00  0.00    +0.041 A 
ATOM     24  C   UNL     1      -0.745   2.854 -12.845  0.00  0.00    +0.021 A 
ATOM     25  C   UNL     1      -0.519   2.641 -11.502  0.00  0.00    +0.014 A 
ATOM     26 CL   UNL     1      -1.511   2.105 -15.331  0.00  0.00    -0.084 Cl
ENDBRANCH  18  20
ENDBRANCH  14  15
ENDBRANCH   1  14
TORSDOF 5
