REMARK  Name = ZINC49202855
REMARK  7 active torsions:
REMARK  status: ('A' for Active; 'I' for Inactive)
REMARK    1  A    between atoms: C_1  and  C_2
REMARK    2  A    between atoms: C_2  and  C_4
REMARK    3  A    between atoms: C_2  and  N_13
REMARK    4  A    between atoms: C_14  and  C_16
REMARK    5  A    between atoms: N_18  and  C_19
REMARK    6  A    between atoms: C_23  and  N_25
REMARK    7  A    between atoms: C_26  and  C_28
REMARK                            x       y       z     vdW  Elec       q    Type
REMARK                         _______ _______ _______ _____ _____    ______ ____
ROOT
ATOM      1  N   UNL     1       0.733  -0.467   1.187  0.00  0.00    -0.298 N 
ATOM      2  C   UNL     1       2.075  -0.590   1.171  0.00  0.00    +0.300 C 
ATOM      3  O   UNL     1       2.699  -0.301   0.171  0.00  0.00    -0.265 OA
ATOM      4  H   UNL     1       0.235  -0.698   1.987  0.00  0.00    +0.150 HD
ENDROOT
BRANCH   2   5
ATOM      5  C   UNL     1       2.795  -1.082   2.384  0.00  0.00    +0.303 C 
ATOM      6  O   UNL     1       2.171  -1.371   3.384  0.00  0.00    -0.265 OA
ATOM      7  N   UNL     1       4.137  -1.205   2.368  0.00  0.00    -0.278 N 
ATOM      8  H   UNL     1       4.630  -1.038   1.549  0.00  0.00    +0.155 HD
BRANCH   7   9
ATOM      9  C   UNL     1       4.819  -1.572   3.531  0.00  0.00    +0.036 A 
ATOM     10  C   UNL     1       6.074  -1.038   3.799  0.00  0.00    +0.023 A 
ATOM     11  C   UNL     1       6.749  -1.400   4.949  0.00  0.00    +0.004 A 
ATOM     12  C   UNL     1       6.179  -2.295   5.835  0.00  0.00    +0.023 A 
ATOM     13  C   UNL     1       4.926  -2.833   5.572  0.00  0.00    +0.035 A 
ATOM     14  C   UNL     1       4.242  -2.466   4.421  0.00  0.00    +0.046 A 
BRANCH  13  15
ATOM     15  N   UNL     1       4.351  -3.739   6.469  0.00  0.00    -0.286 N 
ATOM     16  C   UNL     1       4.554  -3.597   7.794  0.00  0.00    +0.214 C 
ATOM     17  O   UNL     1       5.303  -2.736   8.203  0.00  0.00    -0.276 OA
ATOM     18  C   UNL     1       3.852  -4.509   8.766  0.00  0.00    +0.109 C 
ATOM     19  H   UNL     1       3.805  -4.470   6.138  0.00  0.00    +0.155 HD
ENDBRANCH  13  15
ENDBRANCH   7   9
ENDBRANCH   2   5
BRANCH   1  21
ATOM     20  C   UNL     1       0.021   1.545  -0.006  0.00  0.00    +0.036 C 
ATOM     21  C   UNL     1       0.028   0.015  -0.002  0.00  0.00    +0.136 C 
BRANCH  21  22
ATOM     22  C   UNL     1      -1.391  -0.493   0.015  0.00  0.00    +0.126 A 
ATOM     23  C   UNL     1      -2.059  -0.939  -1.058  0.00  0.00    +0.055 A 
ATOM     24  C   UNL     1      -3.390  -1.329  -0.578  0.00  0.00    +0.020 A 
ATOM     25  C   UNL     1      -4.529  -1.855  -1.185  0.00  0.00    +0.011 A 
ATOM     26  C   UNL     1      -5.641  -2.113  -0.432  0.00  0.00    +0.001 A 
ATOM     27  C   UNL     1      -5.642  -1.852   0.931  0.00  0.00    +0.004 A 
ATOM     28  C   UNL     1      -4.525  -1.331   1.548  0.00  0.00    +0.047 A 
ATOM     29  C   UNL     1      -3.385  -1.063   0.801  0.00  0.00    +0.135 A 
ATOM     30  O   UNL     1      -2.168  -0.571   1.109  0.00  0.00    -0.458 OA
ENDBRANCH  21  22
ENDBRANCH   1  21
TORSDOF 5
