REMARK  Name = ZINC09248018
REMARK  6 active torsions:
REMARK  status: ('A' for Active; 'I' for Inactive)
REMARK    1  A    between atoms: C_1  and  C_2
REMARK    2  A    between atoms: C_2  and  C_3
REMARK    3  A    between atoms: C_7  and  C_14
REMARK    4  A    between atoms: C_14  and  O_15
REMARK    5  A    between atoms: O_15  and  C_16
REMARK    6  A    between atoms: C_21  and  C_22
REMARK                            x       y       z     vdW  Elec       q    Type
REMARK                         _______ _______ _______ _____ _____    ______ ____
ROOT
ATOM      1  C   UNL     1       1.150   3.166   0.008  0.00  0.00    -0.044 A 
ATOM      2  C   UNL     1       1.160   1.778   0.001  0.00  0.00    +0.004 A 
ATOM      3  C   UNL     1      -0.013   1.076   0.008  0.00  0.00    +0.012 A 
ATOM      4  C   UNL     1      -1.231   1.761   0.017  0.00  0.00    +0.024 A 
ATOM      5  C   UNL     1      -2.506   1.038   0.031  0.00  0.00    +0.007 A 
ATOM      6  C   UNL     1      -3.654   1.761   0.045  0.00  0.00    +0.099 A 
ATOM      7  C   UNL     1      -3.594   3.172   0.052  0.00  0.00    +0.338 A 
ATOM      8  O   UNL     1      -4.631   3.810   0.065  0.00  0.00    -0.245 OA
ATOM      9  O   UNL     1      -2.423   3.827   0.045  0.00  0.00    -0.422 OA
ATOM     10  C   UNL     1      -1.246   3.167   0.030  0.00  0.00    +0.140 A 
ATOM     11  C   UNL     1      -0.042   3.860   0.023  0.00  0.00    +0.050 A 
ENDROOT
BRANCH   1  13
ATOM     12  C   UNL     1       2.881   4.184  -1.446  0.00  0.00    +0.009 C 
ATOM     13  C   UNL     1       2.454   3.921  -0.001  0.00  0.00    +0.032 C 
ENDBRANCH   1  13
BRANCH   5  14
ATOM     14  C   UNL     1      -2.541  -0.469   0.023  0.00  0.00    +0.265 C 
BRANCH  14  15
ATOM     15  O   UNL     1      -3.899  -0.914   0.033  0.00  0.00    -0.487 OA
BRANCH  15  16
ATOM     16  C   UNL     1      -4.108  -2.255   0.028  0.00  0.00    +0.133 A 
ATOM     17  C   UNL     1      -3.030  -3.127   0.007  0.00  0.00    +0.046 A 
ATOM     18  C   UNL     1      -3.244  -4.491   0.008  0.00  0.00    +0.004 A 
ATOM     19  C   UNL     1      -4.533  -4.998   0.017  0.00  0.00    +0.001 A 
ATOM     20  C   UNL     1      -5.615  -4.146   0.031  0.00  0.00    +0.017 A 
ATOM     21  C   UNL     1      -5.413  -2.764   0.037  0.00  0.00    +0.078 A 
BRANCH  21  22
ATOM     22  C   UNL     1      -6.568  -1.845   0.052  0.00  0.00    +0.245 C 
ATOM     23  O   UNL     1      -6.388  -0.642   0.056  0.00  0.00    -0.270 OA
ATOM     24  N   UNL     1      -7.822  -2.339   0.061  0.00  0.00    -0.325 N 
ATOM     25  H   UNL     1      -7.965  -3.298   0.057  0.00  0.00    +0.145 HD
ATOM     26  H   UNL     1      -8.581  -1.735   0.070  0.00  0.00    +0.145 HD
ENDBRANCH  21  22
ENDBRANCH  15  16
ENDBRANCH  14  15
ENDBRANCH   5  14
TORSDOF 5
