REMARK  Name = ZINC00450725
REMARK  3 active torsions:
REMARK  status: ('A' for Active; 'I' for Inactive)
REMARK    1  A    between atoms: C_1  and  C_2
REMARK    2  A    between atoms: C_3  and  C_17
REMARK    3  A    between atoms: C_4  and  C_10
REMARK                            x       y       z     vdW  Elec       q    Type
REMARK                         _______ _______ _______ _____ _____    ______ ____
ROOT
ATOM      1  C   UNL     1      -2.333   2.773   2.496  0.00  0.00    +0.061 C 
ATOM      2  C   UNL     1      -1.729   2.305   1.197  0.00  0.00    +0.019 C 
ATOM      3  C   UNL     1      -0.587   1.588   1.216  0.00  0.00    +0.056 C 
ATOM      4  C   UNL     1      -0.013   1.138  -0.113  0.00  0.00    +0.142 C 
ATOM      5  N   UNL     1      -0.756   1.523  -1.325  0.00  0.00    -0.288 N 
ATOM      6  C   UNL     1      -1.886   2.243  -1.183  0.00  0.00    +0.304 C 
ATOM      7  O   UNL     1      -2.507   2.566  -2.177  0.00  0.00    -0.252 OA
ATOM      8  N   UNL     1      -2.348   2.614   0.018  0.00  0.00    -0.273 N 
ATOM      9  H   UNL     1      -0.439   1.265  -2.204  0.00  0.00    +0.151 HD
ATOM     10  H   UNL     1      -3.168   3.132   0.054  0.00  0.00    +0.156 HD
ENDROOT
BRANCH   3  11
ATOM     11  C   UNL     1       0.054   1.266   2.438  0.00  0.00    +0.246 C 
ATOM     12  O   UNL     1       0.982   1.946   2.836  0.00  0.00    -0.270 OA
ATOM     13  N   UNL     1      -0.363   0.206   3.158  0.00  0.00    -0.293 N 
ATOM     14  C   UNL     1      -1.403  -0.699   2.643  0.00  0.00    +0.136 C 
ATOM     15  C   UNL     1      -0.887  -2.142   2.768  0.00  0.00    +0.179 C 
ATOM     16  O   UNL     1      -0.456  -2.371   4.112  0.00  0.00    -0.377 OA
ATOM     17  C   UNL     1       0.638  -1.547   4.524  0.00  0.00    +0.179 C 
ATOM     18  C   UNL     1       0.204  -0.077   4.486  0.00  0.00    +0.136 C 
ENDBRANCH   3  11
BRANCH   4  19
ATOM     19  C   UNL     1       1.383   1.694  -0.227  0.00  0.00    -0.022 A 
ATOM     20  C   UNL     1       1.583   2.955  -0.756  0.00  0.00    +0.008 A 
ATOM     21  C   UNL     1       2.863   3.468  -0.856  0.00  0.00    +0.038 A 
ATOM     22  C   UNL     1       3.945   2.713  -0.438  0.00  0.00    +0.123 A 
ATOM     23  C   UNL     1       3.744   1.448   0.087  0.00  0.00    +0.038 A 
ATOM     24  C   UNL     1       2.463   0.939   0.192  0.00  0.00    +0.008 A 
ATOM     25  F   UNL     1       5.197   3.211  -0.541  0.00  0.00    -0.205 F 
ENDBRANCH   4  19
TORSDOF 2
