REMARK  Name = ZINC30554253
REMARK  9 active torsions:
REMARK  status: ('A' for Active; 'I' for Inactive)
REMARK    1  A    between atoms: C_1  and  C_2
REMARK    2  A    between atoms: C_5  and  N_9
REMARK    3  A    between atoms: N_9  and  N_10
REMARK    4  A    between atoms: C_11  and  C_13
REMARK    5  A    between atoms: C_14  and  C_24
REMARK    6  A    between atoms: C_15  and  C_20
REMARK    7  A    between atoms: C_16  and  C_19
REMARK    8  A    between atoms: C_20  and  O_22
REMARK    9  A    between atoms: O_22  and  C_23
REMARK                            x       y       z     vdW  Elec       q    Type
REMARK                         _______ _______ _______ _____ _____    ______ ____
ROOT
ATOM      1  N   UNL     1       0.002  -0.004   0.002  0.00  0.00    -0.231 N 
ATOM      2  C   UNL     1       1.178  -0.662  -0.013  0.00  0.00    +0.277 C 
ATOM      3  O   UNL     1       2.224  -0.039  -0.019  0.00  0.00    -0.267 OA
ATOM      4  H   UNL     1      -0.943  -0.567   0.008  0.00  0.00    +0.173 HD
ENDROOT
BRANCH   2   5
ATOM      5  C   UNL     1       1.198  -2.130  -0.021  0.00  0.00    +0.107 A 
ATOM      6  C   UNL     1       2.314  -2.913  -0.041  0.00  0.00    -0.006 A 
ATOM      7  C   UNL     1       1.876  -4.257  -0.040  0.00  0.00    +0.083 A 
ATOM      8  C   UNL     1       0.493  -4.233  -0.026  0.00  0.00    +0.028 A 
ATOM      9  N   UNL     1       0.092  -2.952  -0.015  0.00  0.00    -0.354 N 
ATOM     10  H   UNL     1      -0.917  -2.515  -0.003  0.00  0.00    +0.166 HD
ATOM     11  C   UNL     1      -0.410  -5.439  -0.026  0.00  0.00    +0.064 C 
ATOM     12  C   UNL     1       3.743  -2.436  -0.059  0.00  0.00    +0.047 C 
BRANCH   7  13
ATOM     13  C   UNL     1       2.730  -5.456  -0.054  0.00  0.00    +0.341 C 
ATOM     14  O   UNL     1       3.073  -5.945  -1.113  0.00  0.00    -0.245 OA
BRANCH  13  15
ATOM     15  O   UNL     1       3.132  -6.012   1.106  0.00  0.00    -0.464 OA
ATOM     16  C   UNL     1       3.972  -7.192   1.015  0.00  0.00    +0.280 C 
ENDBRANCH  13  15
ENDBRANCH   7  13
ENDBRANCH   2   5
BRANCH   1  17
ATOM     17  N   UNL     1      -0.017   1.397   0.010  0.00  0.00    -0.264 N 
ATOM     18  H   UNL     1       0.928   1.960   0.008  0.00  0.00    +0.170 HD
BRANCH  17  23
ATOM     19  C   UNL     1      -4.968   4.163   0.049  0.00  0.00    +0.045 C 
ATOM     20  C   UNL     1      -3.652   3.428   0.039  0.00  0.00    -0.032 A 
ATOM     21  C   UNL     1      -3.634   2.046   0.031  0.00  0.00    +0.006 A 
ATOM     22  C   UNL     1      -2.430   1.369   0.015  0.00  0.00    +0.025 A 
ATOM     23  C   UNL     1      -1.236   2.079   0.019  0.00  0.00    +0.046 A 
ATOM     24  C   UNL     1      -1.256   3.467   0.027  0.00  0.00    +0.044 A 
ATOM     25  C   UNL     1      -2.465   4.139   0.036  0.00  0.00    +0.046 A 
ATOM     26 CL   UNL     1      -2.492   5.875   0.046  0.00  0.00    -0.083 Cl
ENDBRANCH  17  23
ENDBRANCH   1  17
TORSDOF 5
