REMARK  Name = ZINC65865566
REMARK  6 active torsions:
REMARK  status: ('A' for Active; 'I' for Inactive)
REMARK    1  A    between atoms: C_4  and  N_22
REMARK    2  A    between atoms: C_5  and  N_7
REMARK    3  A    between atoms: N_7  and  C_8
REMARK    4  A    between atoms: C_8  and  C_9
REMARK    5  A    between atoms: N_11  and  C_12
REMARK    6  A    between atoms: C_16  and  C_18
REMARK                            x       y       z     vdW  Elec       q    Type
REMARK                         _______ _______ _______ _____ _____    ______ ____
ROOT
ATOM      1  C   UNL     1       0.987  -4.466  -0.559  0.00  0.00    +0.234 C 
ATOM      2  O   UNL     1       2.175  -4.700  -0.628  0.00  0.00    -0.274 OA
ATOM      3  N   UNL     1       0.101  -5.481  -0.532  0.00  0.00    -0.284 N 
ATOM      4  H   UNL     1      -0.851  -5.294  -0.553  0.00  0.00    +0.155 HD
ENDROOT
BRANCH   3   5
ATOM      5  C   UNL     1       0.554  -6.804  -0.473  0.00  0.00    +0.034 A 
ATOM      6  C   UNL     1       1.718  -7.110   0.224  0.00  0.00    +0.025 A 
ATOM      7  C   UNL     1       2.170  -8.414   0.285  0.00  0.00    +0.022 A 
ATOM      8  C   UNL     1       1.468  -9.423  -0.345  0.00  0.00    +0.053 A 
ATOM      9  C   UNL     1       0.298  -9.126  -1.048  0.00  0.00    +0.057 A 
ATOM     10  C   UNL     1      -0.161  -7.809  -1.104  0.00  0.00    +0.037 A 
ATOM     11 CL   UNL     1       2.041 -11.060  -0.265  0.00  0.00    -0.083 Cl
BRANCH   9  12
ATOM     12  C   UNL     1      -0.455 -10.203  -1.724  0.00  0.00    +0.243 C 
ATOM     13  O   UNL     1      -0.057 -11.350  -1.669  0.00  0.00    -0.270 OA
ATOM     14  N   UNL     1      -1.584  -9.914  -2.401  0.00  0.00    -0.325 N 
ATOM     15  H   UNL     1      -1.902  -8.998  -2.444  0.00  0.00    +0.145 HD
ATOM     16  H   UNL     1      -2.079 -10.620  -2.844  0.00  0.00    +0.145 HD
ENDBRANCH   9  12
ENDBRANCH   3   5
BRANCH   1  17
ATOM     17  C   UNL     1       0.502  -3.040  -0.504  0.00  0.00    +0.198 C 
BRANCH  17  18
ATOM     18  N   UNL     1       1.650  -2.131  -0.547  0.00  0.00    -0.334 N 
ATOM     19  H   UNL     1       2.550  -2.489  -0.603  0.00  0.00    +0.147 HD
BRANCH  18  24
ATOM     20  C   UNL     1      -0.027   1.130  -0.305  0.00  0.00    +0.002 A 
ATOM     21  C   UNL     1       1.051   1.988  -0.433  0.00  0.00    +0.002 A 
ATOM     22  C   UNL     1       2.326   1.480  -0.598  0.00  0.00    +0.034 A 
ATOM     23  C   UNL     1       2.529   0.115  -0.636  0.00  0.00    +0.147 A 
ATOM     24  C   UNL     1       1.449  -0.750  -0.509  0.00  0.00    +0.058 A 
ATOM     25  C   UNL     1       0.169  -0.237  -0.343  0.00  0.00    +0.025 A 
BRANCH  23  26
ATOM     26  N   UNL     1       3.895  -0.427  -0.813  0.00  0.00    +0.058 N 
ATOM     27  O   UNL     1       4.231  -1.425  -0.219  0.00  0.00    -0.126 OA
ATOM     28  O   UNL     1       4.674   0.128  -1.553  0.00  0.00    -0.126 OA
ENDBRANCH  23  26
ENDBRANCH  18  24
ENDBRANCH  17  18
ENDBRANCH   1  17
TORSDOF 6
