REMARK  Name = ZINC03670205
REMARK  6 active torsions:
REMARK  status: ('A' for Active; 'I' for Inactive)
REMARK    1  A    between atoms: C_4  and  N_7
REMARK    2  A    between atoms: C_17  and  C_18
REMARK    3  A    between atoms: C_17  and  O_29
REMARK    4  A    between atoms: N_20  and  C_21
REMARK    5  A    between atoms: C_21  and  C_22
REMARK    6  A    between atoms: C_22  and  C_23
REMARK                            x       y       z     vdW  Elec       q    Type
REMARK                         _______ _______ _______ _____ _____    ______ ____
ROOT
ATOM      1  N   UNL     1       3.686   3.107  -0.016  0.00  0.00    -0.214 N 
ATOM      2  C   UNL     1       3.549   1.828  -0.410  0.00  0.00    +0.314 C 
ATOM      3  O   UNL     1       4.540   1.223  -0.772  0.00  0.00    -0.252 OA
ATOM      4  N   UNL     1       2.372   1.190  -0.423  0.00  0.00    -0.269 N 
ATOM      5  C   UNL     1       1.177   1.793  -0.029  0.00  0.00    +0.043 A 
ATOM      6  C   UNL     1      -0.019   1.087  -0.061  0.00  0.00    +0.024 A 
ATOM      7  C   UNL     1      -1.192   1.704   0.328  0.00  0.00    +0.002 A 
ATOM      8  C   UNL     1      -1.180   3.018   0.761  0.00  0.00    +0.001 A 
ATOM      9  C   UNL     1       0.009   3.726   0.794  0.00  0.00    +0.010 A 
ATOM     10  C   UNL     1       1.178   3.115   0.402  0.00  0.00    +0.033 A 
ATOM     11  C   UNL     1       2.496   3.854   0.424  0.00  0.00    +0.247 C 
ATOM     12  H   UNL     1       2.348   0.266  -0.719  0.00  0.00    +0.156 HD
ENDROOT
BRANCH   1  16
ATOM     13  C   UNL     1       7.432   4.931  -0.043  0.00  0.00    +0.000 A 
ATOM     14  C   UNL     1       7.044   4.168   1.043  0.00  0.00    +0.002 A 
ATOM     15  C   UNL     1       5.803   3.562   1.055  0.00  0.00    +0.024 A 
ATOM     16  C   UNL     1       4.944   3.719  -0.025  0.00  0.00    +0.041 A 
ATOM     17  C   UNL     1       5.340   4.481  -1.117  0.00  0.00    +0.024 A 
ATOM     18  C   UNL     1       6.580   5.089  -1.121  0.00  0.00    +0.002 A 
ENDBRANCH   1  16
BRANCH  11  19
ATOM     19  C   UNL     1       2.740   4.327   1.834  0.00  0.00    +0.269 C 
ATOM     20  O   UNL     1       2.769   5.515   2.079  0.00  0.00    -0.270 OA
ATOM     21  N   UNL     1       2.926   3.431   2.823  0.00  0.00    -0.311 N 
ATOM     22  H   UNL     1       2.903   2.481   2.627  0.00  0.00    +0.149 HD
BRANCH  21  23
ATOM     23  C   UNL     1       3.163   3.891   4.194  0.00  0.00    +0.108 C 
BRANCH  23  24
ATOM     24  C   UNL     1       3.340   2.682   5.114  0.00  0.00    +0.049 C 
BRANCH  24  25
ATOM     25  C   UNL     1       3.584   3.155   6.524  0.00  0.00    -0.072 C 
ATOM     26  C   UNL     1       2.566   3.242   7.319  0.00  0.00    -0.028 C 
ATOM     27  C   UNL     1       2.651   3.701   8.745  0.00  0.00    +0.027 C 
ATOM     28  C   UNL     1       4.100   3.646   9.233  0.00  0.00    +0.004 C 
ATOM     29  C   UNL     1       4.988   4.343   8.194  0.00  0.00    +0.005 C 
ATOM     30  C   UNL     1       4.990   3.501   6.917  0.00  0.00    +0.030 C 
ENDBRANCH  24  25
ENDBRANCH  23  24
ENDBRANCH  21  23
ENDBRANCH  11  19
BRANCH  11  31
ATOM     31  O   UNL     1       2.368   5.009  -0.408  0.00  0.00    -0.360 OA
ATOM     32  H   UNL     1       1.677   5.623  -0.125  0.00  0.00    +0.213 HD
ENDBRANCH  11  31
TORSDOF 6
