REMARK  Name = ZINC39558768
REMARK  4 active torsions:
REMARK  status: ('A' for Active; 'I' for Inactive)
REMARK    1  A    between atoms: C_8  and  C_12
REMARK    2  A    between atoms: N_14  and  C_15
REMARK    3  A    between atoms: C_15  and  C_16
REMARK    4  A    between atoms: N_18  and  C_19
REMARK                            x       y       z     vdW  Elec       q    Type
REMARK                         _______ _______ _______ _____ _____    ______ ____
ROOT
ATOM      1  C   UNL     1       3.950  -6.210   0.532  0.00  0.00    +0.200 C 
ENDROOT
BRANCH   1   4
ATOM      2  C   UNL     1       2.618  -4.183   0.297  0.00  0.00    +0.251 C 
ATOM      3  O   UNL     1       1.634  -4.881   0.150  0.00  0.00    -0.270 OA
ATOM      4  N   UNL     1       3.824  -4.751   0.494  0.00  0.00    -0.303 N 
ATOM      5  H   UNL     1       4.610  -4.193   0.612  0.00  0.00    +0.150 HD
BRANCH   2  13
ATOM      6  C   UNL     1      -0.018   1.361   0.017  0.00  0.00    +0.001 A 
ATOM      7  C   UNL     1       1.168   2.083  -0.001  0.00  0.00    +0.004 A 
ATOM      8  C   UNL     1       2.385   1.434  -0.035  0.00  0.00    +0.047 A 
ATOM      9  C   UNL     1       2.428   0.046  -0.044  0.00  0.00    +0.139 A 
ATOM     10  C   UNL     1       1.226  -0.685   0.003  0.00  0.00    +0.018 A 
ATOM     11  C   UNL     1       0.000  -0.004   0.014  0.00  0.00    +0.011 A 
ATOM     12  C   UNL     1       1.264  -2.102   0.059  0.00  0.00    +0.031 A 
ATOM     13  C   UNL     1       2.492  -2.716   0.260  0.00  0.00    +0.122 A 
ATOM     14  C   UNL     1       3.666  -1.841   0.435  0.00  0.00    +0.350 A 
ATOM     15  O   UNL     1       4.647  -2.220   1.048  0.00  0.00    -0.244 OA
ATOM     16  O   UNL     1       3.616  -0.603  -0.106  0.00  0.00    -0.422 OA
ENDBRANCH   2  13
ENDBRANCH   1   4
BRANCH   1  17
ATOM     17  C   UNL     1       5.391  -6.585   0.764  0.00  0.00    +0.234 C 
ATOM     18  O   UNL     1       6.231  -5.718   0.886  0.00  0.00    -0.274 OA
ATOM     19  N   UNL     1       5.747  -7.883   0.835  0.00  0.00    -0.284 N 
ATOM     20  H   UNL     1       5.067  -8.574   0.804  0.00  0.00    +0.155 HD
BRANCH  19  21
ATOM     21  C   UNL     1       7.098  -8.233   0.954  0.00  0.00    +0.036 A 
ATOM     22  C   UNL     1       7.574  -9.380   0.330  0.00  0.00    +0.025 A 
ATOM     23  C   UNL     1       8.904  -9.731   0.443  0.00  0.00    +0.029 A 
ATOM     24  C   UNL     1       9.769  -8.937   1.182  0.00  0.00    +0.067 A 
ATOM     25  C   UNL     1       9.293  -7.784   1.810  0.00  0.00    +0.069 A 
ATOM     26  C   UNL     1       7.958  -7.432   1.689  0.00  0.00    +0.051 A 
ATOM     27  N   UNL     1      10.378  -7.205   2.464  0.00  0.00    -0.306 N 
ATOM     28  H   UNL     1      10.355  -6.390   2.989  0.00  0.00    +0.170 HD
ATOM     29  C   UNL     1      11.464  -7.971   2.245  0.00  0.00    +0.325 A 
ATOM     30  O   UNL     1      12.579  -7.745   2.677  0.00  0.00    -0.247 OA
ATOM     31  N   UNL     1      11.130  -9.023   1.475  0.00  0.00    -0.306 N 
ATOM     32  H   UNL     1      11.732  -9.722   1.175  0.00  0.00    +0.170 HD
ENDBRANCH  19  21
ENDBRANCH   1  17
TORSDOF 4
