REMARK  Name = ZINC21059715
REMARK  4 active torsions:
REMARK  status: ('A' for Active; 'I' for Inactive)
REMARK    1  A    between atoms: C_1  and  C_2
REMARK    2  A    between atoms: C_3  and  N_20
REMARK    3  A    between atoms: C_5  and  S_9
REMARK    4  A    between atoms: S_9  and  N_12
REMARK                            x       y       z     vdW  Elec       q    Type
REMARK                         _______ _______ _______ _____ _____    ______ ____
ROOT
ATOM      1  C   UNL     1       5.462  -0.178  -1.966  0.00  0.00    +0.047 C 
ATOM      2  C   UNL     1       4.095   0.218  -1.473  0.00  0.00    -0.011 A 
ATOM      3  C   UNL     1       3.083  -0.730  -1.392  0.00  0.00    +0.031 A 
ATOM      4  C   UNL     1       1.825  -0.362  -0.932  0.00  0.00    +0.051 A 
ATOM      5  C   UNL     1       1.580   0.948  -0.567  0.00  0.00    +0.109 A 
ATOM      6  C   UNL     1       2.589   1.890  -0.649  0.00  0.00    +0.049 A 
ATOM      7  C   UNL     1       3.845   1.526  -1.102  0.00  0.00    +0.047 A 
ATOM      8 CL   UNL     1       5.108   2.712  -1.203  0.00  0.00    -0.083 Cl
ENDROOT
BRANCH   5   9
ATOM      9  S   UNL     1      -0.017   1.417   0.010  0.00  0.00    +0.061 S 
ATOM     10  O   UNL     1       0.164   2.578   0.809  0.00  0.00    -0.153 OA
ATOM     11  O   UNL     1      -0.631   0.236   0.509  0.00  0.00    -0.153 OA
BRANCH   9  12
ATOM     12  N   UNL     1      -0.897   1.885  -1.312  0.00  0.00    -0.177 NA
ATOM     13  C   UNL     1      -1.803   0.937  -1.976  0.00  0.00    +0.109 C 
ATOM     14  C   UNL     1      -2.976   0.640  -1.043  0.00  0.00    +0.017 C 
ATOM     15  C   UNL     1      -3.902   1.867  -0.985  0.00  0.00    +0.001 C 
ATOM     16  C   UNL     1      -3.289   2.922  -0.071  0.00  0.00    +0.000 C 
ATOM     17  C   UNL     1      -2.889   4.173  -0.874  0.00  0.00    +0.001 C 
ATOM     18  C   UNL     1      -2.184   3.754  -2.165  0.00  0.00    +0.017 C 
ATOM     19  C   UNL     1      -0.778   3.237  -1.833  0.00  0.00    +0.109 C 
ENDBRANCH   9  12
ENDBRANCH   5   9
BRANCH   3  20
ATOM     20  N   UNL     1       3.332  -2.053  -1.766  0.00  0.00    -0.358 N 
ATOM     21  H   UNL     1       2.530  -2.803  -1.701  0.00  0.00    +0.142 HD
ATOM     22  H   UNL     1       4.330  -2.344  -2.126  0.00  0.00    +0.142 HD
ENDBRANCH   3  20
TORSDOF 3
