REMARK  Name = ZINC61462174
REMARK  6 active torsions:
REMARK  status: ('A' for Active; 'I' for Inactive)
REMARK    1  A    between atoms: C_1  and  N_2
REMARK    2  A    between atoms: C_10  and  C_12
REMARK    3  A    between atoms: C_13  and  C_14
REMARK    4  A    between atoms: N_16  and  N_17
REMARK    5  A    between atoms: C_18  and  C_20
REMARK    6  A    between atoms: C_23  and  C_26
REMARK                            x       y       z     vdW  Elec       q    Type
REMARK                         _______ _______ _______ _____ _____    ______ ____
ROOT
ATOM      1  C   UNL     1       7.285  -2.771  -0.996  0.00  0.00    +0.253 C 
ATOM      2  O   UNL     1       7.345  -3.963  -0.760  0.00  0.00    -0.269 OA
ATOM      3  N   UNL     1       8.393  -2.102  -1.375  0.00  0.00    -0.231 N 
ATOM      4  H   UNL     1       8.345  -1.152  -1.564  0.00  0.00    +0.173 HD
ENDROOT
BRANCH   3   5
ATOM      5  N   UNL     1       9.613  -2.780  -1.496  0.00  0.00    -0.230 N 
ATOM      6  C   UNL     1      10.720  -2.111  -1.875  0.00  0.00    +0.260 C 
ATOM      7  O   UNL     1      10.660  -0.920  -2.112  0.00  0.00    -0.269 OA
ATOM      8  H   UNL     1       9.661  -3.730  -1.308  0.00  0.00    +0.173 HD
BRANCH   6   9
ATOM      9  C   UNL     1      12.008  -2.826  -2.003  0.00  0.00    +0.038 A 
ATOM     10  C   UNL     1      12.076  -4.196  -1.737  0.00  0.00    +0.014 A 
ATOM     11  C   UNL     1      13.275  -4.862  -1.857  0.00  0.00    +0.019 A 
ATOM     12  C   UNL     1      14.424  -4.168  -2.244  0.00  0.00    +0.052 A 
ATOM     13  C   UNL     1      14.356  -2.798  -2.510  0.00  0.00    +0.019 A 
ATOM     14  C   UNL     1      13.155  -2.134  -2.396  0.00  0.00    +0.014 A 
BRANCH  12  15
ATOM     15  C   UNL     1      15.671  -4.860  -2.367  0.00  0.00    +0.099 C 
ATOM     16  N   UNL     1      16.661  -5.410  -2.465  0.00  0.00    -0.191 NA
ENDBRANCH  12  15
ENDBRANCH   6   9
ENDBRANCH   3   5
BRANCH   1  18
ATOM     17  C   UNL     1       4.902  -2.733  -0.490  0.00  0.00    +0.013 C 
ATOM     18  C   UNL     1       6.012  -2.064  -0.870  0.00  0.00    +0.069 C 
BRANCH  17  28
ATOM     19  C   UNL     1      -0.018   1.461   0.010  0.00  0.00    +0.129 C 
ATOM     20  N   UNL     1       0.002  -0.004   0.002  0.00  0.00    -0.333 N 
ATOM     21  C   UNL     1      -1.248  -0.767   0.114  0.00  0.00    +0.105 C 
ATOM     22  C   UNL     1      -1.017  -1.901   1.122  0.00  0.00    +0.024 C 
ATOM     23  C   UNL     1       0.057  -2.839   0.571  0.00  0.00    +0.038 C 
ATOM     24  C   UNL     1       1.276  -2.057   0.155  0.00  0.00    -0.026 A 
ATOM     25  C   UNL     1       1.207  -0.695  -0.118  0.00  0.00    +0.033 A 
ATOM     26  C   UNL     1       2.348   0.004  -0.511  0.00  0.00    +0.024 A 
ATOM     27  C   UNL     1       3.551  -0.651  -0.635  0.00  0.00    +0.010 A 
ATOM     28  C   UNL     1       3.623  -2.023  -0.363  0.00  0.00    -0.025 A 
ATOM     29  C   UNL     1       2.472  -2.715   0.041  0.00  0.00    +0.013 A 
ENDBRANCH  17  28
ENDBRANCH   1  18
TORSDOF 5
