REMARK  Name = ZINC46424319
REMARK  8 active torsions:
REMARK  status: ('A' for Active; 'I' for Inactive)
REMARK    1  A    between atoms: C_1  and  C_2
REMARK    2  A    between atoms: C_5  and  C_30
REMARK    3  A    between atoms: N_8  and  C_10
REMARK    4  A    between atoms: C_10  and  C_11
REMARK    5  A    between atoms: C_11  and  N_12
REMARK    6  A    between atoms: N_15  and  N_16
REMARK    7  A    between atoms: C_17  and  C_19
REMARK    8  A    between atoms: C_22  and  N_25
REMARK                            x       y       z     vdW  Elec       q    Type
REMARK                         _______ _______ _______ _____ _____    ______ ____
ROOT
ATOM      1  N   UNL     1       3.766  -2.508   3.387  0.00  0.00    -0.300 N 
ATOM      2  C   UNL     1       5.085  -2.243   3.470  0.00  0.00    +0.316 C 
ATOM      3  O   UNL     1       5.633  -1.606   2.592  0.00  0.00    -0.251 OA
ATOM      4  N   UNL     1       5.796  -2.685   4.526  0.00  0.00    -0.218 N 
ATOM      5  H   UNL     1       3.329  -3.017   4.088  0.00  0.00    +0.150 HD
ATOM      6  H   UNL     1       6.745  -2.494   4.586  0.00  0.00    +0.174 HD
ENDROOT
BRANCH   4   7
ATOM      7  N   UNL     1       5.164  -3.419   5.538  0.00  0.00    -0.229 N 
ATOM      8  C   UNL     1       5.875  -3.861   6.595  0.00  0.00    +0.260 C 
ATOM      9  O   UNL     1       7.065  -3.622   6.669  0.00  0.00    -0.269 OA
ATOM     10  H   UNL     1       4.215  -3.610   5.479  0.00  0.00    +0.173 HD
BRANCH   8  11
ATOM     11  C   UNL     1       5.209  -4.635   7.662  0.00  0.00    +0.038 A 
ATOM     12  C   UNL     1       3.844  -4.916   7.575  0.00  0.00    +0.015 A 
ATOM     13  C   UNL     1       3.226  -5.638   8.572  0.00  0.00    +0.028 A 
ATOM     14  C   UNL     1       3.960  -6.088   9.663  0.00  0.00    +0.069 A 
ATOM     15  C   UNL     1       5.319  -5.810   9.753  0.00  0.00    +0.028 A 
ATOM     16  C   UNL     1       5.945  -5.094   8.757  0.00  0.00    +0.015 A 
BRANCH  14  17
ATOM     17  N   UNL     1       3.328  -6.821  10.675  0.00  0.00    -0.200 N 
ATOM     18  C   UNL     1       3.890  -7.323  11.797  0.00  0.00    +0.250 A 
ATOM     19  N   UNL     1       2.946  -7.936  12.462  0.00  0.00    -0.116 NA
ATOM     20  N   UNL     1       1.826  -7.856  11.838  0.00  0.00    -0.023 NA
ATOM     21  N   UNL     1       1.973  -7.188  10.744  0.00  0.00    -0.039 NA
ENDBRANCH  14  17
ENDBRANCH   8  11
ENDBRANCH   4   7
BRANCH   1  22
ATOM     22  C   UNL     1       2.993  -2.028   2.239  0.00  0.00    +0.087 C 
BRANCH  22  23
ATOM     23  C   UNL     1       1.534  -2.461   2.390  0.00  0.00    -0.060 C 
BRANCH  23  29
ATOM     24  C   UNL     1      -0.019   1.526   0.010  0.00  0.00    +0.005 C 
ATOM     25  C   UNL     1       0.002  -0.004   0.002  0.00  0.00    -0.031 C 
ATOM     26  C   UNL     1      -1.434  -0.535   0.015  0.00  0.00    +0.003 C 
ATOM     27  C   UNL     1      -1.402  -2.064   0.086  0.00  0.00    -0.031 C 
ATOM     28  C   UNL     1      -0.613  -2.496   1.324  0.00  0.00    -0.076 C 
ATOM     29  N   UNL     1       0.758  -1.980   1.239  0.00  0.00    +0.381 N 
ATOM     30  C   UNL     1       0.740  -0.512   1.242  0.00  0.00    -0.076 C 
ATOM     31  C   UNL     1      -2.832  -2.602   0.177  0.00  0.00    +0.005 C 
ATOM     32  H   UNL     1       1.188  -2.307   0.386  0.00  0.00    -0.082 HD
ENDBRANCH  23  29
ENDBRANCH  22  23
ENDBRANCH   1  22
TORSDOF 6
