REMARK  Name = ZINC00499312
REMARK  2 active torsions:
REMARK  status: ('A' for Active; 'I' for Inactive)
REMARK    1  A    between atoms: C_7  and  C_11
REMARK    2  A    between atoms: N_12  and  N_13
REMARK                            x       y       z     vdW  Elec       q    Type
REMARK                         _______ _______ _______ _____ _____    ______ ____
ROOT
ATOM      1  N   UNL     1       1.959   6.548   0.126  0.00  0.00    -0.184 N 
ATOM      2  C   UNL     1       3.305   6.374   0.112  0.00  0.00    +0.227 A 
ATOM      3  N   UNL     1       4.131   7.378   0.206  0.00  0.00    -0.233 NA
ATOM      4  C   UNL     1       3.682   8.640   0.321  0.00  0.00    +0.103 A 
ATOM      5  C   UNL     1       4.342   9.947   0.443  0.00  0.00    +0.026 A 
ATOM      6  C   UNL     1       5.677  10.349   0.482  0.00  0.00    +0.012 A 
ATOM      7  C   UNL     1       5.985  11.675   0.605  0.00  0.00    +0.001 A 
ATOM      8  C   UNL     1       4.978  12.626   0.691  0.00  0.00    +0.002 A 
ATOM      9  C   UNL     1       3.654  12.251   0.654  0.00  0.00    +0.026 A 
ATOM     10  C   UNL     1       3.317  10.905   0.529  0.00  0.00    +0.049 A 
ATOM     11  N   UNL     1       2.106  10.248   0.467  0.00  0.00    -0.349 N 
ATOM     12  H   UNL     1       1.238  10.678   0.506  0.00  0.00    +0.166 HD
ATOM     13  C   UNL     1       2.310   8.887   0.342  0.00  0.00    +0.133 A 
ATOM     14  C   UNL     1       1.431   7.786   0.234  0.00  0.00    +0.298 A 
ATOM     15  O   UNL     1       0.221   7.950   0.242  0.00  0.00    -0.263 OA
ENDROOT
BRANCH   1  17
ATOM     16  C   UNL     1       1.613   4.236   0.017  0.00  0.00    +0.143 C 
ATOM     17  N   UNL     1       1.112   5.437   0.022  0.00  0.00    -0.170 NA
BRANCH  16  24
ATOM     18  C   UNL     1      -3.047   3.774   0.041  0.00  0.00    +0.001 A 
ATOM     19  C   UNL     1      -3.446   2.445   0.040  0.00  0.00    +0.002 A 
ATOM     20  C   UNL     1      -2.512   1.432   0.034  0.00  0.00    +0.026 A 
ATOM     21  C   UNL     1      -1.155   1.739   0.022  0.00  0.00    +0.047 A 
ATOM     22  C   UNL     1      -0.753   3.085   0.028  0.00  0.00    +0.008 A 
ATOM     23  C   UNL     1      -1.709   4.099   0.034  0.00  0.00    +0.010 A 
ATOM     24  C   UNL     1       0.721   3.068   0.019  0.00  0.00    +0.020 A 
ATOM     25  C   UNL     1       1.093   1.758   0.015  0.00  0.00    +0.093 A 
ATOM     26  N   UNL     1      -0.013   0.966   0.020  0.00  0.00    -0.360 N 
ATOM     27  H   UNL     1      -0.000  -0.004   0.019  0.00  0.00    +0.165 HD
ENDBRANCH  16  24
ENDBRANCH   1  17
TORSDOF 2
