REMARK  Name = ZINC48904712
REMARK  7 active torsions:
REMARK  status: ('A' for Active; 'I' for Inactive)
REMARK    1  A    between atoms: C_1  and  C_2
REMARK    2  A    between atoms: C_2  and  C_3
REMARK    3  A    between atoms: C_3  and  C_4
REMARK    4  A    between atoms: C_4  and  S_5
REMARK    5  A    between atoms: S_5  and  N_8
REMARK    6  A    between atoms: N_8  and  C_9
REMARK    7  A    between atoms: N_18  and  C_19
REMARK                            x       y       z     vdW  Elec       q    Type
REMARK                         _______ _______ _______ _____ _____    ______ ____
ROOT
ATOM      1  C   UNL     1       2.293  -4.964   1.481  0.00  0.00    +0.109 C 
ATOM      2  C   UNL     1       1.501  -6.204   1.047  0.00  0.00    +0.025 C 
ATOM      3  C   UNL     1       2.349  -7.042   0.086  0.00  0.00    +0.008 C 
ATOM      4  C   UNL     1       3.504  -7.693   0.857  0.00  0.00    +0.055 C 
ATOM      5  C   UNL     1       4.197  -6.625   1.667  0.00  0.00    +0.044 A 
ATOM      6  C   UNL     1       3.659  -5.409   1.943  0.00  0.00    +0.012 A 
ATOM      7  C   UNL     1       4.580  -4.693   2.704  0.00  0.00    +0.139 A 
ATOM      8  N   UNL     1       5.636  -5.449   2.882  0.00  0.00    -0.179 NA
ATOM      9  N   UNL     1       5.413  -6.676   2.235  0.00  0.00    -0.271 N 
ATOM     10  C   UNL     1       6.341  -7.808   2.187  0.00  0.00    +0.172 C 
ENDROOT
BRANCH   1  11
ATOM     11  N   UNL     1       1.595  -4.293   2.580  0.00  0.00    -0.187 NA
ATOM     12  H   UNL     1       1.107  -4.815   3.235  0.00  0.00    +0.148 HD
BRANCH  11  13
ATOM     13  S   UNL     1       1.640  -2.642   2.703  0.00  0.00    +0.030 S 
ATOM     14  O   UNL     1       3.019  -2.309   2.619  0.00  0.00    -0.158 OA
ATOM     15  O   UNL     1       0.893  -2.345   3.874  0.00  0.00    -0.158 OA
BRANCH  13  16
ATOM     16  C   UNL     1       0.763  -2.041   1.233  0.00  0.00    +0.185 C 
BRANCH  16  17
ATOM     17  C   UNL     1       0.742  -0.511   1.242  0.00  0.00    +0.024 C 
BRANCH  17  19
ATOM     18  C   UNL     1      -0.019   1.526   0.010  0.00  0.00    +0.004 C 
ATOM     19  C   UNL     1       0.002  -0.004   0.002  0.00  0.00    -0.002 C 
ENDBRANCH  17  19
ENDBRANCH  16  17
ENDBRANCH  13  16
ENDBRANCH  11  13
ENDBRANCH   1  11
TORSDOF 5
