REMARK  Name = ZINC20331526
REMARK  8 active torsions:
REMARK  status: ('A' for Active; 'I' for Inactive)
REMARK    1  A    between atoms: C_1  and  O_2
REMARK    2  A    between atoms: O_2  and  C_3
REMARK    3  A    between atoms: N_15  and  C_19
REMARK    4  A    between atoms: C_19  and  C_20
REMARK    5  A    between atoms: C_20  and  C_21
REMARK    6  A    between atoms: C_21  and  C_22
REMARK    7  A    between atoms: C_22  and  C_23
REMARK    8  A    between atoms: N_25  and  C_26
REMARK                            x       y       z     vdW  Elec       q    Type
REMARK                         _______ _______ _______ _____ _____    ______ ____
ROOT
ATOM      1  C   UNL     1       3.208  -1.053  10.273  0.00  0.00    +0.121 A 
ATOM      2  C   UNL     1       4.049   0.054  10.364  0.00  0.00    +0.047 A 
ATOM      3  C   UNL     1       3.957   1.081   9.454  0.00  0.00    +0.030 A 
ATOM      4  C   UNL     1       3.017   1.022   8.428  0.00  0.00    +0.049 A 
ATOM      5  C   UNL     1       2.165  -0.094   8.333  0.00  0.00    +0.027 A 
ATOM      6  C   UNL     1       2.269  -1.131   9.265  0.00  0.00    +0.057 A 
ATOM      7  C   UNL     1       1.305   0.137   7.173  0.00  0.00    +0.079 A 
ATOM      8  C   UNL     1       1.674   1.357   6.638  0.00  0.00    +0.129 A 
ATOM      9  N   UNL     1       2.705   1.884   7.398  0.00  0.00    -0.349 N 
ATOM     10  H   UNL     1       3.256   2.829   7.286  0.00  0.00    +0.166 HD
ATOM     11  C   UNL     1       0.989   1.828   5.488  0.00  0.00    +0.279 A 
ATOM     12  O   UNL     1       1.288   2.898   4.990  0.00  0.00    -0.265 OA
ATOM     13  N   UNL     1       0.004   1.081   4.952  0.00  0.00    -0.287 N 
ATOM     14  C   UNL     1      -0.343  -0.101   5.492  0.00  0.00    +0.161 A 
ATOM     15  S   UNL     1      -1.606  -1.010   4.779  0.00  0.00    -0.013 S 
ATOM     16  N   UNL     1       0.286  -0.586   6.579  0.00  0.00    -0.333 N 
ATOM     17  H   UNL     1      -0.011  -1.560   6.994  0.00  0.00    +0.168 HD
ENDROOT
BRANCH   1  19
ATOM     18  C   UNL     1       4.305  -1.915  12.199  0.00  0.00    +0.277 C 
ATOM     19  O   UNL     1       3.312  -2.060  11.181  0.00  0.00    -0.495 OA
ENDBRANCH   1  19
BRANCH  13  20
ATOM     20  C   UNL     1      -0.705   1.566   3.765  0.00  0.00    +0.127 C 
BRANCH  20  21
ATOM     21  C   UNL     1       0.011   1.072   2.506  0.00  0.00    +0.022 C 
BRANCH  21  22
ATOM     22  C   UNL     1      -0.729   1.579   1.267  0.00  0.00    +0.011 C 
BRANCH  22  23
ATOM     23  C   UNL     1      -0.013   1.086   0.008  0.00  0.00    +0.096 C 
BRANCH  23  24
ATOM     24  C   UNL     1      -0.742   1.585  -1.213  0.00  0.00    +0.213 C 
ATOM     25  O   UNL     1      -1.736   2.268  -1.088  0.00  0.00    -0.276 OA
ATOM     26  N   UNL     1      -0.288   1.272  -2.443  0.00  0.00    -0.308 N 
ATOM     27  H   UNL     1       0.614   0.653  -2.556  0.00  0.00    +0.149 HD
BRANCH  26  28
ATOM     28  C   UNL     1      -0.997   1.758  -3.630  0.00  0.00    +0.103 C 
ATOM     29  C   UNL     1      -0.713   0.822  -4.803  0.00  0.00    +0.027 C 
ATOM     30  C   UNL     1      -1.281   1.459  -6.077  0.00  0.00    +0.007 C 
ATOM     31  C   UNL     1      -0.430   2.678  -6.427  0.00  0.00    +0.035 C 
ATOM     32  C   UNL     1      -0.281   3.581  -5.230  0.00  0.00    -0.042 A 
ATOM     33  C   UNL     1      -0.537   3.157  -3.945  0.00  0.00    -0.024 A 
ATOM     34  C   UNL     1      -0.373   4.038  -2.885  0.00  0.00    +0.006 A 
ATOM     35  C   UNL     1       0.041   5.335  -3.108  0.00  0.00    +0.000 A 
ATOM     36  C   UNL     1       0.295   5.762  -4.398  0.00  0.00    +0.000 A 
ATOM     37  C   UNL     1       0.134   4.887  -5.453  0.00  0.00    +0.004 A 
ENDBRANCH  26  28
ENDBRANCH  23  24
ENDBRANCH  22  23
ENDBRANCH  21  22
ENDBRANCH  20  21
ENDBRANCH  13  20
TORSDOF 7
