REMARK  Name = ZINC22034758
REMARK  9 active torsions:
REMARK  status: ('A' for Active; 'I' for Inactive)
REMARK    1  A    between atoms: C_1  and  C_2
REMARK    2  A    between atoms: C_2  and  C_3
REMARK    3  A    between atoms: C_3  and  N_4
REMARK    4  A    between atoms: C_5  and  C_7
REMARK    5  A    between atoms: C_7  and  C_9
REMARK    6  A    between atoms: C_7  and  O_10
REMARK    7  A    between atoms: O_10  and  C_11
REMARK    8  A    between atoms: C_11  and  C_13
REMARK    9  A    between atoms: C_15  and  N_21
REMARK                            x       y       z     vdW  Elec       q    Type
REMARK                         _______ _______ _______ _____ _____    ______ ____
ROOT
ATOM      1  C   UNL     1       2.462   1.737  -0.012  0.00  0.00    +0.360 C 
ATOM      2  O   UNL     1       2.482   0.523  -0.018  0.00  0.00    -0.243 OA
ENDROOT
BRANCH   1   3
ATOM      3  C   UNL     1       1.168   2.455   0.004  0.00  0.00    +0.169 A 
ATOM      4  C   UNL     1      -0.021   1.732   0.012  0.00  0.00    +0.095 A 
ATOM      5  C   UNL     1      -1.233   2.424   0.021  0.00  0.00    +0.067 A 
ATOM      6  C   UNL     1      -1.199   3.817   0.034  0.00  0.00    +0.100 A 
ATOM      7  C   UNL     1       0.026   4.465   0.024  0.00  0.00    +0.150 A 
ATOM      8  N   UNL     1       1.153   3.784   0.011  0.00  0.00    -0.226 NA
ATOM      9 CL   UNL     1       0.075   6.200   0.032  0.00  0.00    -0.060 Cl
ATOM     10 CL   UNL     1      -2.675   4.731   0.052  0.00  0.00    -0.078 Cl
ATOM     11 CL   UNL     1       0.002  -0.004   0.002  0.00  0.00    -0.079 Cl
BRANCH   5  12
ATOM     12  N   UNL     1      -2.447   1.739   0.023  0.00  0.00    -0.356 N 
ATOM     13  H   UNL     1      -3.394   2.298   0.030  0.00  0.00    +0.142 HD
ATOM     14  H   UNL     1      -2.458   0.639   0.017  0.00  0.00    +0.142 HD
ENDBRANCH   5  12
ENDBRANCH   1   3
BRANCH   1  15
ATOM     15  O   UNL     1       3.616   2.431  -0.019  0.00  0.00    -0.448 OA
BRANCH  15  16
ATOM     16  C   UNL     1       4.848   1.661  -0.034  0.00  0.00    +0.259 C 
ATOM     17  C   UNL     1       5.266   1.398  -1.482  0.00  0.00    +0.062 C 
BRANCH  16  19
ATOM     18  N   UNL     1       7.170   1.912   0.779  0.00  0.00    -0.312 N 
ATOM     19  C   UNL     1       5.932   2.434   0.670  0.00  0.00    +0.254 C 
ATOM     20  O   UNL     1       5.692   3.527   1.139  0.00  0.00    -0.272 OA
ATOM     21  H   UNL     1       7.388   0.921   0.354  0.00  0.00    +0.149 HD
BRANCH  18  22
ATOM     22  C   UNL     1       8.225   2.664   1.464  0.00  0.00    +0.104 C 
BRANCH  22  24
ATOM     23  C   UNL     1      10.623   2.638   2.162  0.00  0.00    +0.005 C 
ATOM     24  C   UNL     1       9.522   1.853   1.447  0.00  0.00    +0.015 C 
ENDBRANCH  22  24
ENDBRANCH  18  22
ENDBRANCH  16  19
ENDBRANCH  15  16
ENDBRANCH   1  15
TORSDOF 7
