REMARK  Name = ZINC33280306
REMARK  6 active torsions:
REMARK  status: ('A' for Active; 'I' for Inactive)
REMARK    1  A    between atoms: C_1  and  O_2
REMARK    2  A    between atoms: O_2  and  C_3
REMARK    3  A    between atoms: C_3  and  C_5
REMARK    4  A    between atoms: C_10  and  N_11
REMARK    5  A    between atoms: N_14  and  C_15
REMARK    6  A    between atoms: C_15  and  C_16
REMARK                            x       y       z     vdW  Elec       q    Type
REMARK                         _______ _______ _______ _____ _____    ______ ____
ROOT
ATOM      1  N   UNL     1       5.611   3.266  -2.940  0.00  0.00    -0.269 N 
ATOM      2  C   UNL     1       5.232   3.029  -1.668  0.00  0.00    +0.304 C 
ATOM      3  O   UNL     1       5.913   3.432  -0.746  0.00  0.00    -0.252 OA
ATOM      4  N   UNL     1       4.097   2.345  -1.420  0.00  0.00    -0.295 N 
ATOM      5  H   UNL     1       5.034   2.840  -3.774  0.00  0.00    +0.156 HD
ATOM      6  H   UNL     1       3.481   1.980  -2.254  0.00  0.00    +0.151 HD
ENDROOT
BRANCH   1  12
ATOM      7  C   UNL     1       6.754   4.904  -4.312  0.00  0.00    +0.080 A 
ATOM      8  C   UNL     1       7.885   5.687  -4.560  0.00  0.00    +0.018 A 
ATOM      9  C   UNL     1       8.968   5.618  -3.712  0.00  0.00    +0.021 A 
ATOM     10  C   UNL     1       8.943   4.774  -2.611  0.00  0.00    +0.043 A 
ATOM     11  C   UNL     1       7.829   3.999  -2.350  0.00  0.00    +0.044 A 
ATOM     12  C   UNL     1       6.731   4.051  -3.197  0.00  0.00    +0.050 A 
ATOM     13 CL   UNL     1      10.315   4.698  -1.550  0.00  0.00    -0.083 Cl
BRANCH   7  14
ATOM     14  C   UNL     1       5.593   4.973  -5.216  0.00  0.00    +0.341 C 
ATOM     15  O   UNL     1       4.575   4.366  -4.945  0.00  0.00    -0.245 OA
BRANCH  14  17
ATOM     16  C   UNL     1       4.477   5.731  -7.186  0.00  0.00    +0.280 C 
ATOM     17  O   UNL     1       5.659   5.709  -6.343  0.00  0.00    -0.464 OA
ENDBRANCH  14  17
ENDBRANCH   7  14
ENDBRANCH   1  12
BRANCH   4  18
ATOM     18  C   UNL     1       3.686   2.087  -0.037  0.00  0.00    +0.141 C 
BRANCH  18  19
ATOM     19  C   UNL     1       2.394   1.311  -0.035  0.00  0.00    -0.026 A 
ATOM     20  C   UNL     1       1.171   1.968  -0.025  0.00  0.00    +0.023 A 
ATOM     21  C   UNL     1       0.006   1.227  -0.023  0.00  0.00    +0.084 A 
ATOM     22  N   UNL     1       0.042  -0.092  -0.029  0.00  0.00    -0.350 N 
ATOM     23  C   UNL     1       1.188  -0.755  -0.037  0.00  0.00    +0.099 A 
ATOM     24  C   UNL     1       2.401  -0.072  -0.041  0.00  0.00    +0.047 A 
ATOM     25  N   UNL     1       1.180  -2.145  -0.044  0.00  0.00    -0.315 N 
ATOM     26  C   UNL     1       1.977  -2.669  -1.155  0.00  0.00    +0.117 C 
ATOM     27  C   UNL     1       2.336  -4.136  -0.891  0.00  0.00    +0.088 C 
ATOM     28  S   UNL     1       0.792  -5.092  -0.778  0.00  0.00    -0.158 S 
ATOM     29  C   UNL     1      -0.191  -4.127   0.410  0.00  0.00    +0.088 C 
ATOM     30  C   UNL     1      -0.190  -2.662  -0.040  0.00  0.00    +0.117 C 
ATOM     31  H   UNL     1      -0.895  -0.668  -0.026  0.00  0.00    +0.166 HD
ENDBRANCH  18  19
ENDBRANCH   4  18
TORSDOF 5
