REMARK  Name = ZINC08636404
REMARK  7 active torsions:
REMARK  status: ('A' for Active; 'I' for Inactive)
REMARK    1  A    between atoms: C_2  and  C_3
REMARK    2  A    between atoms: C_3  and  N_4
REMARK    3  A    between atoms: C_5  and  C_7
REMARK    4  A    between atoms: C_10  and  O_34
REMARK    5  A    between atoms: C_12  and  O_33
REMARK    6  A    between atoms: N_18  and  C_22
REMARK    7  A    between atoms: C_25  and  N_28
REMARK                            x       y       z     vdW  Elec       q    Type
REMARK                         _______ _______ _______ _____ _____    ______ ____
ROOT
ATOM      1  C   UNL     1      -3.386  -5.378  -1.152  0.00  0.00    +0.100 C 
ATOM      2  C   UNL     1      -4.211  -5.109  -2.389  0.00  0.00    +0.048 C 
ATOM      3  C   UNL     1      -5.496  -5.911  -2.397  0.00  0.00    +0.146 C 
ATOM      4  C   UNL     1      -6.327  -5.679  -1.162  0.00  0.00    +0.165 C 
ATOM      5  C   UNL     1      -5.585  -5.819   0.146  0.00  0.00    +0.124 C 
ATOM      6  C   UNL     1      -4.138  -5.385   0.128  0.00  0.00    +0.115 C 
ATOM      7  N   UNL     1      -4.096  -4.130   0.878  0.00  0.00    -0.277 N 
ATOM      8  C   UNL     1      -5.301  -3.944   1.443  0.00  0.00    +0.138 C 
ATOM      9  S   UNL     1      -5.657  -2.625   2.475  0.00  0.00    -0.018 S 
ATOM     10  N   UNL     1      -6.200  -4.887   1.123  0.00  0.00    -0.319 N 
ATOM     11  H   UNL     1      -7.103  -4.949   1.472  0.00  0.00    +0.148 HD
ENDROOT
BRANCH   7  12
ATOM     12  C   UNL     1      -2.995  -3.272   0.983  0.00  0.00    +0.036 A 
ATOM     13  C   UNL     1      -1.859  -3.680   1.670  0.00  0.00    +0.025 A 
ATOM     14  C   UNL     1      -0.774  -2.833   1.774  0.00  0.00    +0.029 A 
ATOM     15  C   UNL     1      -0.818  -1.573   1.192  0.00  0.00    +0.065 A 
ATOM     16  C   UNL     1      -1.956  -1.163   0.510  0.00  0.00    +0.029 A 
ATOM     17  C   UNL     1      -3.039  -2.011   0.401  0.00  0.00    +0.025 A 
BRANCH  15  18
ATOM     18  N   UNL     1       0.285  -0.713   1.298  0.00  0.00    -0.240 N 
ATOM     19  C   UNL     1       0.374   0.533   0.781  0.00  0.00    +0.114 A 
ATOM     20  C   UNL     1       1.593   1.026   1.103  0.00  0.00    +0.041 A 
ATOM     21  C   UNL     1       2.271   0.050   1.841  0.00  0.00    +0.135 A 
ATOM     22  N   UNL     1       1.488  -0.993   1.958  0.00  0.00    -0.175 NA
ENDBRANCH  15  18
ENDBRANCH   7  12
BRANCH   1  24
ATOM     23  N   UNL     1      -1.049  -4.677  -0.750  0.00  0.00    -0.304 N 
ATOM     24  C   UNL     1      -2.312  -4.325  -1.062  0.00  0.00    +0.219 C 
ATOM     25  O   UNL     1      -2.584  -3.162  -1.272  0.00  0.00    -0.275 OA
ATOM     26  H   UNL     1      -0.843  -5.597  -0.522  0.00  0.00    +0.150 HD
BRANCH  23  27
ATOM     27  C   UNL     1       0.014  -3.668  -0.753  0.00  0.00    +0.193 C 
BRANCH  27  29
ATOM     28  C   UNL     1       2.224  -4.713   0.259  0.00  0.00    +0.005 C 
ATOM     29  C   UNL     1       1.244  -4.249  -0.190  0.00  0.00    -0.087 C 
ENDBRANCH  27  29
ENDBRANCH  23  27
ENDBRANCH   1  24
BRANCH   4  30
ATOM     30  O   UNL     1      -6.875  -4.361  -1.229  0.00  0.00    -0.387 OA
ATOM     31  H   UNL     1      -7.371  -4.183  -2.040  0.00  0.00    +0.210 HD
ENDBRANCH   4  30
BRANCH   3  32
ATOM     32  O   UNL     1      -5.173  -7.300  -2.484  0.00  0.00    -0.389 OA
ATOM     33  H   UNL     1      -4.637  -7.532  -3.255  0.00  0.00    +0.210 HD
ENDBRANCH   3  32
TORSDOF 7
