REMARK  Name = ZINC13548614
REMARK  8 active torsions:
REMARK  status: ('A' for Active; 'I' for Inactive)
REMARK    1  A    between atoms: C_1  and  C_2
REMARK    2  A    between atoms: C_7  and  O_10
REMARK    3  A    between atoms: O_10  and  C_11
REMARK    4  A    between atoms: C_11  and  C_13
REMARK    5  A    between atoms: C_14  and  C_31
REMARK    6  A    between atoms: C_19  and  C_21
REMARK    7  A    between atoms: C_26  and  O_27
REMARK    8  A    between atoms: O_27  and  C_28
REMARK                            x       y       z     vdW  Elec       q    Type
REMARK                         _______ _______ _______ _____ _____    ______ ____
ROOT
ATOM      1  C   UNL     1       4.215  -0.634   1.315  0.00  0.00    +0.078 C 
ATOM      2  C   UNL     1       4.674  -1.818   1.773  0.00  0.00    +0.021 C 
ATOM      3  N   UNL     1       4.401  -2.982   1.114  0.00  0.00    -0.273 N 
ATOM      4  C   UNL     1       3.675  -3.047  -0.010  0.00  0.00    +0.304 C 
ATOM      5  O   UNL     1       3.486  -4.131  -0.526  0.00  0.00    -0.252 OA
ATOM      6  N   UNL     1       3.150  -1.950  -0.588  0.00  0.00    -0.288 N 
ATOM      7  C   UNL     1       3.387  -0.641   0.046  0.00  0.00    +0.147 C 
ATOM      8  C   UNL     1       5.501  -1.856   3.032  0.00  0.00    +0.061 C 
ATOM      9  H   UNL     1       4.752  -3.809   1.480  0.00  0.00    +0.156 HD
ATOM     10  H   UNL     1       2.626  -2.020  -1.401  0.00  0.00    +0.151 HD
ENDROOT
BRANCH   7  11
ATOM     11  C   UNL     1       2.047  -0.028   0.361  0.00  0.00    +0.022 A 
ATOM     12  C   UNL     1       0.984  -0.836   0.718  0.00  0.00    +0.029 A 
ATOM     13  C   UNL     1      -0.246  -0.274   1.007  0.00  0.00    +0.043 A 
ATOM     14  C   UNL     1      -0.416   1.098   0.941  0.00  0.00    +0.043 A 
ATOM     15  C   UNL     1       0.645   1.910   0.585  0.00  0.00    +0.084 A 
ATOM     16  C   UNL     1       1.880   1.347   0.293  0.00  0.00    +0.144 A 
ATOM     17 CL   UNL     1       0.432   3.631   0.501  0.00  0.00    -0.080 Cl
ATOM     18 CL   UNL     1      -1.580  -1.291   1.455  0.00  0.00    -0.083 Cl
BRANCH  16  19
ATOM     19  O   UNL     1       2.925   2.143  -0.058  0.00  0.00    -0.493 OA
ATOM     20  C   UNL     1       3.030   2.505  -1.437  0.00  0.00    +0.277 C 
ENDBRANCH  16  19
ENDBRANCH   7  11
BRANCH   1  21
ATOM     21  C   UNL     1       4.498   0.573   1.996  0.00  0.00    +0.339 C 
ATOM     22  O   UNL     1       5.377   1.310   1.589  0.00  0.00    -0.245 OA
BRANCH  21  23
ATOM     23  O   UNL     1       3.793   0.907   3.097  0.00  0.00    -0.458 OA
BRANCH  23  29
ATOM     24  C   UNL     1       1.236   2.261   6.252  0.00  0.00    +0.007 C 
ATOM     25  C   UNL     1       2.445   1.672   5.522  0.00  0.00    -0.011 C 
ATOM     26  C   UNL     1       3.542   1.344   6.537  0.00  0.00    +0.003 C 
ATOM     27  C   UNL     1       4.752   0.756   5.807  0.00  0.00    +0.004 C 
ATOM     28  C   UNL     1       5.281   1.773   4.794  0.00  0.00    +0.045 C 
ATOM     29  C   UNL     1       4.183   2.101   3.780  0.00  0.00    +0.177 C 
ATOM     30  C   UNL     1       2.974   2.689   4.509  0.00  0.00    +0.048 C 
ENDBRANCH  23  29
ENDBRANCH  21  23
ENDBRANCH   1  21
TORSDOF 5
