REMARK  Name = ZINC40295427
REMARK  5 active torsions:
REMARK  status: ('A' for Active; 'I' for Inactive)
REMARK    1  A    between atoms: C_6  and  N_7
REMARK    2  A    between atoms: C_11  and  C_12
REMARK    3  A    between atoms: C_19  and  C_21
REMARK    4  A    between atoms: C_21  and  C_22
REMARK    5  A    between atoms: C_22  and  O_23
REMARK                            x       y       z     vdW  Elec       q    Type
REMARK                         _______ _______ _______ _____ _____    ______ ____
ROOT
ATOM      1  C   UNL     1       0.634   1.387   2.696  0.00  0.00    +0.023 A 
ATOM      2  C   UNL     1       1.642   2.086   2.091  0.00  0.00    +0.012 A 
ATOM      3  C   UNL     1       2.659   1.403   1.429  0.00  0.00    +0.012 A 
ATOM      4  C   UNL     1       2.652  -0.000   1.379  0.00  0.00    +0.049 A 
ATOM      5  C   UNL     1       1.621  -0.699   1.996  0.00  0.00    +0.049 A 
ATOM      6  C   UNL     1       0.618  -0.005   2.652  0.00  0.00    +0.027 A 
ATOM      7  N   UNL     1       3.766  -0.394   0.667  0.00  0.00    -0.360 N 
ATOM      8  H   UNL     1       4.007  -1.315   0.480  0.00  0.00    +0.165 HD
ATOM      9  C   UNL     1       4.477   0.688   0.264  0.00  0.00    +0.096 A 
ATOM     10  C   UNL     1       3.864   1.828   0.691  0.00  0.00    +0.062 A 
ENDROOT
BRANCH  10  11
ATOM     11  C   UNL     1       4.314   3.207   0.462  0.00  0.00    +0.249 C 
ATOM     12  O   UNL     1       3.499   4.107   0.379  0.00  0.00    -0.270 OA
ATOM     13  N   UNL     1       5.629   3.476   0.343  0.00  0.00    -0.294 N 
ATOM     14  C   UNL     1       6.620   2.391   0.367  0.00  0.00    +0.108 C 
ATOM     15  C   UNL     1       7.669   2.706   1.439  0.00  0.00    +0.019 C 
ATOM     16  C   UNL     1       8.261   4.092   1.176  0.00  0.00    +0.003 C 
ATOM     17  C   UNL     1       7.154   5.146   1.260  0.00  0.00    +0.022 C 
ATOM     18  C   UNL     1       6.099   4.859   0.181  0.00  0.00    +0.078 C 
BRANCH  18  19
ATOM     19  C   UNL     1       4.922   5.823   0.342  0.00  0.00    +0.050 C 
BRANCH  19  20
ATOM     20  C   UNL     1       5.421   7.263   0.211  0.00  0.00    +0.157 C 
BRANCH  20  21
ATOM     21  O   UNL     1       4.307   8.158   0.242  0.00  0.00    -0.395 OA
ATOM     22  H   UNL     1       4.550   9.091   0.164  0.00  0.00    +0.209 HD
ENDBRANCH  20  21
ENDBRANCH  19  20
ENDBRANCH  18  19
ENDBRANCH  10  11
BRANCH   6  23
ATOM     23  N   UNL     1      -0.418  -0.708   3.274  0.00  0.00    -0.358 N 
ATOM     24  H   UNL     1      -1.123  -0.225   3.734  0.00  0.00    +0.142 HD
ATOM     25  H   UNL     1      -0.433  -1.677   3.246  0.00  0.00    +0.142 HD
ENDBRANCH   6  23
TORSDOF 5
