REMARK  Name = ZINC20676981
REMARK  9 active torsions:
REMARK  status: ('A' for Active; 'I' for Inactive)
REMARK    1  A    between atoms: C_1  and  C_2
REMARK    2  A    between atoms: C_2  and  C_3
REMARK    3  A    between atoms: C_3  and  N_4
REMARK    4  A    between atoms: C_17  and  C_22
REMARK    5  A    between atoms: C_28  and  N_35
REMARK    6  A    between atoms: C_29  and  C_30
REMARK    7  A    between atoms: C_30  and  O_32
REMARK    8  A    between atoms: O_32  and  C_33
REMARK    9  A    between atoms: C_33  and  C_34
REMARK                            x       y       z     vdW  Elec       q    Type
REMARK                         _______ _______ _______ _____ _____    ______ ____
ROOT
ATOM      1  N   UNL     1       1.256   2.974  -0.092  0.00  0.00    -0.270 N 
ATOM      2  C   UNL     1       1.161   1.596  -0.010  0.00  0.00    +0.041 A 
ATOM      3  C   UNL     1       0.024   0.789   0.051  0.00  0.00    +0.024 A 
ATOM      4  C   UNL     1       0.222  -0.581   0.128  0.00  0.00    +0.002 A 
ATOM      5  C   UNL     1       1.486  -1.136   0.144  0.00  0.00    +0.000 A 
ATOM      6  C   UNL     1       2.626  -0.343   0.083  0.00  0.00    +0.007 A 
ATOM      7  C   UNL     1       2.437   1.020   0.007  0.00  0.00    -0.002 A 
ATOM      8  C   UNL     1       3.410   2.155  -0.068  0.00  0.00    +0.141 C 
ATOM      9  C   UNL     1       2.538   3.391  -0.131  0.00  0.00    +0.240 C 
ATOM     10  O   UNL     1       2.921   4.540  -0.202  0.00  0.00    -0.274 OA
ATOM     11  C   UNL     1       4.247   2.060  -1.317  0.00  0.00    +0.057 C 
ATOM     12  C   UNL     1       5.536   1.675  -1.246  0.00  0.00    +0.116 C 
ATOM     13  C   UNL     1       6.386   1.597  -2.492  0.00  0.00    +0.086 C 
ATOM     14  C   UNL     1       5.510   1.231  -3.692  0.00  0.00    +0.070 C 
ATOM     15  C   UNL     1       4.418   2.296  -3.838  0.00  0.00    +0.091 C 
ATOM     16  C   UNL     1       3.647   2.382  -2.549  0.00  0.00    +0.165 C 
ATOM     17  O   UNL     1       2.486   2.738  -2.572  0.00  0.00    -0.292 OA
ATOM     18  O   UNL     1       6.106   1.352  -0.070  0.00  0.00    -0.446 OA
ATOM     19  C   UNL     1       5.579   1.799   1.079  0.00  0.00    +0.195 C 
ATOM     20  C   UNL     1       4.282   2.199   1.153  0.00  0.00    +0.117 C 
ENDROOT
BRANCH  14  21
ATOM     21  C   UNL     1       6.349   1.190  -4.943  0.00  0.00    +0.109 A 
ATOM     22  C   UNL     1       6.515   0.123  -5.745  0.00  0.00    +0.045 A 
ATOM     23  C   UNL     1       7.372   0.528  -6.794  0.00  0.00    +0.041 A 
ATOM     24  C   UNL     1       7.685   1.816  -6.566  0.00  0.00    +0.195 A 
ATOM     25  O   UNL     1       7.063   2.212  -5.443  0.00  0.00    -0.468 OA
ENDBRANCH  14  21
BRANCH  19  26
ATOM     26  N   UNL     1       6.363   1.852   2.201  0.00  0.00    -0.329 N 
ATOM     27  H   UNL     1       5.941   2.217   3.149  0.00  0.00    +0.145 HD
ATOM     28  H   UNL     1       7.414   1.530   2.154  0.00  0.00    +0.145 HD
ENDBRANCH  19  26
BRANCH  20  29
ATOM     29  C   UNL     1       3.757   2.655   2.373  0.00  0.00    +0.342 C 
ATOM     30  O   UNL     1       3.064   1.918   3.050  0.00  0.00    -0.245 OA
BRANCH  29  31
ATOM     31  O   UNL     1       4.022   3.910   2.795  0.00  0.00    -0.462 OA
BRANCH  31  32
ATOM     32  C   UNL     1       3.550   4.270   4.095  0.00  0.00    +0.229 C 
ATOM     33  C   UNL     1       4.045   5.675   4.445  0.00  0.00    +0.048 C 
ENDBRANCH  31  32
ENDBRANCH  29  31
ENDBRANCH  20  29
BRANCH   1  34
ATOM     34  C   UNL     1       0.100   3.874  -0.133  0.00  0.00    +0.113 C 
BRANCH  34  36
ATOM     35  C   UNL     1      -1.638   5.018   1.251  0.00  0.00    +0.005 C 
ATOM     36  C   UNL     1      -0.359   4.178   1.295  0.00  0.00    +0.016 C 
ENDBRANCH  34  36
ENDBRANCH   1  34
TORSDOF 7
