REMARK  Name = ZINC09360999
REMARK  8 active torsions:
REMARK  status: ('A' for Active; 'I' for Inactive)
REMARK    1  A    between atoms: C_1  and  C_2
REMARK    2  A    between atoms: C_2  and  C_3
REMARK    3  A    between atoms: C_2  and  C_4
REMARK    4  A    between atoms: C_5  and  C_15
REMARK    5  A    between atoms: N_17  and  N_18
REMARK    6  A    between atoms: C_19  and  C_20
REMARK    7  A    between atoms: C_19  and  C_21
REMARK    8  A    between atoms: C_26  and  O_27
REMARK                            x       y       z     vdW  Elec       q    Type
REMARK                         _______ _______ _______ _____ _____    ______ ____
ROOT
ATOM      1  C   UNL     1      -1.504  -0.608  -0.434  0.00  0.00    +0.082 A 
ATOM      2  C   UNL     1      -2.571  -0.205   0.318  0.00  0.00    +0.172 A 
ATOM      3  N   UNL     1      -3.679  -0.797  -0.163  0.00  0.00    -0.124 NA
ATOM      4  N   UNL     1      -3.369  -1.542  -1.166  0.00  0.00    -0.058 NA
ATOM      5  N   UNL     1      -1.986  -1.447  -1.378  0.00  0.00    -0.192 N 
ATOM      6  C   UNL     1      -1.248  -2.097  -2.373  0.00  0.00    +0.240 A 
ATOM      7  C   UNL     1      -1.800  -2.921  -3.451  0.00  0.00    +0.206 A 
ATOM      8  N   UNL     1      -0.812  -3.359  -4.181  0.00  0.00    -0.032 NA
ATOM      9  O   UNL     1       0.392  -2.855  -3.628  0.00  0.00    -0.239 OA
ATOM     10  N   UNL     1       0.049  -2.068  -2.501  0.00  0.00    -0.027 NA
ATOM     11  N   UNL     1      -3.148  -3.192  -3.660  0.00  0.00    -0.337 N 
ATOM     12  H   UNL     1      -3.816  -2.821  -3.061  0.00  0.00    +0.144 HD
ATOM     13  H   UNL     1      -3.421  -3.751  -4.404  0.00  0.00    +0.144 HD
ENDROOT
BRANCH   2  14
ATOM     14  C   UNL     1      -2.518   0.722   1.464  0.00  0.00    +0.285 C 
ATOM     15  O   UNL     1      -1.444   1.125   1.870  0.00  0.00    -0.267 OA
ATOM     16  N   UNL     1      -3.658   1.122   2.061  0.00  0.00    -0.201 N 
ATOM     17  H   UNL     1      -4.514   0.800   1.738  0.00  0.00    +0.178 HD
BRANCH  16  18
ATOM     18  N   UNL     1      -3.607   2.002   3.150  0.00  0.00    -0.184 NA
ATOM     19  C   UNL     1      -4.705   2.387   3.725  0.00  0.00    +0.067 C 
ATOM     20  C   UNL     1      -6.034   1.887   3.222  0.00  0.00    +0.068 C 
BRANCH  19  21
ATOM     21  C   UNL     1      -4.651   3.313   4.870  0.00  0.00    +0.039 A 
ATOM     22  C   UNL     1      -5.830   3.726   5.496  0.00  0.00    +0.013 A 
ATOM     23  C   UNL     1      -5.772   4.593   6.567  0.00  0.00    +0.001 A 
ATOM     24  C   UNL     1      -4.551   5.057   7.025  0.00  0.00    +0.004 A 
ATOM     25  C   UNL     1      -3.378   4.656   6.414  0.00  0.00    +0.046 A 
ATOM     26  C   UNL     1      -3.416   3.781   5.341  0.00  0.00    +0.126 A 
BRANCH  26  27
ATOM     27  O   UNL     1      -2.264   3.382   4.744  0.00  0.00    -0.506 OA
ATOM     28  H   UNL     1      -1.979   3.954   4.018  0.00  0.00    +0.292 HD
ENDBRANCH  26  27
ENDBRANCH  19  21
ENDBRANCH  16  18
ENDBRANCH   2  14
BRANCH   1  30
ATOM     29  C   UNL     1       0.785  -1.426   0.054  0.00  0.00    +0.014 C 
ATOM     30  C   UNL     1      -0.068  -0.193  -0.250  0.00  0.00    +0.034 C 
ATOM     31  C   UNL     1       0.438   0.474  -1.531  0.00  0.00    +0.014 C 
ENDBRANCH   1  30
TORSDOF 5
