REMARK  Name = ZINC21952475
REMARK  4 active torsions:
REMARK  status: ('A' for Active; 'I' for Inactive)
REMARK    1  A    between atoms: C_4  and  C_7
REMARK    2  A    between atoms: C_7  and  C_9
REMARK    3  A    between atoms: C_7  and  O_19
REMARK    4  A    between atoms: C_13  and  N_15
REMARK                            x       y       z     vdW  Elec       q    Type
REMARK                         _______ _______ _______ _____ _____    ______ ____
ROOT
ATOM      1  C   UNL     1      -0.742   1.585  -1.213  0.00  0.00    -0.013 A 
ATOM      2  C   UNL     1      -0.474   2.847  -1.709  0.00  0.00    +0.008 A 
ATOM      3  C   UNL     1      -1.138   3.304  -2.832  0.00  0.00    +0.022 A 
ATOM      4  C   UNL     1      -2.079   2.501  -3.453  0.00  0.00    +0.071 A 
ATOM      5  C   UNL     1      -2.350   1.240  -2.953  0.00  0.00    +0.145 A 
ATOM      6  C   UNL     1      -1.681   0.783  -1.833  0.00  0.00    +0.040 A 
ATOM      7 CL   UNL     1      -2.919   3.076  -4.859  0.00  0.00    -0.081 Cl
ENDROOT
BRANCH   5   8
ATOM      8  N   UNL     1      -3.356   0.381  -3.616  0.00  0.00    +0.058 N 
ATOM      9  O   UNL     1      -3.595  -0.729  -3.176  0.00  0.00    -0.126 OA
ATOM     10  O   UNL     1      -3.945   0.784  -4.603  0.00  0.00    -0.126 OA
ENDBRANCH   5   8
BRANCH   1  11
ATOM     11  C   UNL     1      -0.013   1.086   0.008  0.00  0.00    +0.175 C 
BRANCH  11  15
ATOM     12  C   UNL     1      -2.011   2.463   3.523  0.00  0.00    +0.000 A 
ATOM     13  C   UNL     1      -2.215   1.172   3.073  0.00  0.00    +0.000 A 
ATOM     14  C   UNL     1      -1.568   0.726   1.936  0.00  0.00    +0.006 A 
ATOM     15  C   UNL     1      -0.718   1.572   1.248  0.00  0.00    -0.015 A 
ATOM     16  C   UNL     1      -0.511   2.861   1.700  0.00  0.00    +0.006 A 
ATOM     17  C   UNL     1      -1.161   3.309   2.835  0.00  0.00    +0.000 A 
ENDBRANCH  11  15
BRANCH  11  18
ATOM     18  O   UNL     1       1.328   1.580  -0.002  0.00  0.00    -0.383 OA
ATOM     19  H   UNL     1       2.001   1.328  -0.835  0.00  0.00    +0.211 HD
ENDBRANCH  11  18
ENDBRANCH   1  11
TORSDOF 4
