REMARK  Name = ZINC50973292
REMARK  5 active torsions:
REMARK  status: ('A' for Active; 'I' for Inactive)
REMARK    1  A    between atoms: C_1  and  C_2
REMARK    2  A    between atoms: C_2  and  C_4
REMARK    3  A    between atoms: C_2  and  N_8
REMARK    4  A    between atoms: N_5  and  O_6
REMARK    5  A    between atoms: C_9  and  C_11
REMARK                            x       y       z     vdW  Elec       q    Type
REMARK                         _______ _______ _______ _____ _____    ______ ____
ROOT
ATOM      1  N   UNL     1       0.711  -0.489   1.189  0.00  0.00    -0.304 N 
ATOM      2  C   UNL     1       0.051  -0.633   2.355  0.00  0.00    +0.242 C 
ATOM      3  O   UNL     1      -1.129  -0.361   2.423  0.00  0.00    -0.273 OA
ATOM      4  H   UNL     1       1.654  -0.707   1.135  0.00  0.00    +0.149 HD
ENDROOT
BRANCH   2   5
ATOM      5  C   UNL     1       0.780  -1.133   3.576  0.00  0.00    +0.204 C 
ATOM      6  C   UNL     1       1.239  -2.574   3.343  0.00  0.00    +0.041 C 
ATOM      7  C   UNL     1       1.926  -3.095   4.609  0.00  0.00    +0.005 C 
ATOM      8  C   UNL     1       0.955  -2.978   5.788  0.00  0.00    +0.028 C 
ATOM      9  C   UNL     1       0.507  -1.520   5.927  0.00  0.00    +0.161 C 
ATOM     10  O   UNL     1      -0.096  -1.089   4.705  0.00  0.00    -0.367 OA
ENDBRANCH   2   5
BRANCH   1  12
ATOM     11  C   UNL     1      -0.019   1.526   0.010  0.00  0.00    +0.036 C 
ATOM     12  C   UNL     1       0.002  -0.004   0.002  0.00  0.00    +0.136 C 
BRANCH  12  13
ATOM     13  C   UNL     1       0.707  -0.490  -1.238  0.00  0.00    +0.152 C 
ATOM     14  N   UNL     1       0.054  -0.616  -2.345  0.00  0.00    -0.075 NA
ATOM     15  N   UNL     1       2.049  -0.800  -1.190  0.00  0.00    -0.342 N 
ATOM     16  H   UNL     1       2.539  -0.705  -0.359  0.00  0.00    +0.144 HD
ATOM     17  H   UNL     1       2.503  -1.113  -1.988  0.00  0.00    +0.144 HD
BRANCH  14  18
ATOM     18  O   UNL     1       0.717  -1.073  -3.510  0.00  0.00    -0.408 OA
ATOM     19  H   UNL     1       0.146  -1.135  -4.288  0.00  0.00    +0.328 HD
ENDBRANCH  14  18
ENDBRANCH  12  13
ENDBRANCH   1  12
TORSDOF 4
