REMARK  Name = ZINC31167954
REMARK  12 active torsions:
REMARK  status: ('A' for Active; 'I' for Inactive)
REMARK    1  A    between atoms: C_1  and  C_2
REMARK    2  A    between atoms: C_7  and  C_36
REMARK    3  A    between atoms: C_14  and  O_19
REMARK    4  A    between atoms: C_16  and  C_18
REMARK    5  A    between atoms: O_19  and  C_20
REMARK    6  A    between atoms: C_22  and  O_35
REMARK    7  A    between atoms: C_24  and  O_34
REMARK    8  A    between atoms: C_26  and  O_33
REMARK    9  A    between atoms: C_28  and  C_31
REMARK   10  A    between atoms: C_31  and  O_32
REMARK   11  A    between atoms: C_36  and  C_37
REMARK   12  A    between atoms: C_36  and  C_38
REMARK                            x       y       z     vdW  Elec       q    Type
REMARK                         _______ _______ _______ _____ _____    ______ ____
ROOT
ATOM      1  C   UNL     1      -0.013   1.086   0.008  0.00  0.00    +0.008 C 
ATOM      2  C   UNL     1      -0.729   1.579   1.267  0.00  0.00    -0.003 C 
ATOM      3  C   UNL     1       0.013   1.071   2.506  0.00  0.00    +0.078 C 
ATOM      4  C   UNL     1      -0.659   1.653   3.731  0.00  0.00    +0.137 C 
ATOM      5  O   UNL     1      -1.028   0.943   4.636  0.00  0.00    -0.297 OA
ATOM      6  C   UNL     1      -0.852   3.152   3.785  0.00  0.00    +0.065 C 
ATOM      7  C   UNL     1      -1.512   3.621   2.495  0.00  0.00    +0.026 C 
ATOM      8  C   UNL     1      -0.759   3.111   1.268  0.00  0.00    +0.003 C 
ATOM      9  C   UNL     1      -1.544   3.569   0.025  0.00  0.00    +0.040 C 
ATOM     10  C   UNL     1      -2.869   2.804  -0.007  0.00  0.00    +0.147 C 
ATOM     11  C   UNL     1      -3.542   2.857   1.333  0.00  0.00    -0.048 C 
ATOM     12  C   UNL     1      -2.950   3.209   2.432  0.00  0.00    -0.021 C 
ATOM     13  C   UNL     1      -4.999   2.478   1.406  0.00  0.00    +0.041 C 
ENDROOT
BRANCH   6  14
ATOM     14  C   UNL     1      -1.744   3.509   4.975  0.00  0.00    -0.006 C 
ATOM     15  C   UNL     1      -1.081   3.034   6.270  0.00  0.00    +0.008 C 
ATOM     16  C   UNL     1      -1.939   5.026   5.029  0.00  0.00    +0.008 C 
ENDBRANCH   6  14
BRANCH  10  17
ATOM     17  O   UNL     1      -3.727   3.388  -0.989  0.00  0.00    -0.341 OA
BRANCH  17  18
ATOM     18  C   UNL     1      -4.614   2.457  -1.613  0.00  0.00    +0.282 C 
ATOM     19  C   UNL     1      -5.565   3.207  -2.549  0.00  0.00    +0.201 C 
ATOM     20  C   UNL     1      -4.750   3.885  -3.655  0.00  0.00    +0.179 C 
ATOM     21  C   UNL     1      -3.927   2.825  -4.391  0.00  0.00    +0.177 C 
ATOM     22  C   UNL     1      -3.039   2.089  -3.383  0.00  0.00    +0.178 C 
ATOM     23  O   UNL     1      -3.857   1.508  -2.366  0.00  0.00    -0.341 OA
BRANCH  21  24
ATOM     24  O   UNL     1      -4.805   1.892  -5.023  0.00  0.00    -0.386 OA
ATOM     25  H   UNL     1      -4.392   1.053  -5.603  0.00  0.00    +0.210 HD
ENDBRANCH  21  24
BRANCH  20  26
ATOM     26  O   UNL     1      -5.635   4.527  -4.575  0.00  0.00    -0.386 OA
ATOM     27  H   UNL     1      -5.229   5.070  -5.441  0.00  0.00    +0.210 HD
ENDBRANCH  20  26
BRANCH  19  28
ATOM     28  O   UNL     1      -6.282   4.197  -1.809  0.00  0.00    -0.384 OA
ATOM     29  H   UNL     1      -7.016   4.839  -2.317  0.00  0.00    +0.210 HD
ENDBRANCH  19  28
BRANCH  22  30
ATOM     30  C   UNL     1      -2.257   0.987  -4.101  0.00  0.00    +0.190 C 
BRANCH  30  31
ATOM     31  O   UNL     1      -1.344   0.378  -3.186  0.00  0.00    -0.392 OA
ATOM     32  H   UNL     1      -0.691  -0.441  -3.524  0.00  0.00    +0.210 HD
ENDBRANCH  30  31
ENDBRANCH  22  30
ENDBRANCH  17  18
ENDBRANCH  10  17
TORSDOF 8
