REMARK  Name = ZINC39444607
REMARK  6 active torsions:
REMARK  status: ('A' for Active; 'I' for Inactive)
REMARK    1  A    between atoms: C_1  and  C_2
REMARK    2  A    between atoms: C_11  and  C_16
REMARK    3  A    between atoms: C_13  and  C_15
REMARK    4  A    between atoms: C_16  and  C_17
REMARK    5  A    between atoms: C_17  and  C_18
REMARK    6  A    between atoms: C_18  and  N_20
REMARK                            x       y       z     vdW  Elec       q    Type
REMARK                         _______ _______ _______ _____ _____    ______ ____
ROOT
ATOM      1  C   UNL     1       2.576  -5.351   2.631  0.00  0.00    +0.099 C 
ENDROOT
BRANCH   1   2
ATOM      2  C   UNL     1       4.072  -5.185   2.719  0.00  0.00    +0.239 C 
ATOM      3  O   UNL     1       4.675  -4.619   1.828  0.00  0.00    -0.274 OA
BRANCH   2   4
ATOM      4  N   UNL     1       4.732  -5.658   3.772  0.00  0.00    -0.147 NA
ATOM      5  C   UNL     1       6.061  -5.605   3.802  0.00  0.00    +0.198 A 
ATOM      6  N   UNL     1       6.846  -4.992   2.878  0.00  0.00    -0.326 N 
ATOM      7  H   UNL     1       6.533  -4.522   2.089  0.00  0.00    +0.169 HD
ATOM      8  C   UNL     1       8.174  -5.154   3.257  0.00  0.00    +0.065 A 
ATOM      9  C   UNL     1       9.376  -4.744   2.697  0.00  0.00    +0.028 A 
ATOM     10  C   UNL     1      10.568  -5.063   3.316  0.00  0.00    +0.002 A 
ATOM     11  C   UNL     1      10.569  -5.790   4.495  0.00  0.00    +0.002 A 
ATOM     12  C   UNL     1       9.380  -6.203   5.060  0.00  0.00    +0.028 A 
ATOM     13  C   UNL     1       8.176  -5.888   4.445  0.00  0.00    +0.065 A 
ATOM     14  N   UNL     1       6.848  -6.151   4.766  0.00  0.00    -0.326 N 
ATOM     15  H   UNL     1       6.538  -6.641   5.543  0.00  0.00    +0.169 HD
ENDBRANCH   2   4
ENDBRANCH   1   2
BRANCH   1  16
ATOM     16  C   UNL     1       2.070  -4.724   1.330  0.00  0.00    +0.024 C 
BRANCH  16  27
ATOM     17  C   UNL     1      -0.033   1.450  -0.071  0.00  0.00    +0.044 C 
ATOM     18  C   UNL     1      -0.008  -0.057  -0.064  0.00  0.00    -0.047 A 
ATOM     19  C   UNL     1       0.001  -0.755  -1.258  0.00  0.00    +0.004 A 
ATOM     20  C   UNL     1       0.020  -2.136  -1.251  0.00  0.00    +0.008 A 
ATOM     21  C   UNL     1       0.034  -2.830  -0.052  0.00  0.00    -0.001 A 
ATOM     22  C   UNL     1       0.032  -2.134   1.143  0.00  0.00    +0.135 A 
ATOM     23  C   UNL     1       0.013  -0.743   1.133  0.00  0.00    +0.050 A 
ATOM     24  O   UNL     1       0.066  -2.770   2.346  0.00  0.00    -0.425 OA
ATOM     25  C   UNL     1      -0.119  -4.106   2.349  0.00  0.00    +0.316 C 
ATOM     26  O   UNL     1      -0.789  -4.650   3.194  0.00  0.00    -0.250 OA
ATOM     27  C   UNL     1       0.552  -4.892   1.240  0.00  0.00    +0.106 C 
ATOM     28  C   UNL     1       0.044  -4.338  -0.094  0.00  0.00    +0.033 C 
ATOM     29  C   UNL     1       0.964  -4.808  -1.223  0.00  0.00    +0.013 C 
ENDBRANCH  16  27
ENDBRANCH   1  16
TORSDOF 4
