REMARK  Name = ZINC14458982
REMARK  6 active torsions:
REMARK  status: ('A' for Active; 'I' for Inactive)
REMARK    1  A    between atoms: C_1  and  C_2
REMARK    2  A    between atoms: C_3  and  N_27
REMARK    3  A    between atoms: C_9  and  C_18
REMARK    4  A    between atoms: C_21  and  O_26
REMARK    5  A    between atoms: C_22  and  O_24
REMARK    6  A    between atoms: O_24  and  C_25
REMARK                            x       y       z     vdW  Elec       q    Type
REMARK                         _______ _______ _______ _____ _____    ______ ____
ROOT
ATOM      1  C   UNL     1       6.091   3.576  -3.191  0.00  0.00    +0.048 C 
ATOM      2  C   UNL     1       6.322   3.982  -1.758  0.00  0.00    +0.001 A 
ATOM      3  C   UNL     1       7.137   5.056  -1.472  0.00  0.00    +0.131 A 
ATOM      4  C   UNL     1       7.347   5.428  -0.156  0.00  0.00    +0.033 A 
ATOM      5  C   UNL     1       6.741   4.726   0.865  0.00  0.00    +0.008 A 
ATOM      6  C   UNL     1       5.917   3.643   0.588  0.00  0.00    -0.019 A 
ATOM      7  C   UNL     1       5.709   3.269  -0.729  0.00  0.00    +0.036 A 
ATOM      8  N   UNL     1       4.901   2.186  -1.074  0.00  0.00    -0.336 N 
ATOM      9  C   UNL     1       3.884   1.907  -0.059  0.00  0.00    +0.105 C 
ATOM     10  C   UNL     1       4.565   1.639   1.285  0.00  0.00    +0.029 C 
ATOM     11  C   UNL     1       5.286   2.925   1.744  0.00  0.00    +0.049 C 
ATOM     12  C   UNL     1       4.189   3.763   2.359  0.00  0.00    -0.023 C 
ATOM     13  C   UNL     1       3.175   3.009   2.702  0.00  0.00    -0.030 C 
ATOM     14  C   UNL     1       3.455   1.556   2.371  0.00  0.00    +0.033 C 
ATOM     15  H   UNL     1       5.457   1.366  -1.264  0.00  0.00    +0.147 HD
ENDROOT
BRANCH   9  16
ATOM     16  C   UNL     1       2.965   3.094   0.071  0.00  0.00    -0.023 A 
ATOM     17  C   UNL     1       3.388   4.343  -0.344  0.00  0.00    +0.009 A 
ATOM     18  C   UNL     1       2.549   5.435  -0.227  0.00  0.00    +0.049 A 
ATOM     19  C   UNL     1       1.277   5.278   0.301  0.00  0.00    +0.158 A 
ATOM     20  C   UNL     1       0.853   4.021   0.723  0.00  0.00    +0.162 A 
ATOM     21  C   UNL     1       1.699   2.931   0.604  0.00  0.00    +0.054 A 
BRANCH  20  22
ATOM     22  O   UNL     1      -0.392   3.863   1.247  0.00  0.00    -0.491 OA
ATOM     23  C   UNL     1      -0.762   2.544   1.654  0.00  0.00    +0.277 C 
ENDBRANCH  20  22
BRANCH  19  24
ATOM     24  O   UNL     1       0.448   6.350   0.412  0.00  0.00    -0.503 OA
ATOM     25  H   UNL     1       0.527   6.823   1.251  0.00  0.00    +0.292 HD
ENDBRANCH  19  24
ENDBRANCH   9  16
BRANCH   3  26
ATOM     26  N   UNL     1       7.786   5.809  -2.568  0.00  0.00    +0.057 N 
ATOM     27  O   UNL     1       8.409   6.826  -2.324  0.00  0.00    -0.126 OA
ATOM     28  O   UNL     1       7.696   5.412  -3.716  0.00  0.00    -0.126 OA
ENDBRANCH   3  26
TORSDOF 4
