REMARK  Name = ZINC54369480
REMARK  7 active torsions:
REMARK  status: ('A' for Active; 'I' for Inactive)
REMARK    1  A    between atoms: C_1  and  C_2
REMARK    2  A    between atoms: C_3  and  C_27
REMARK    3  A    between atoms: C_7  and  N_17
REMARK    4  A    between atoms: C_9  and  C_11
REMARK    5  A    between atoms: C_11  and  N_12
REMARK    6  A    between atoms: N_20  and  C_23
REMARK    7  A    between atoms: C_23  and  C_24
REMARK                            x       y       z     vdW  Elec       q    Type
REMARK                         _______ _______ _______ _____ _____    ______ ____
ROOT
ATOM      1  C   UNL     1       0.027   1.503   0.006  0.00  0.00    +0.045 C 
ATOM      2  C   UNL     1       0.043  -0.004  -0.002  0.00  0.00    -0.028 A 
ATOM      3  C   UNL     1      -0.038  -0.677  -1.159  0.00  0.00    -0.008 A 
ATOM      4  S   UNL     1       0.019  -2.385  -0.652  0.00  0.00    -0.074 S 
ATOM      5  C   UNL     1       0.151  -2.149   1.101  0.00  0.00    +0.114 A 
ATOM      6  C   UNL     1       0.152  -0.744   1.243  0.00  0.00    +0.051 A 
ATOM      7  C   UNL     1       0.255  -0.267   2.579  0.00  0.00    +0.133 A 
ATOM      8  N   UNL     1       0.345  -1.139   3.570  0.00  0.00    -0.219 NA
ATOM      9  C   UNL     1       0.343  -2.443   3.362  0.00  0.00    +0.116 A 
ATOM     10  N   UNL     1       0.240  -2.946   2.147  0.00  0.00    -0.227 NA
ATOM     11  C   UNL     1      -0.152  -0.121  -2.555  0.00  0.00    +0.052 C 
ENDROOT
BRANCH   7  12
ATOM     12  N   UNL     1       0.262   1.092   2.839  0.00  0.00    -0.312 N 
ATOM     13  C   UNL     1       1.505   1.872   2.746  0.00  0.00    +0.122 C 
ATOM     14  C   UNL     1       1.674   2.674   4.041  0.00  0.00    +0.104 C 
ATOM     15  N   UNL     1       0.461   3.465   4.285  0.00  0.00    -0.291 NA
ATOM     16  C   UNL     1      -0.708   2.599   4.492  0.00  0.00    +0.104 C 
ATOM     17  C   UNL     1      -0.975   1.796   3.209  0.00  0.00    +0.122 C 
BRANCH  15  18
ATOM     18  C   UNL     1       0.647   4.377   5.422  0.00  0.00    +0.180 C 
BRANCH  18  19
ATOM     19  C   UNL     1      -0.512   5.338   5.490  0.00  0.00    +0.225 C 
ATOM     20  O   UNL     1      -1.406   5.269   4.673  0.00  0.00    -0.275 OA
ATOM     21  N   UNL     1      -0.556   6.273   6.460  0.00  0.00    -0.328 N 
ATOM     22  H   UNL     1       0.158   6.328   7.114  0.00  0.00    +0.145 HD
ATOM     23  H   UNL     1      -1.302   6.891   6.504  0.00  0.00    +0.145 HD
ENDBRANCH  18  19
ENDBRANCH  15  18
ENDBRANCH   7  12
BRANCH   9  24
ATOM     24  C   UNL     1       0.449  -3.377   4.540  0.00  0.00    -0.001 C 
BRANCH  24  25
ATOM     25  N   UNL     1      -0.897  -3.696   5.034  0.00  0.00    +0.384 N 
ATOM     26  C   UNL     1      -1.623  -4.531   4.043  0.00  0.00    -0.078 C 
ATOM     27  C   UNL     1      -2.714  -5.226   4.895  0.00  0.00    -0.020 C 
ATOM     28  C   UNL     1      -1.982  -5.512   6.226  0.00  0.00    -0.020 C 
ATOM     29  C   UNL     1      -0.809  -4.516   6.262  0.00  0.00    -0.078 C 
ATOM     30  H   UNL     1      -1.411  -2.848   5.218  0.00  0.00    -0.081 HD
ENDBRANCH  24  25
ENDBRANCH   9  24
TORSDOF 5
