REMARK  Name = ZINC67606662
REMARK  6 active torsions:
REMARK  status: ('A' for Active; 'I' for Inactive)
REMARK    1  A    between atoms: C_8  and  O_32
REMARK    2  A    between atoms: C_10  and  N_12
REMARK    3  A    between atoms: N_15  and  C_16
REMARK    4  A    between atoms: C_16  and  C_17
REMARK    5  A    between atoms: C_21  and  N_23
REMARK    6  A    between atoms: C_24  and  C_26
REMARK                            x       y       z     vdW  Elec       q    Type
REMARK                         _______ _______ _______ _____ _____    ______ ____
ROOT
ATOM      1  N   UNL     1       3.694  -1.457   1.782  0.00  0.00    -0.290 N 
ATOM      2  C   UNL     1       4.689  -0.573   1.996  0.00  0.00    +0.300 C 
ATOM      3  O   UNL     1       5.002   0.213   1.123  0.00  0.00    -0.253 OA
ATOM      4  N   UNL     1       5.337  -0.562   3.178  0.00  0.00    -0.295 N 
ATOM      5  H   UNL     1       3.444  -2.084   2.478  0.00  0.00    +0.151 HD
ATOM      6  H   UNL     1       5.088  -1.189   3.874  0.00  0.00    +0.151 HD
ENDROOT
BRANCH   1  15
ATOM      7  C   UNL     1      -0.521   0.952   0.615  0.00  0.00    +0.000 A 
ATOM      8  C   UNL     1       0.676   1.616   0.419  0.00  0.00    +0.000 A 
ATOM      9  C   UNL     1       1.859   0.904   0.369  0.00  0.00    +0.006 A 
ATOM     10  C   UNL     1       1.849  -0.474   0.514  0.00  0.00    -0.021 A 
ATOM     11  C   UNL     1       0.653  -1.137   0.709  0.00  0.00    -0.040 A 
ATOM     12  C   UNL     1      -0.532  -0.421   0.759  0.00  0.00    +0.004 A 
ATOM     13  C   UNL     1       0.907  -2.624   0.837  0.00  0.00    +0.069 C 
ATOM     14  C   UNL     1       2.324  -2.842   0.265  0.00  0.00    +0.143 C 
ATOM     15  C   UNL     1       2.990  -1.469   0.497  0.00  0.00    +0.134 C 
BRANCH  14  16
ATOM     16  O   UNL     1       3.008  -3.871   0.983  0.00  0.00    -0.389 OA
ATOM     17  H   UNL     1       2.578  -4.736   0.936  0.00  0.00    +0.210 HD
ENDBRANCH  14  16
ENDBRANCH   1  15
BRANCH   4  18
ATOM     18  C   UNL     1       6.419   0.399   3.410  0.00  0.00    +0.141 C 
BRANCH  18  19
ATOM     19  C   UNL     1       6.973   0.204   4.798  0.00  0.00    -0.029 A 
ATOM     20  C   UNL     1       6.430   0.900   5.863  0.00  0.00    +0.005 A 
ATOM     21  C   UNL     1       6.936   0.725   7.138  0.00  0.00    +0.002 A 
ATOM     22  C   UNL     1       7.985  -0.148   7.352  0.00  0.00    +0.023 A 
ATOM     23  C   UNL     1       8.532  -0.848   6.285  0.00  0.00    +0.034 A 
ATOM     24  C   UNL     1       8.019  -0.673   5.007  0.00  0.00    +0.028 A 
BRANCH  23  25
ATOM     25  N   UNL     1       9.595  -1.733   6.499  0.00  0.00    -0.283 N 
ATOM     26  C   UNL     1       9.676  -2.423   7.654  0.00  0.00    +0.246 C 
ATOM     27  O   UNL     1       8.779  -2.352   8.467  0.00  0.00    -0.273 OA
ATOM     28  H   UNL     1      10.274  -1.849   5.816  0.00  0.00    +0.155 HD
BRANCH  26  29
ATOM     29  C   UNL     1      10.881  -3.284   7.934  0.00  0.00    +0.204 C 
ATOM     30  C   UNL     1      10.939  -4.449   6.923  0.00  0.00    +0.043 C 
ATOM     31  C   UNL     1      11.412  -5.633   7.810  0.00  0.00    +0.031 C 
ATOM     32  C   UNL     1      10.723  -5.286   9.154  0.00  0.00    +0.161 C 
ATOM     33  O   UNL     1      10.778  -3.851   9.245  0.00  0.00    -0.367 OA
ENDBRANCH  26  29
ENDBRANCH  23  25
ENDBRANCH  18  19
ENDBRANCH   4  18
TORSDOF 6
