REMARK  Name = ZINC61608359
REMARK  6 active torsions:
REMARK  status: ('A' for Active; 'I' for Inactive)
REMARK    1  A    between atoms: C_1  and  C_2
REMARK    2  A    between atoms: C_2  and  N_3
REMARK    3  A    between atoms: C_9  and  S_10
REMARK    4  A    between atoms: S_10  and  C_11
REMARK    5  A    between atoms: C_11  and  C_12
REMARK    6  A    between atoms: N_21  and  N_22
REMARK                            x       y       z     vdW  Elec       q    Type
REMARK                         _______ _______ _______ _____ _____    ______ ____
ROOT
ATOM      1  C   UNL     1       5.914  -0.892   0.185  0.00  0.00    +0.143 A 
ATOM      2  N   UNL     1       6.565   0.253   0.290  0.00  0.00    -0.215 NA
ATOM      3  C   UNL     1       7.556   0.425   1.149  0.00  0.00    +0.144 A 
ATOM      4  C   UNL     1       7.939  -0.656   1.990  0.00  0.00    +0.049 A 
ATOM      5  C   UNL     1       8.979  -0.722   3.002  0.00  0.00    +0.021 A 
ATOM      6  C   UNL     1       9.160  -1.864   3.681  0.00  0.00    +0.048 A 
ATOM      7  S   UNL     1       7.925  -2.954   3.000  0.00  0.00    -0.077 S 
ATOM      8  C   UNL     1       7.199  -1.846   1.822  0.00  0.00    +0.114 A 
ATOM      9  N   UNL     1       6.220  -1.928   0.942  0.00  0.00    -0.224 NA
ATOM     10  N   UNL     1       8.213   1.640   1.227  0.00  0.00    -0.267 N 
ATOM     11  H   UNL     1       8.939   1.759   1.859  0.00  0.00    +0.167 HD
ENDROOT
BRANCH  10  12
ATOM     12  N   UNL     1       7.838   2.672   0.414  0.00  0.00    -0.255 NA
ATOM     13  H   UNL     1       8.405   3.490   0.584  0.00  0.00    +0.140 HD
ATOM     14  H   UNL     1       7.878   2.400  -0.557  0.00  0.00    +0.140 HD
ENDBRANCH  10  12
BRANCH   1  15
ATOM     15  C   UNL     1       4.795  -1.015  -0.816  0.00  0.00    +0.153 C 
BRANCH  15  16
ATOM     16  S   UNL     1       3.230  -0.530  -0.036  0.00  0.00    -0.078 S 
BRANCH  16  23
ATOM     17  N   UNL     1       0.688  -0.476  -1.203  0.00  0.00    -0.271 N 
ATOM     18  C   UNL     1       0.106  -0.735  -2.392  0.00  0.00    +0.345 A 
ATOM     19  O   UNL     1      -1.077  -0.619  -2.654  0.00  0.00    -0.245 OA
ATOM     20  N   UNL     1       1.074  -1.147  -3.237  0.00  0.00    -0.226 N 
ATOM     21  H   UNL     1       0.954  -1.404  -4.165  0.00  0.00    +0.194 HD
ATOM     22  N   UNL     1       2.283  -1.135  -2.529  0.00  0.00    -0.145 NA
ATOM     23  C   UNL     1       2.037  -0.726  -1.317  0.00  0.00    +0.192 A 
BRANCH  17  25
ATOM     24  C   UNL     1      -0.019   1.526   0.010  0.00  0.00    +0.027 C 
ATOM     25  C   UNL     1       0.002  -0.004   0.002  0.00  0.00    +0.125 C 
ENDBRANCH  17  25
ENDBRANCH  16  23
ENDBRANCH  15  16
ENDBRANCH   1  15
TORSDOF 5
