REMARK  Name = ZINC11379315
REMARK  7 active torsions:
REMARK  status: ('A' for Active; 'I' for Inactive)
REMARK    1  A    between atoms: C_1  and  C_2
REMARK    2  A    between atoms: C_2  and  C_3
REMARK    3  A    between atoms: C_2  and  C_4
REMARK    4  A    between atoms: C_4  and  C_6
REMARK    5  A    between atoms: C_4  and  S_12
REMARK    6  A    between atoms: S_12  and  C_13
REMARK    7  A    between atoms: N_17  and  C_18
REMARK                            x       y       z     vdW  Elec       q    Type
REMARK                         _______ _______ _______ _____ _____    ______ ____
ROOT
ATOM      1  S   UNL     1       2.986   7.020  -0.159  0.00  0.00    -0.073 S 
ENDROOT
BRANCH   1   2
ATOM      2  C   UNL     1       1.908   5.627  -0.214  0.00  0.00    +0.194 A 
ATOM      3  N   UNL     1       0.601   5.667  -0.306  0.00  0.00    -0.121 NA
ATOM      4  N   UNL     1       0.127   4.349  -0.320  0.00  0.00    -0.112 NA
ATOM      5  C   UNL     1       1.160   3.547  -0.237  0.00  0.00    +0.221 A 
ATOM      6  N   UNL     1       2.287   4.315  -0.163  0.00  0.00    -0.287 N 
ATOM      7  N   UNL     1       1.116   2.159  -0.220  0.00  0.00    -0.300 N 
ATOM      8  C   UNL     1      -0.097   1.663  -0.883  0.00  0.00    +0.108 C 
ATOM      9  C   UNL     1      -0.042   0.136  -0.975  0.00  0.00    +0.019 C 
ATOM     10  C   UNL     1       0.068  -0.452   0.435  0.00  0.00    +0.003 C 
ATOM     11  C   UNL     1       1.313   0.118   1.121  0.00  0.00    +0.019 C 
ATOM     12  C   UNL     1       1.219   1.645   1.152  0.00  0.00    +0.108 C 
BRANCH   6  13
ATOM     13  C   UNL     1       3.661   3.820  -0.053  0.00  0.00    +0.093 C 
ATOM     14  C   UNL     1       4.724   4.482  -0.932  0.00  0.00    +0.027 C 
ATOM     15  C   UNL     1       4.239   3.066  -1.252  0.00  0.00    +0.027 C 
ENDBRANCH   6  13
ENDBRANCH   1   2
BRANCH   1  16
ATOM     16  C   UNL     1       1.863   8.445  -0.191  0.00  0.00    +0.143 C 
BRANCH  16  17
ATOM     17  C   UNL     1       1.086   8.501   1.099  0.00  0.00    +0.234 C 
ATOM     18  O   UNL     1       1.541   7.997   2.104  0.00  0.00    -0.274 OA
ATOM     19  N   UNL     1      -0.115   9.112   1.137  0.00  0.00    -0.239 N 
ATOM     20  C   UNL     1      -0.809   9.162   2.290  0.00  0.00    +0.303 C 
ATOM     21  O   UNL     1      -0.353   8.657   3.297  0.00  0.00    -0.253 OA
ATOM     22  N   UNL     1      -2.010   9.773   2.327  0.00  0.00    -0.313 N 
ATOM     23  H   UNL     1      -0.479   9.515   0.333  0.00  0.00    +0.159 HD
ATOM     24  H   UNL     1      -2.374  10.177   1.524  0.00  0.00    +0.146 HD
ATOM     25  H   UNL     1      -2.510   9.809   3.158  0.00  0.00    +0.146 HD
ENDBRANCH  16  17
BRANCH  16  27
ATOM     26  C   UNL     1       3.657   9.864   0.814  0.00  0.00    +0.009 C 
ATOM     27  C   UNL     1       2.676   9.731  -0.353  0.00  0.00    +0.005 C 
ATOM     28  C   UNL     1       3.454   9.680  -1.670  0.00  0.00    +0.009 C 
ENDBRANCH  16  27
ENDBRANCH   1  16
TORSDOF 5
