REMARK  Name = ZINC47878603
REMARK  9 active torsions:
REMARK  status: ('A' for Active; 'I' for Inactive)
REMARK    1  A    between atoms: C_1  and  C_2
REMARK    2  A    between atoms: C_2  and  C_4
REMARK    3  A    between atoms: C_2  and  N_12
REMARK    4  A    between atoms: C_4  and  C_5
REMARK    5  A    between atoms: N_15  and  C_16
REMARK    6  A    between atoms: C_21  and  O_22
REMARK    7  A    between atoms: O_22  and  C_23
REMARK    8  A    between atoms: C_23  and  C_24
REMARK    9  A    between atoms: C_24  and  C_25
REMARK                            x       y       z     vdW  Elec       q    Type
REMARK                         _______ _______ _______ _____ _____    ______ ____
ROOT
ATOM      1  N   UNL     1      -1.366  -0.528   0.010  0.00  0.00    -0.296 N 
ATOM      2  C   UNL     1      -2.048  -0.649  -1.146  0.00  0.00    +0.304 C 
ATOM      3  O   UNL     1      -1.521  -0.344  -2.198  0.00  0.00    -0.252 OA
ATOM      4  N   UNL     1      -3.315  -1.109  -1.135  0.00  0.00    -0.266 N 
ATOM      5  H   UNL     1      -1.786  -0.771   0.849  0.00  0.00    +0.151 HD
ATOM      6  H   UNL     1      -3.714  -1.413  -0.305  0.00  0.00    +0.156 HD
ENDROOT
BRANCH   4   7
ATOM      7  C   UNL     1      -4.057  -1.148  -2.324  0.00  0.00    +0.077 A 
ATOM      8  C   UNL     1      -3.427  -1.425  -3.528  0.00  0.00    +0.027 A 
ATOM      9  C   UNL     1      -4.161  -1.462  -4.699  0.00  0.00    +0.002 A 
ATOM     10  C   UNL     1      -5.522  -1.224  -4.673  0.00  0.00    +0.004 A 
ATOM     11  C   UNL     1      -6.157  -0.947  -3.477  0.00  0.00    +0.047 A 
ATOM     12  C   UNL     1      -5.430  -0.913  -2.298  0.00  0.00    +0.142 A 
BRANCH  12  13
ATOM     13  O   UNL     1      -6.054  -0.647  -1.119  0.00  0.00    -0.490 OA
BRANCH  13  14
ATOM     14  C   UNL     1      -7.463  -0.417  -1.169  0.00  0.00    +0.238 C 
BRANCH  14  15
ATOM     15  C   UNL     1      -7.984  -0.135   0.242  0.00  0.00    +0.136 C 
BRANCH  15  16
ATOM     16  C   UNL     1      -9.471   0.107   0.189  0.00  0.00    +0.214 C 
ATOM     17  O   UNL     1     -10.056   0.060  -0.872  0.00  0.00    -0.276 OA
ATOM     18  N   UNL     1     -10.150   0.377   1.322  0.00  0.00    -0.329 N 
ATOM     19  H   UNL     1      -9.682   0.415   2.171  0.00  0.00    +0.145 HD
ATOM     20  H   UNL     1     -11.106   0.533   1.288  0.00  0.00    +0.145 HD
ENDBRANCH  15  16
ENDBRANCH  14  15
ENDBRANCH  13  14
ENDBRANCH  12  13
ENDBRANCH   4   7
BRANCH   1  22
ATOM     21  C   UNL     1      -0.001   1.502   0.015  0.00  0.00    +0.028 C 
ATOM     22  C   UNL     1       0.011  -0.028  -0.002  0.00  0.00    +0.076 C 
BRANCH  22  23
ATOM     23  C   UNL     1       0.752  -0.546   1.232  0.00  0.00    +0.057 C 
BRANCH  23  24
ATOM     24  C   UNL     1       0.872  -2.046   1.154  0.00  0.00    -0.044 A 
ATOM     25  C   UNL     1      -0.118  -2.848   1.691  0.00  0.00    +0.004 A 
ATOM     26  C   UNL     1      -0.009  -4.224   1.620  0.00  0.00    +0.002 A 
ATOM     27  C   UNL     1       1.090  -4.799   1.011  0.00  0.00    +0.020 A 
ATOM     28  C   UNL     1       2.082  -3.998   0.473  0.00  0.00    +0.041 A 
ATOM     29  C   UNL     1       1.969  -2.621   0.540  0.00  0.00    +0.023 A 
ATOM     30 CL   UNL     1       3.463  -4.721  -0.291  0.00  0.00    -0.084 Cl
ENDBRANCH  23  24
ENDBRANCH  22  23
ENDBRANCH   1  22
TORSDOF 8
