REMARK  Name = ZINC58479143
REMARK  7 active torsions:
REMARK  status: ('A' for Active; 'I' for Inactive)
REMARK    1  A    between atoms: C_1  and  C_2
REMARK    2  A    between atoms: C_5  and  C_21
REMARK    3  A    between atoms: N_8  and  C_10
REMARK    4  A    between atoms: C_13  and  N_20
REMARK    5  A    between atoms: C_14  and  C_16
REMARK    6  A    between atoms: C_16  and  O_18
REMARK    7  A    between atoms: O_18  and  C_19
REMARK                            x       y       z     vdW  Elec       q    Type
REMARK                         _______ _______ _______ _____ _____    ______ ____
ROOT
ATOM      1  C   UNL     1       1.870  -2.656   1.448  0.00  0.00    +0.031 A 
ATOM      2  C   UNL     1       3.139  -2.265   1.029  0.00  0.00    +0.025 A 
ATOM      3  C   UNL     1       4.196  -3.149   1.088  0.00  0.00    +0.025 A 
ATOM      4  C   UNL     1       4.002  -4.438   1.567  0.00  0.00    +0.039 A 
ATOM      5  C   UNL     1       2.725  -4.839   1.991  0.00  0.00    +0.081 A 
ATOM      6  C   UNL     1       1.661  -3.934   1.933  0.00  0.00    +0.040 A 
ENDROOT
BRANCH   1  12
ATOM      7  C   UNL     1       0.228   1.494  -0.482  0.00  0.00    +0.009 C 
ATOM      8  C   UNL     1       0.101   0.003  -0.161  0.00  0.00    +0.003 C 
ATOM      9  C   UNL     1      -1.343  -0.313   0.234  0.00  0.00    +0.009 C 
ATOM     10  C   UNL     1      -1.479  -1.809   0.523  0.00  0.00    +0.003 C 
ATOM     11  C   UNL     1      -0.565  -2.183   1.695  0.00  0.00    +0.108 C 
ATOM     12  N   UNL     1       0.804  -1.751   1.383  0.00  0.00    -0.329 N 
ATOM     13  C   UNL     1       1.034  -0.350   1.002  0.00  0.00    +0.108 C 
ATOM     14  C   UNL     1      -1.074  -2.608  -0.717  0.00  0.00    +0.009 C 
ENDBRANCH   1  12
BRANCH   4  15
ATOM     15  N   UNL     1       5.068  -5.329   1.626  0.00  0.00    -0.357 N 
ATOM     16  H   UNL     1       5.978  -4.994   1.658  0.00  0.00    +0.142 HD
ATOM     17  H   UNL     1       4.902  -6.284   1.635  0.00  0.00    +0.142 HD
ENDBRANCH   4  15
BRANCH   5  18
ATOM     18  C   UNL     1       2.510  -6.204   2.501  0.00  0.00    +0.341 C 
ATOM     19  O   UNL     1       3.456  -6.949   2.664  0.00  0.00    -0.245 OA
BRANCH  18  20
ATOM     20  O   UNL     1       1.262  -6.628   2.785  0.00  0.00    -0.464 OA
ATOM     21  C   UNL     1       1.127  -7.963   3.275  0.00  0.00    +0.280 C 
ENDBRANCH  18  20
ENDBRANCH   5  18
TORSDOF 4
