REMARK  Name = ZINC12659328
REMARK  4 active torsions:
REMARK  status: ('A' for Active; 'I' for Inactive)
REMARK    1  A    between atoms: C_5  and  C_7
REMARK    2  A    between atoms: N_9  and  C_10
REMARK    3  A    between atoms: C_10  and  C_19
REMARK    4  A    between atoms: C_11  and  C_12
REMARK                            x       y       z     vdW  Elec       q    Type
REMARK                         _______ _______ _______ _____ _____    ______ ____
ROOT
ATOM      1  C   UNL     1      -3.666   1.665   0.123  0.00  0.00    +0.096 C 
ATOM      2  C   UNL     1      -2.513   0.983  -0.065  0.00  0.00    +0.036 C 
ENDROOT
BRANCH   2   3
ATOM      3  C   UNL     1      -1.228   1.700  -0.084  0.00  0.00    -0.023 A 
ATOM      4  C   UNL     1      -0.117   1.135  -0.719  0.00  0.00    +0.009 A 
ATOM      5  C   UNL     1       1.081   1.815  -0.737  0.00  0.00    +0.020 A 
ATOM      6  C   UNL     1       1.189   3.053  -0.124  0.00  0.00    +0.041 A 
ATOM      7  C   UNL     1       0.094   3.616   0.512  0.00  0.00    +0.020 A 
ATOM      8  C   UNL     1      -1.111   2.947   0.539  0.00  0.00    +0.009 A 
ATOM      9 CL   UNL     1       2.703   3.903  -0.153  0.00  0.00    -0.084 Cl
ENDBRANCH   2   3
BRANCH   1  10
ATOM     10  C   UNL     1      -4.929   0.937   0.305  0.00  0.00    +0.256 C 
ATOM     11  O   UNL     1      -5.952   1.546   0.558  0.00  0.00    -0.269 OA
ATOM     12  N   UNL     1      -4.956  -0.406   0.191  0.00  0.00    -0.324 N 
ATOM     13  H   UNL     1      -4.141  -0.891  -0.011  0.00  0.00    +0.145 HD
ATOM     14  H   UNL     1      -5.790  -0.886   0.311  0.00  0.00    +0.145 HD
ENDBRANCH   1  10
BRANCH   1  17
ATOM     15  C   UNL     1      -4.146   3.725   1.211  0.00  0.00    +0.249 C 
ATOM     16  O   UNL     1      -4.519   3.108   2.190  0.00  0.00    -0.270 OA
ATOM     17  N   UNL     1      -3.655   3.063   0.144  0.00  0.00    -0.277 N 
ATOM     18  H   UNL     1      -3.294   3.557  -0.609  0.00  0.00    +0.155 HD
BRANCH  15  23
ATOM     19  C   UNL     1      -3.888   7.288   0.055  0.00  0.00    +0.001 A 
ATOM     20  C   UNL     1      -4.393   7.965   1.152  0.00  0.00    +0.001 A 
ATOM     21  C   UNL     1      -4.818   7.267   2.268  0.00  0.00    +0.016 A 
ATOM     22  C   UNL     1      -4.741   5.888   2.294  0.00  0.00    +0.030 A 
ATOM     23  C   UNL     1      -4.232   5.200   1.191  0.00  0.00    +0.051 A 
ATOM     24  C   UNL     1      -3.800   5.912   0.070  0.00  0.00    +0.014 A 
ATOM     25 BR   UNL     1      -5.321   4.935   3.821  0.00  0.00    -0.050 Br
ENDBRANCH  15  23
ENDBRANCH   1  17
TORSDOF 4
