REMARK  Name = ZINC46718177
REMARK  8 active torsions:
REMARK  status: ('A' for Active; 'I' for Inactive)
REMARK    1  A    between atoms: C_1  and  C_2
REMARK    2  A    between atoms: C_7  and  C_8
REMARK    3  A    between atoms: C_8  and  C_10
REMARK    4  A    between atoms: C_8  and  N_26
REMARK    5  A    between atoms: C_10  and  C_11
REMARK    6  A    between atoms: N_13  and  C_14
REMARK    7  A    between atoms: C_14  and  C_15
REMARK    8  A    between atoms: C_15  and  C_16
REMARK                            x       y       z     vdW  Elec       q    Type
REMARK                         _______ _______ _______ _____ _____    ______ ____
ROOT
ATOM      1  C   UNL     1       1.361   0.620   2.973  0.00  0.00    +0.123 C 
ENDROOT
BRANCH   1   2
ATOM      2  C   UNL     1       1.128   1.536   4.147  0.00  0.00    +0.215 C 
ATOM      3  O   UNL     1       0.004   1.711   4.566  0.00  0.00    -0.276 OA
ATOM      4  N   UNL     1       2.170   2.161   4.731  0.00  0.00    -0.315 N 
ATOM      5  H   UNL     1       3.069   2.022   4.396  0.00  0.00    +0.149 HD
BRANCH   4   6
ATOM      6  C   UNL     1       1.943   3.052   5.872  0.00  0.00    +0.109 C 
BRANCH   6   7
ATOM      7  C   UNL     1       3.280   3.628   6.343  0.00  0.00    +0.056 C 
BRANCH   7   8
ATOM      8  C   UNL     1       3.047   4.544   7.516  0.00  0.00    -0.020 A 
ATOM      9  C   UNL     1       2.904   5.883   7.320  0.00  0.00    +0.006 A 
ATOM     10  C   UNL     1       2.688   6.748   8.391  0.00  0.00    +0.001 A 
ATOM     11  C   UNL     1       2.614   6.276   9.666  0.00  0.00    +0.010 A 
ATOM     12  C   UNL     1       2.756   4.899   9.906  0.00  0.00    +0.001 A 
ATOM     13  C   UNL     1       2.971   4.018   8.818  0.00  0.00    +0.074 A 
ATOM     14  N   UNL     1       3.103   2.706   9.040  0.00  0.00    -0.255 NA
ATOM     15  C   UNL     1       3.034   2.210  10.252  0.00  0.00    +0.111 A 
ATOM     16  C   UNL     1       2.819   3.021  11.365  0.00  0.00    +0.020 A 
ATOM     17  C   UNL     1       2.687   4.371  11.209  0.00  0.00    +0.011 A 
ENDBRANCH   7   8
ENDBRANCH   6   7
ENDBRANCH   4   6
ENDBRANCH   1   2
BRANCH   1  18
ATOM     18  C   UNL     1       0.024   0.044   2.503  0.00  0.00    +0.114 C 
BRANCH  18  25
ATOM     19  C   UNL     1      -2.230  -0.709   0.860  0.00  0.00    +0.044 C 
ATOM     20  C   UNL     1      -0.838  -1.133   0.469  0.00  0.00    -0.045 A 
ATOM     21  C   UNL     1      -0.639  -1.879  -0.678  0.00  0.00    +0.004 A 
ATOM     22  C   UNL     1       0.638  -2.268  -1.036  0.00  0.00    +0.000 A 
ATOM     23  C   UNL     1       1.716  -1.913  -0.247  0.00  0.00    +0.000 A 
ATOM     24  C   UNL     1       1.517  -1.167   0.900  0.00  0.00    +0.006 A 
ATOM     25  C   UNL     1       0.241  -0.774   1.255  0.00  0.00    -0.024 A 
ENDBRANCH  18  25
BRANCH  18  26
ATOM     26  N   UNL     1      -0.537  -0.808   3.554  0.00  0.00    -0.292 N 
ATOM     27  C   UNL     1       0.102  -1.937   3.920  0.00  0.00    +0.298 C 
ATOM     28  O   UNL     1       1.190  -2.201   3.444  0.00  0.00    -0.253 OA
ATOM     29  N   UNL     1      -0.464  -2.773   4.812  0.00  0.00    -0.313 N 
ATOM     30  H   UNL     1      -1.369  -0.560   3.987  0.00  0.00    +0.151 HD
ATOM     31  H   UNL     1      -1.331  -2.563   5.191  0.00  0.00    +0.146 HD
ATOM     32  H   UNL     1      -0.003  -3.586   5.075  0.00  0.00    +0.146 HD
ENDBRANCH  18  26
ENDBRANCH   1  18
TORSDOF 7
