REMARK  Name = ZINC30343134
REMARK  7 active torsions:
REMARK  status: ('A' for Active; 'I' for Inactive)
REMARK    1  A    between atoms: C_1  and  C_2
REMARK    2  A    between atoms: C_5  and  O_8
REMARK    3  A    between atoms: O_8  and  C_9
REMARK    4  A    between atoms: C_9  and  C_10
REMARK    5  A    between atoms: C_10  and  N_11
REMARK    6  A    between atoms: C_14  and  C_18
REMARK    7  A    between atoms: C_14  and  C_19
REMARK                            x       y       z     vdW  Elec       q    Type
REMARK                         _______ _______ _______ _____ _____    ______ ____
ROOT
ATOM      1  N   UNL     1      -0.670   3.054  -1.286  0.00  0.00    -0.221 N 
ATOM      2  C   UNL     1       0.314   3.734  -1.907  0.00  0.00    +0.254 C 
ATOM      3  O   UNL     1       1.263   3.269  -2.502  0.00  0.00    -0.272 OA
ATOM      4  C   UNL     1      -0.011   5.201  -1.706  0.00  0.00    +0.168 C 
ATOM      5  N   UNL     1      -1.257   5.175  -0.921  0.00  0.00    -0.279 N 
ATOM      6  C   UNL     1      -1.565   3.879  -0.731  0.00  0.00    +0.310 C 
ATOM      7  O   UNL     1      -2.544   3.500  -0.119  0.00  0.00    -0.252 OA
ATOM      8  C   UNL     1      -0.236   5.892  -3.052  0.00  0.00    +0.050 C 
ATOM      9  H   UNL     1      -1.736   6.117  -0.618  0.00  0.00    +0.152 HD
ENDROOT
BRANCH   4  10
ATOM     10  C   UNL     1       1.087   5.886  -0.934  0.00  0.00    +0.137 A 
ATOM     11  C   UNL     1       0.932   6.939  -0.112  0.00  0.00    +0.047 A 
ATOM     12  C   UNL     1       2.213   7.255   0.396  0.00  0.00    +0.041 A 
ATOM     13  C   UNL     1       3.075   6.376  -0.146  0.00  0.00    +0.195 A 
ATOM     14  O   UNL     1       2.387   5.546  -0.947  0.00  0.00    -0.465 OA
ENDBRANCH   4  10
BRANCH   1  15
ATOM     15  C   UNL     1      -0.753   1.593  -1.232  0.00  0.00    +0.159 C 
BRANCH  15  16
ATOM     16  C   UNL     1      -0.013   1.086   0.008  0.00  0.00    +0.248 C 
BRANCH  16  17
ATOM     17  O   UNL     1      -0.682   1.547   1.184  0.00  0.00    -0.490 OA
BRANCH  17  22
ATOM     18  C   UNL     1       1.527   0.036   6.140  0.00  0.00    +0.044 C 
ATOM     19  C   UNL     1       0.936   0.440   4.814  0.00  0.00    -0.050 A 
ATOM     20  C   UNL     1      -0.203   1.223   4.776  0.00  0.00    +0.007 A 
ATOM     21  C   UNL     1      -0.747   1.595   3.561  0.00  0.00    +0.046 A 
ATOM     22  C   UNL     1      -0.149   1.182   2.380  0.00  0.00    +0.121 A 
ATOM     23  C   UNL     1       0.991   0.392   2.421  0.00  0.00    +0.046 A 
ATOM     24  C   UNL     1       1.534   0.028   3.638  0.00  0.00    +0.007 A 
ENDBRANCH  17  22
ENDBRANCH  16  17
ENDBRANCH  15  16
ENDBRANCH   1  15
TORSDOF 5
