REMARK  Name = ZINC09579133
REMARK  8 active torsions:
REMARK  status: ('A' for Active; 'I' for Inactive)
REMARK    1  A    between atoms: C_1  and  C_2
REMARK    2  A    between atoms: C_5  and  C_16
REMARK    3  A    between atoms: C_7  and  N_8
REMARK    4  A    between atoms: C_9  and  C_11
REMARK    5  A    between atoms: N_18  and  C_19
REMARK    6  A    between atoms: C_19  and  C_21
REMARK    7  A    between atoms: C_19  and  C_22
REMARK    8  A    between atoms: C_25  and  N_28
REMARK                            x       y       z     vdW  Elec       q    Type
REMARK                         _______ _______ _______ _____ _____    ______ ____
ROOT
ATOM      1  C   UNL     1       0.096  -4.263  -0.028  0.00  0.00    +0.245 C 
ATOM      2  O   UNL     1       0.092  -4.866  -1.084  0.00  0.00    -0.270 OA
ATOM      3  N   UNL     1       0.126  -4.943   1.135  0.00  0.00    -0.305 N 
ATOM      4  H   UNL     1       0.129  -4.462   1.978  0.00  0.00    +0.150 HD
ENDROOT
BRANCH   1   9
ATOM      5  C   UNL     1      -0.014   1.495   0.015  0.00  0.00    +0.045 C 
ATOM      6  C   UNL     1       0.014  -0.012   0.002  0.00  0.00    -0.029 A 
ATOM      7  C   UNL     1       0.045  -0.711   1.194  0.00  0.00    +0.006 A 
ATOM      8  C   UNL     1       0.071  -2.090   1.190  0.00  0.00    +0.013 A 
ATOM      9  C   UNL     1       0.067  -2.785  -0.021  0.00  0.00    +0.038 A 
ATOM     10  C   UNL     1       0.036  -2.080  -1.224  0.00  0.00    +0.036 A 
ATOM     11  C   UNL     1       0.004  -0.694  -1.209  0.00  0.00    +0.037 A 
BRANCH  11  12
ATOM     12  N   UNL     1      -0.033   0.018  -2.412  0.00  0.00    -0.279 N 
ATOM     13  C   UNL     1      -0.529  -0.562  -3.523  0.00  0.00    +0.284 C 
ATOM     14  O   UNL     1      -1.037  -1.666  -3.458  0.00  0.00    -0.266 OA
ATOM     15  H   UNL     1       0.299   0.929  -2.448  0.00  0.00    +0.155 HD
BRANCH  13  16
ATOM     16  C   UNL     1      -0.458   0.138  -4.810  0.00  0.00    +0.189 A 
ATOM     17  C   UNL     1      -0.920  -0.333  -6.006  0.00  0.00    +0.054 A 
ATOM     18  C   UNL     1      -0.645   0.658  -6.962  0.00  0.00    +0.042 A 
ATOM     19  C   UNL     1      -0.036   1.676  -6.316  0.00  0.00    +0.196 A 
ATOM     20  O   UNL     1       0.071   1.361  -5.019  0.00  0.00    -0.458 OA
ENDBRANCH  13  16
ENDBRANCH  11  12
ENDBRANCH   1   9
BRANCH   3  21
ATOM     21  C   UNL     1       0.154  -6.407   1.128  0.00  0.00    +0.100 C 
ATOM     22  C   UNL     1      -1.274  -6.945   1.021  0.00  0.00    +0.033 C 
BRANCH  21  23
ATOM     23  C   UNL     1       0.783  -6.904   2.404  0.00  0.00    -0.027 A 
ATOM     24  C   UNL     1       0.499  -6.276   3.603  0.00  0.00    +0.007 A 
ATOM     25  C   UNL     1       1.070  -6.732   4.776  0.00  0.00    +0.028 A 
ATOM     26  C   UNL     1       1.938  -7.816   4.748  0.00  0.00    +0.067 A 
ATOM     27  C   UNL     1       2.226  -8.440   3.542  0.00  0.00    +0.028 A 
ATOM     28  C   UNL     1       1.648  -7.982   2.373  0.00  0.00    +0.007 A 
BRANCH  26  29
ATOM     29  N   UNL     1       2.522  -8.278   5.935  0.00  0.00    -0.220 N 
ATOM     30  C   UNL     1       2.345  -7.775   7.172  0.00  0.00    +0.225 A 
ATOM     31  N   UNL     1       3.061  -8.486   8.005  0.00  0.00    -0.222 NA
ATOM     32  C   UNL     1       3.711  -9.441   7.341  0.00  0.00    +0.245 A 
ATOM     33  N   UNL     1       3.414  -9.354   6.071  0.00  0.00    -0.154 NA
ENDBRANCH  26  29
ENDBRANCH  21  23
ENDBRANCH   3  21
TORSDOF 6
