REMARK  Name = ZINC44002845
REMARK  7 active torsions:
REMARK  status: ('A' for Active; 'I' for Inactive)
REMARK    1  A    between atoms: C_1  and  C_2
REMARK    2  A    between atoms: C_4  and  C_26
REMARK    3  A    between atoms: C_6  and  N_8
REMARK    4  A    between atoms: N_11  and  C_12
REMARK    5  A    between atoms: C_12  and  C_13
REMARK    6  A    between atoms: C_19  and  C_21
REMARK    7  A    between atoms: C_21  and  C_24
REMARK                            x       y       z     vdW  Elec       q    Type
REMARK                         _______ _______ _______ _____ _____    ______ ____
ROOT
ATOM      1  N   UNL     1      -1.442  -1.030   2.878  0.00  0.00    -0.269 N 
ATOM      2  C   UNL     1      -1.107  -0.635   4.122  0.00  0.00    +0.304 C 
ATOM      3  O   UNL     1      -1.077   0.549   4.396  0.00  0.00    -0.253 OA
ATOM      4  N   UNL     1      -0.806  -1.553   5.062  0.00  0.00    -0.299 N 
ATOM      5  H   UNL     1      -1.544  -1.974   2.679  0.00  0.00    +0.156 HD
ATOM      6  H   UNL     1      -0.830  -2.497   4.843  0.00  0.00    +0.150 HD
ENDROOT
BRANCH   1  12
ATOM      7  C   UNL     1      -3.807   0.393  -1.191  0.00  0.00    +0.044 C 
ATOM      8  C   UNL     1      -2.783   0.637  -0.113  0.00  0.00    -0.048 A 
ATOM      9  C   UNL     1      -2.039   1.803  -0.118  0.00  0.00    +0.006 A 
ATOM     10  C   UNL     1      -1.098   2.030   0.869  0.00  0.00    -0.048 A 
ATOM     11  C   UNL     1      -0.898   1.093   1.863  0.00  0.00    +0.026 A 
ATOM     12  C   UNL     1      -1.643  -0.079   1.872  0.00  0.00    +0.035 A 
ATOM     13  C   UNL     1      -2.591  -0.301   0.882  0.00  0.00    +0.026 A 
ATOM     14  C   UNL     1      -0.289   3.302   0.859  0.00  0.00    +0.044 C 
ENDBRANCH   1  12
BRANCH   4  15
ATOM     15  C   UNL     1      -0.442  -1.123   6.415  0.00  0.00    +0.109 C 
BRANCH  15  16
ATOM     16  C   UNL     1      -0.150  -2.352   7.279  0.00  0.00    +0.009 C 
ATOM     17  C   UNL     1      -1.430  -3.175   7.444  0.00  0.00    +0.024 C 
ATOM     18  C   UNL     1      -1.126  -4.421   8.280  0.00  0.00    +0.108 C 
ATOM     19  N   UNL     1      -0.510  -4.003   9.547  0.00  0.00    -0.300 N 
ATOM     20  C   UNL     1       0.674  -3.134   9.503  0.00  0.00    +0.108 C 
ATOM     21  C   UNL     1       0.350  -1.901   8.653  0.00  0.00    +0.024 C 
ATOM     22  C   UNL     1      -1.021  -4.408  10.726  0.00  0.00    +0.236 C 
ATOM     23  O   UNL     1      -0.569  -3.974  11.764  0.00  0.00    -0.274 OA
BRANCH  22  24
ATOM     24  C   UNL     1      -2.156  -5.399  10.755  0.00  0.00    +0.133 C 
ATOM     25  C   UNL     1      -3.567  -4.852  10.973  0.00  0.00    +0.033 C 
ATOM     26  C   UNL     1      -2.865  -5.623  12.092  0.00  0.00    +0.033 C 
BRANCH  24  27
ATOM     27  C   UNL     1      -2.007  -6.560   9.862  0.00  0.00    +0.079 C 
ATOM     28  N   UNL     1      -1.892  -7.456   9.173  0.00  0.00    -0.195 NA
ENDBRANCH  24  27
ENDBRANCH  22  24
ENDBRANCH  15  16
ENDBRANCH   4  15
TORSDOF 5
