REMARK  Name = ZINC39662862
REMARK  5 active torsions:
REMARK  status: ('A' for Active; 'I' for Inactive)
REMARK    1  A    between atoms: C_9  and  C_11
REMARK    2  A    between atoms: C_15  and  C_24
REMARK    3  A    between atoms: N_26  and  C_27
REMARK    4  A    between atoms: C_27  and  C_28
REMARK    5  A    between atoms: C_31  and  C_34
REMARK                            x       y       z     vdW  Elec       q    Type
REMARK                         _______ _______ _______ _____ _____    ______ ____
ROOT
ATOM      1  C   UNL     1       5.004  -2.549  -0.059  0.00  0.00    +0.265 C 
ATOM      2  O   UNL     1       5.082  -3.758   0.035  0.00  0.00    -0.268 OA
ATOM      3  N   UNL     1       6.124  -1.807  -0.169  0.00  0.00    -0.295 N 
ATOM      4  C   UNL     1       6.238  -0.330  -0.173  0.00  0.00    +0.121 C 
ATOM      5  C   UNL     1       7.510  -0.034   0.652  0.00  0.00    +0.100 C 
ATOM      6  C   UNL     1       8.348  -1.320   0.555  0.00  0.00    -0.004 C 
ATOM      7  C   UNL     1       7.520  -2.285  -0.306  0.00  0.00    +0.115 C 
ATOM      8  C   UNL     1       9.688  -1.029  -0.114  0.00  0.00    -0.010 C 
ATOM      9  C   UNL     1      10.526  -2.310  -0.147  0.00  0.00    -0.082 C 
ATOM     10  N   UNL     1      10.736  -2.794   1.223  0.00  0.00    +0.379 N 
ATOM     11  C   UNL     1       9.450  -3.159   1.828  0.00  0.00    -0.082 C 
ATOM     12  C   UNL     1       8.566  -1.914   1.944  0.00  0.00    -0.010 C 
ATOM     13  H   UNL     1      11.339  -3.603   1.204  0.00  0.00    -0.086 HD
ATOM     14  H   UNL     1      11.170  -2.067   1.772  0.00  0.00    -0.086 HD
ENDROOT
BRANCH   1  23
ATOM     15  C   UNL     1      -0.019   1.358  -0.041  0.00  0.00    +0.001 A 
ATOM     16  C   UNL     1       1.167   2.091  -0.051  0.00  0.00    +0.002 A 
ATOM     17  C   UNL     1       2.376   1.469  -0.057  0.00  0.00    +0.028 A 
ATOM     18  C   UNL     1       2.438   0.062  -0.052  0.00  0.00    +0.072 A 
ATOM     19  C   UNL     1       1.229  -0.681  -0.041  0.00  0.00    +0.000 A 
ATOM     20  C   UNL     1      -0.001  -0.003  -0.035  0.00  0.00    +0.010 A 
ATOM     21  C   UNL     1       1.289  -2.087  -0.036  0.00  0.00    +0.012 A 
ATOM     22  C   UNL     1       2.518  -2.682  -0.042  0.00  0.00    +0.033 A 
ATOM     23  C   UNL     1       3.675  -1.890  -0.053  0.00  0.00    +0.126 A 
ATOM     24  N   UNL     1       3.610  -0.572  -0.057  0.00  0.00    -0.242 NA
ENDBRANCH   1  23
BRANCH   5  25
ATOM     25  C   UNL     1       8.261   1.130   0.059  0.00  0.00    +0.218 C 
ATOM     26  O   UNL     1       8.135   1.398  -1.117  0.00  0.00    -0.275 OA
ATOM     27  N   UNL     1       9.072   1.875   0.837  0.00  0.00    -0.315 N 
ATOM     28  H   UNL     1       9.173   1.661   1.777  0.00  0.00    +0.149 HD
BRANCH  27  29
ATOM     29  C   UNL     1       9.803   3.007   0.260  0.00  0.00    +0.107 C 
BRANCH  29  30
ATOM     30  C   UNL     1      10.645   3.677   1.347  0.00  0.00    +0.006 C 
ATOM     31  C   UNL     1       9.721   4.287   2.404  0.00  0.00    +0.006 C 
ATOM     32  C   UNL     1      10.563   4.958   3.491  0.00  0.00    +0.015 C 
ATOM     33  C   UNL     1      11.420   6.060   2.866  0.00  0.00    +0.102 C 
ATOM     34  C   UNL     1      12.343   5.450   1.809  0.00  0.00    +0.015 C 
ATOM     35  C   UNL     1      11.501   4.780   0.722  0.00  0.00    +0.006 C 
BRANCH  33  36
ATOM     36  C   UNL     1      12.249   6.721   3.937  0.00  0.00    +0.359 C 
ATOM     37  O   UNL     1      13.337   7.196   3.659  0.00  0.00    -0.246 OA
ATOM     38  O   UNL     1      11.833   6.779   5.081  0.00  0.00    -0.246 OA
ENDBRANCH  33  36
ENDBRANCH  29  30
ENDBRANCH  27  29
ENDBRANCH   5  25
TORSDOF 5
