REMARK  Name = ZINC05686817
REMARK  5 active torsions:
REMARK  status: ('A' for Active; 'I' for Inactive)
REMARK    1  A    between atoms: C_1  and  C_2
REMARK    2  A    between atoms: C_2  and  C_3
REMARK    3  A    between atoms: C_8  and  O_9
REMARK    4  A    between atoms: O_9  and  C_10
REMARK    5  A    between atoms: C_15  and  O_21
REMARK                            x       y       z     vdW  Elec       q    Type
REMARK                         _______ _______ _______ _____ _____    ______ ____
ROOT
ATOM      1  C   UNL     1       4.152  -0.503  -0.168  0.00  0.00    +0.210 A 
ATOM      2  C   UNL     1       5.015   0.520  -0.008  0.00  0.00    +0.245 A 
ATOM      3  O   UNL     1       6.344   0.356  -0.021  0.00  0.00    -0.459 OA
ATOM      4  C   UNL     1       6.922  -0.849  -0.195  0.00  0.00    +0.142 A 
ATOM      5  C   UNL     1       8.303  -0.985  -0.203  0.00  0.00    +0.092 A 
ATOM      6  C   UNL     1       8.870  -2.235  -0.383  0.00  0.00    +0.120 A 
ATOM      7  C   UNL     1       8.065  -3.360  -0.557  0.00  0.00    +0.046 A 
ATOM      8  C   UNL     1       6.705  -3.243  -0.552  0.00  0.00    +0.019 A 
ATOM      9  C   UNL     1       6.118  -1.990  -0.371  0.00  0.00    +0.068 A 
ATOM     10  C   UNL     1       4.655  -1.822  -0.354  0.00  0.00    +0.234 A 
ATOM     11  O   UNL     1       3.905  -2.773  -0.497  0.00  0.00    -0.283 OA
ENDROOT
BRANCH   6  12
ATOM     12  O   UNL     1      10.221  -2.367  -0.391  0.00  0.00    -0.507 OA
ATOM     13  H   UNL     1      10.605  -2.534   0.480  0.00  0.00    +0.292 HD
ENDBRANCH   6  12
BRANCH   1  14
ATOM     14  O   UNL     1       2.810  -0.278  -0.145  0.00  0.00    -0.449 OA
BRANCH  14  20
ATOM     15  C   UNL     1       0.728  -0.372  -1.292  0.00  0.00    -0.005 A 
ATOM     16  C   UNL     1       0.021  -0.562  -2.464  0.00  0.00    +0.007 A 
ATOM     17  C   UNL     1       0.691  -0.856  -3.637  0.00  0.00    +0.000 A 
ATOM     18  C   UNL     1       2.070  -0.960  -3.641  0.00  0.00    +0.004 A 
ATOM     19  C   UNL     1       2.781  -0.771  -2.473  0.00  0.00    +0.046 A 
ATOM     20  C   UNL     1       2.112  -0.470  -1.295  0.00  0.00    +0.132 A 
BRANCH  15  22
ATOM     21  C   UNL     1      -0.042   1.465   0.185  0.00  0.00    +0.009 C 
ATOM     22  C   UNL     1      -0.003  -0.051  -0.014  0.00  0.00    +0.035 C 
ENDBRANCH  15  22
ENDBRANCH  14  20
ENDBRANCH   1  14
TORSDOF 4
