REMARK  Name = ZINC32332095
REMARK  7 active torsions:
REMARK  status: ('A' for Active; 'I' for Inactive)
REMARK    1  A    between atoms: C_1  and  C_2
REMARK    2  A    between atoms: N_4  and  C_5
REMARK    3  A    between atoms: C_9  and  N_11
REMARK    4  A    between atoms: C_15  and  S_16
REMARK    5  A    between atoms: S_16  and  C_17
REMARK    6  A    between atoms: C_17  and  C_18
REMARK    7  A    between atoms: C_18  and  C_20
REMARK                            x       y       z     vdW  Elec       q    Type
REMARK                         _______ _______ _______ _____ _____    ______ ____
ROOT
ATOM      1  S   UNL     1      -6.203  -1.632  -0.052  0.00  0.00    -0.078 S 
ENDROOT
BRANCH   1   6
ATOM      2  N   UNL     1      -8.816  -0.641   0.141  0.00  0.00    -0.277 N 
ATOM      3  C   UNL     1      -9.393   0.590   0.309  0.00  0.00    +0.230 A 
ATOM      4  N   UNL     1      -8.428   1.464   0.381  0.00  0.00    -0.137 NA
ATOM      5  N   UNL     1      -7.290   0.876   0.277  0.00  0.00    -0.122 NA
ATOM      6  C   UNL     1      -7.466  -0.417   0.131  0.00  0.00    +0.196 A 
BRANCH   2  11
ATOM      7  C   UNL     1     -11.099  -3.458   0.787  0.00  0.00    +0.035 A 
ATOM      8  C   UNL     1     -10.761  -4.311  -0.257  0.00  0.00    +0.023 A 
ATOM      9  C   UNL     1      -9.784  -3.945  -1.161  0.00  0.00    +0.004 A 
ATOM     10  C   UNL     1      -9.143  -2.728  -1.034  0.00  0.00    +0.026 A 
ATOM     11  C   UNL     1      -9.471  -1.873   0.010  0.00  0.00    +0.052 A 
ATOM     12  C   UNL     1     -10.452  -2.238   0.920  0.00  0.00    +0.049 A 
BRANCH   7  16
ATOM     13  C   UNL     1     -13.388  -5.541   2.930  0.00  0.00    +0.109 C 
ATOM     14  C   UNL     1     -12.247  -5.126   2.037  0.00  0.00    +0.214 C 
ATOM     15  O   UNL     1     -11.470  -5.959   1.618  0.00  0.00    -0.276 OA
ATOM     16  N   UNL     1     -12.089  -3.830   1.703  0.00  0.00    -0.286 N 
ATOM     17  H   UNL     1     -12.739  -3.064   2.151  0.00  0.00    +0.155 HD
ENDBRANCH   7  16
ENDBRANCH   2  11
ENDBRANCH   1   6
BRANCH   1  18
ATOM     18  C   UNL     1      -4.736  -0.575   0.026  0.00  0.00    +0.157 C 
BRANCH  18  19
ATOM     19  C   UNL     1      -3.498  -1.423  -0.113  0.00  0.00    +0.173 C 
ATOM     20  O   UNL     1      -3.598  -2.624  -0.251  0.00  0.00    -0.291 OA
BRANCH  19  21
ATOM     21  C   UNL     1      -2.171  -0.795  -0.080  0.00  0.00    +0.019 A 
ATOM     22  C   UNL     1      -2.044   0.591   0.079  0.00  0.00    +0.013 A 
ATOM     23  C   UNL     1      -0.808   1.151   0.101  0.00  0.00    +0.024 A 
ATOM     24  C   UNL     1       0.362   0.376  -0.033  0.00  0.00    +0.037 A 
ATOM     25  C   UNL     1       0.245  -0.993  -0.181  0.00  0.00    -0.025 A 
ATOM     26  C   UNL     1      -1.020  -1.571  -0.208  0.00  0.00    +0.016 A 
ATOM     27  C   UNL     1       1.388  -1.946  -0.316  0.00  0.00    +0.037 C 
ATOM     28  C   UNL     1       2.612  -1.612   0.478  0.00  0.00    +0.014 C 
ATOM     29  C   UNL     1       3.443  -0.509  -0.134  0.00  0.00    +0.096 C 
ATOM     30  C   UNL     1       2.803   0.822   0.028  0.00  0.00    +0.217 C 
ATOM     31  O   UNL     1       3.549   1.760   0.213  0.00  0.00    -0.275 OA
ATOM     32  N   UNL     1       1.529   1.093  -0.007  0.00  0.00    -0.285 N 
ATOM     33  H   UNL     1       1.500   2.192  -0.016  0.00  0.00    +0.155 HD
ENDBRANCH  19  21
ENDBRANCH  18  19
ENDBRANCH   1  18
TORSDOF 6
