REMARK  Name = ZINC39998029
REMARK  12 active torsions:
REMARK  status: ('A' for Active; 'I' for Inactive)
REMARK    1  A    between atoms: C_1  and  C_2
REMARK    2  A    between atoms: C_2  and  C_3
REMARK    3  A    between atoms: C_3  and  S_4
REMARK    4  A    between atoms: S_4  and  C_5
REMARK    5  A    between atoms: C_8  and  N_10
REMARK    6  A    between atoms: C_11  and  C_12
REMARK    7  A    between atoms: C_11  and  O_36
REMARK    8  A    between atoms: C_12  and  C_34
REMARK    9  A    between atoms: C_13  and  C_14
REMARK   10  A    between atoms: N_16  and  C_28
REMARK   11  A    between atoms: C_18  and  C_19
REMARK   12  A    between atoms: C_23  and  N_25
REMARK                            x       y       z     vdW  Elec       q    Type
REMARK                         _______ _______ _______ _____ _____    ______ ____
ROOT
ATOM      1  C   UNL     1       5.747  -4.792   9.786  0.00  0.00    +0.022 A 
ATOM      2  C   UNL     1       5.794  -6.187   9.810  0.00  0.00    +0.123 A 
ATOM      3  N   UNL     1       6.360  -6.554  10.967  0.00  0.00    -0.239 N 
ATOM      4  N   UNL     1       6.692  -5.423  11.716  0.00  0.00    -0.166 NA
ATOM      5  C   UNL     1       6.352  -4.344  11.052  0.00  0.00    +0.100 A 
ENDROOT
BRANCH   5   6
ATOM      6  C   UNL     1       6.538  -2.942  11.493  0.00  0.00    +0.005 A 
ATOM      7  C   UNL     1       6.830  -1.947  10.560  0.00  0.00    +0.010 A 
ATOM      8  C   UNL     1       7.002  -0.643  10.976  0.00  0.00    +0.003 A 
ATOM      9  C   UNL     1       6.887  -0.322  12.317  0.00  0.00    +0.033 A 
ATOM     10  C   UNL     1       6.598  -1.304  13.248  0.00  0.00    +0.127 A 
ATOM     11  C   UNL     1       6.417  -2.610  12.842  0.00  0.00    +0.042 A 
BRANCH  10  12
ATOM     12  N   UNL     1       6.478  -0.952  14.680  0.00  0.00    +0.056 N 
ATOM     13  O   UNL     1       6.645   0.296  15.068  0.00  0.00    -0.126 OA
ATOM     14  O   UNL     1       6.203  -1.886  15.567  0.00  0.00    -0.126 OA
ENDBRANCH  10  12
ENDBRANCH   5   6
BRANCH   3  15
ATOM     15  C   UNL     1       6.586  -7.877  11.366  0.00  0.00    +0.065 A 
ATOM     16  C   UNL     1       6.218  -8.928  10.535  0.00  0.00    +0.028 A 
ATOM     17  C   UNL     1       6.442 -10.231  10.932  0.00  0.00    +0.002 A 
ATOM     18  C   UNL     1       7.031 -10.492  12.156  0.00  0.00    +0.000 A 
ATOM     19  C   UNL     1       7.398  -9.448  12.986  0.00  0.00    +0.002 A 
ATOM     20  C   UNL     1       7.183  -8.142  12.592  0.00  0.00    +0.028 A 
ENDBRANCH   3  15
BRANCH   1  22
ATOM     21  C   UNL     1       5.026  -4.512   7.481  0.00  0.00    +0.114 C 
ATOM     22  C   UNL     1       5.232  -3.979   8.759  0.00  0.00    +0.035 C 
BRANCH  21  24
ATOM     23  N   UNL     1       4.178  -4.256   5.272  0.00  0.00    -0.184 NA
ATOM     24  C   UNL     1       4.375  -3.746   6.495  0.00  0.00    +0.233 C 
BRANCH  23  28
ATOM     25  C   UNL     1       2.430  -2.505   2.236  0.00  0.00    +0.160 A 
ATOM     26  N   UNL     1       2.515  -1.781   3.390  0.00  0.00    -0.133 NA
ATOM     27  N   UNL     1       3.062  -2.263   4.423  0.00  0.00    -0.120 NA
ATOM     28  C   UNL     1       3.568  -3.538   4.348  0.00  0.00    +0.219 A 
ATOM     29  S   UNL     1       3.170  -3.959   2.658  0.00  0.00    -0.020 S 
BRANCH  25  30
ATOM     30  S   UNL     1       1.759  -2.067   0.783  0.00  0.00    -0.097 S 
BRANCH  30  31
ATOM     31  C   UNL     1       1.161  -0.378   1.067  0.00  0.00    +0.076 C 
BRANCH  31  33
ATOM     32  C   UNL     1       0.006   1.580   0.029  0.00  0.00    +0.004 C 
ATOM     33  C   UNL     1       0.511   0.155  -0.211  0.00  0.00    +0.008 C 
ENDBRANCH  31  33
ENDBRANCH  30  31
ENDBRANCH  25  30
ENDBRANCH  23  28
BRANCH  24  34
ATOM     34  O   UNL     1       3.950  -2.499   6.781  0.00  0.00    -0.491 OA
ATOM     35  H   UNL     1       4.137  -2.218   7.687  0.00  0.00    +0.294 HD
ENDBRANCH  24  34
ENDBRANCH  21  24
BRANCH  21  36
ATOM     36  C   UNL     1       5.477  -5.837   7.177  0.00  0.00    +0.105 C 
ATOM     37  N   UNL     1       5.835  -6.888   6.936  0.00  0.00    -0.191 NA
ENDBRANCH  21  36
ENDBRANCH   1  22
TORSDOF 11
