REMARK  Name = ZINC38818724
REMARK  3 active torsions:
REMARK  status: ('A' for Active; 'I' for Inactive)
REMARK    1  A    between atoms: C_5  and  C_8
REMARK    2  A    between atoms: N_9  and  N_10
REMARK    3  A    between atoms: N_10  and  C_11
REMARK                            x       y       z     vdW  Elec       q    Type
REMARK                         _______ _______ _______ _____ _____    ______ ____
ROOT
ATOM      1  C   UNL     1       1.253  -2.156  -0.018  0.00  0.00    +0.141 C 
ATOM      2  N   UNL     1       0.145  -2.829   0.083  0.00  0.00    -0.190 NA
ENDROOT
BRANCH   1   7
ATOM      3  C   UNL     1       1.741   1.455  -0.920  0.00  0.00    +0.022 A 
ATOM      4  C   UNL     1       1.190   2.084   0.183  0.00  0.00    +0.023 A 
ATOM      5  C   UNL     1       0.659   1.338   1.221  0.00  0.00    +0.060 A 
ATOM      6  C   UNL     1       0.676  -0.043   1.163  0.00  0.00    +0.069 A 
ATOM      7  C   UNL     1       1.231  -0.685   0.052  0.00  0.00    +0.033 A 
ATOM      8  C   UNL     1       1.765   0.077  -0.993  0.00  0.00    +0.051 A 
ATOM      9 CL   UNL     1       2.457  -0.709  -2.377  0.00  0.00    -0.083 Cl
ATOM     10 CL   UNL     1       0.010  -0.977   2.466  0.00  0.00    -0.081 Cl
ATOM     11 CL   UNL     1      -0.030   2.139   2.599  0.00  0.00    -0.082 Cl
ENDBRANCH   1   7
BRANCH   2  12
ATOM     12  N   UNL     1      -1.083  -2.156   0.099  0.00  0.00    -0.239 N 
ATOM     13  H   UNL     1      -1.113  -1.196  -0.041  0.00  0.00    +0.174 HD
BRANCH  12  14
ATOM     14  C   UNL     1      -2.228  -2.843   0.309  0.00  0.00    +0.068 C 
ATOM     15  C   UNL     1      -2.228  -4.208   0.518  0.00  0.00    +0.154 C 
ATOM     16  N   UNL     1      -3.349  -4.871   0.723  0.00  0.00    -0.164 NA
ATOM     17  N   UNL     1      -4.523  -4.372   0.754  0.00  0.00    -0.079 NA
ATOM     18  C   UNL     1      -4.772  -3.067   0.577  0.00  0.00    +0.273 C 
ATOM     19  O   UNL     1      -5.905  -2.631   0.615  0.00  0.00    -0.271 OA
ATOM     20  C   UNL     1      -3.583  -2.155   0.335  0.00  0.00    +0.193 C 
ATOM     21 BR   UNL     1      -3.552  -0.783   1.743  0.00  0.00    -0.072 Br
ENDBRANCH  12  14
ENDBRANCH   2  12
TORSDOF 3
