REMARK  Name = ZINC63763213
REMARK  7 active torsions:
REMARK  status: ('A' for Active; 'I' for Inactive)
REMARK    1  A    between atoms: C_1  and  C_2
REMARK    2  A    between atoms: C_5  and  N_9
REMARK    3  A    between atoms: N_9  and  S_10
REMARK    4  A    between atoms: S_10  and  C_13
REMARK    5  A    between atoms: C_15  and  C_19
REMARK    6  A    between atoms: C_17  and  C_18
REMARK    7  A    between atoms: C_22  and  C_24
REMARK                            x       y       z     vdW  Elec       q    Type
REMARK                         _______ _______ _______ _____ _____    ______ ____
ROOT
ATOM      1  C   UNL     1       0.335  -6.712   0.990  0.00  0.00    +0.121 A 
ATOM      2  C   UNL     1       1.488  -7.408   1.268  0.00  0.00    +0.046 A 
ATOM      3  C   UNL     1       1.484  -8.749   0.904  0.00  0.00    +0.038 A 
ATOM      4  S   UNL     1      -0.142  -8.931   0.197  0.00  0.00    -0.090 S 
ATOM      5  C   UNL     1      -0.700  -7.360   0.402  0.00  0.00    +0.014 A 
ATOM      6  C   UNL     1      -2.045  -6.798   0.017  0.00  0.00    +0.053 C 
ENDROOT
BRANCH   3   7
ATOM      7  C   UNL     1       2.506  -9.718   1.055  0.00  0.00    +0.083 C 
ATOM      8  N   UNL     1       3.690  -9.542   1.587  0.00  0.00    -0.153 NA
ATOM      9  N   UNL     1       4.447 -10.709   1.576  0.00  0.00    -0.149 NA
ATOM     10  C   UNL     1       3.816 -11.705   1.044  0.00  0.00    +0.149 C 
ATOM     11  C   UNL     1       2.455 -11.175   0.639  0.00  0.00    +0.120 C 
BRANCH  10  12
ATOM     12  C   UNL     1       4.328 -13.111   0.867  0.00  0.00    +0.432 C 
ATOM     13  F   UNL     1       5.629 -13.200   1.374  0.00  0.00    -0.165 F 
ATOM     14  F   UNL     1       3.496 -14.000   1.555  0.00  0.00    -0.165 F 
ATOM     15  F   UNL     1       4.335 -13.437  -0.494  0.00  0.00    -0.165 F 
ENDBRANCH  10  12
ENDBRANCH   3   7
BRANCH   1  16
ATOM     16  S   UNL     1       0.202  -5.004   1.400  0.00  0.00    +0.092 S 
ATOM     17  O   UNL     1       1.448  -4.624   1.969  0.00  0.00    -0.148 OA
ATOM     18  O   UNL     1      -1.030  -4.846   2.089  0.00  0.00    -0.148 OA
BRANCH  16  19
ATOM     19  N   UNL     1       0.059  -4.169  -0.023  0.00  0.00    -0.096 NA
BRANCH  19  24
ATOM     20  C   UNL     1      -0.080   1.502   0.018  0.00  0.00    +0.044 C 
ATOM     21  C   UNL     1      -0.043  -0.005   0.007  0.00  0.00    -0.049 A 
ATOM     22  C   UNL     1      -0.058  -0.705   1.200  0.00  0.00    +0.005 A 
ATOM     23  C   UNL     1      -0.025  -2.085   1.193  0.00  0.00    +0.028 A 
ATOM     24  C   UNL     1       0.024  -2.772  -0.013  0.00  0.00    +0.093 A 
ATOM     25  C   UNL     1       0.039  -2.066  -1.210  0.00  0.00    +0.066 A 
ATOM     26  C   UNL     1       0.001  -0.685  -1.197  0.00  0.00    +0.025 A 
ATOM     27 CL   UNL     1       0.100  -2.919  -2.721  0.00  0.00    -0.082 Cl
ENDBRANCH  19  24
ENDBRANCH  16  19
ENDBRANCH   1  16
TORSDOF 5
