REMARK  Name = ZINC36548186
REMARK  12 active torsions:
REMARK  status: ('A' for Active; 'I' for Inactive)
REMARK    1  A    between atoms: C_1  and  C_2
REMARK    2  A    between atoms: C_2  and  C_3
REMARK    3  A    between atoms: C_2  and  C_4
REMARK    4  A    between atoms: C_2  and  N_5
REMARK    5  A    between atoms: C_6  and  C_8
REMARK    6  A    between atoms: C_8  and  C_10
REMARK    7  A    between atoms: C_8  and  N_17
REMARK    8  A    between atoms: C_15  and  O_16
REMARK    9  A    between atoms: N_17  and  C_18
REMARK   10  A    between atoms: C_25  and  C_27
REMARK   11  A    between atoms: C_27  and  N_28
REMARK   12  A    between atoms: C_29  and  C_31
REMARK                            x       y       z     vdW  Elec       q    Type
REMARK                         _______ _______ _______ _____ _____    ______ ____
ROOT
ATOM      1  N   UNL     1       4.042  -0.270  -2.354  0.00  0.00    -0.253 N 
ATOM      2  C   UNL     1       4.793   0.249  -3.346  0.00  0.00    +0.238 C 
ATOM      3  O   UNL     1       4.268   0.620  -4.374  0.00  0.00    -0.274 OA
ENDROOT
BRANCH   1   4
ATOM      4  C   UNL     1       4.649  -0.699  -1.168  0.00  0.00    +0.056 A 
ATOM      5  C   UNL     1       5.242  -1.953  -1.103  0.00  0.00    +0.025 A 
ATOM      6  C   UNL     1       5.839  -2.373   0.069  0.00  0.00    +0.002 A 
ATOM      7  C   UNL     1       5.848  -1.547   1.178  0.00  0.00    +0.002 A 
ATOM      8  C   UNL     1       5.259  -0.298   1.118  0.00  0.00    +0.022 A 
ATOM      9  C   UNL     1       4.665   0.132  -0.054  0.00  0.00    +0.062 A 
ATOM     10 CL   UNL     1       3.932   1.704  -0.132  0.00  0.00    -0.082 Cl
ENDBRANCH   1   4
BRANCH   1  11
ATOM     11  C   UNL     1       2.591  -0.386  -2.518  0.00  0.00    +0.201 C 
BRANCH  11  12
ATOM     12  C   UNL     1       2.286  -1.406  -3.584  0.00  0.00    +0.024 A 
ATOM     13  C   UNL     1       3.268  -2.283  -4.004  0.00  0.00    +0.009 A 
ATOM     14  C   UNL     1       2.988  -3.219  -4.982  0.00  0.00    +0.001 A 
ATOM     15  C   UNL     1       1.725  -3.280  -5.543  0.00  0.00    +0.004 A 
ATOM     16  C   UNL     1       0.740  -2.406  -5.126  0.00  0.00    +0.046 A 
ATOM     17  C   UNL     1       1.017  -1.469  -4.141  0.00  0.00    +0.122 A 
BRANCH  17  18
ATOM     18  O   UNL     1       0.048  -0.612  -3.725  0.00  0.00    -0.506 OA
ATOM     19  H   UNL     1       0.011   0.213  -4.228  0.00  0.00    +0.292 HD
ENDBRANCH  17  18
ENDBRANCH  11  12
BRANCH  11  21
ATOM     20  N   UNL     1       0.787  -0.306  -0.828  0.00  0.00    -0.309 N 
ATOM     21  C   UNL     1       1.971  -0.820  -1.215  0.00  0.00    +0.239 C 
ATOM     22  O   UNL     1       2.539  -1.631  -0.514  0.00  0.00    -0.273 OA
ATOM     23  H   UNL     1       0.333   0.342  -1.389  0.00  0.00    +0.149 HD
BRANCH  20  25
ATOM     24  C   UNL     1       1.129  -0.386   1.592  0.00  0.00    +0.031 C 
ATOM     25  C   UNL     1       0.184  -0.729   0.439  0.00  0.00    +0.026 C 
ATOM     26  C   UNL     1      -0.059  -2.239   0.410  0.00  0.00    +0.031 C 
ATOM     27  C   UNL     1      -1.147  -0.001   0.638  0.00  0.00    +0.031 C 
ENDBRANCH  20  25
ENDBRANCH  11  21
ENDBRANCH   1  11
BRANCH   2  28
ATOM     28  C   UNL     1       6.286   0.367  -3.177  0.00  0.00    +0.201 C 
BRANCH  28  29
ATOM     29  N   UNL     1       6.869   0.957  -4.385  0.00  0.00    -0.303 N 
ATOM     30  C   UNL     1       8.199   1.160  -4.462  0.00  0.00    +0.244 C 
ATOM     31  O   UNL     1       8.915   0.853  -3.529  0.00  0.00    -0.270 OA
ATOM     32  H   UNL     1       6.297   1.202  -5.129  0.00  0.00    +0.150 HD
BRANCH  30  33
ATOM     33  C   UNL     1       8.787   1.755  -5.681  0.00  0.00    +0.037 A 
ATOM     34  C   UNL     1       7.966   2.113  -6.752  0.00  0.00    +0.013 A 
ATOM     35  C   UNL     1       8.521   2.669  -7.886  0.00  0.00    +0.001 A 
ATOM     36  C   UNL     1       9.888   2.870  -7.964  0.00  0.00    +0.000 A 
ATOM     37  C   UNL     1      10.707   2.517  -6.906  0.00  0.00    +0.001 A 
ATOM     38  C   UNL     1      10.164   1.966  -5.763  0.00  0.00    +0.013 A 
ENDBRANCH  30  33
ENDBRANCH  28  29
ENDBRANCH   2  28
TORSDOF 9
