REMARK  Name = ZINC53735061
REMARK  5 active torsions:
REMARK  status: ('A' for Active; 'I' for Inactive)
REMARK    1  A    between atoms: C_1  and  C_2
REMARK    2  A    between atoms: C_5  and  N_16
REMARK    3  A    between atoms: C_7  and  N_8
REMARK    4  A    between atoms: C_11  and  C_14
REMARK    5  A    between atoms: C_14  and  O_15
REMARK                            x       y       z     vdW  Elec       q    Type
REMARK                         _______ _______ _______ _____ _____    ______ ____
ROOT
ATOM      1  C   UNL     1      -0.018   1.503   0.010  0.00  0.00    +0.045 C 
ATOM      2  C   UNL     1       0.002  -0.004   0.002  0.00  0.00    -0.029 A 
ATOM      3  C   UNL     1       0.006  -0.689  -1.198  0.00  0.00    +0.007 A 
ATOM      4  C   UNL     1       0.025  -2.071  -1.206  0.00  0.00    +0.033 A 
ATOM      5  C   UNL     1       0.040  -2.773  -0.014  0.00  0.00    +0.128 A 
ATOM      6  C   UNL     1       0.036  -2.095   1.188  0.00  0.00    +0.056 A 
ATOM      7  C   UNL     1       0.023  -0.706   1.200  0.00  0.00    +0.035 A 
ENDROOT
BRANCH   7   8
ATOM      8  N   UNL     1       0.025  -0.016   2.415  0.00  0.00    -0.329 N 
ATOM      9  C   UNL     1      -1.168   0.385   3.175  0.00  0.00    +0.105 C 
ATOM     10  C   UNL     1      -0.679   1.092   4.456  0.00  0.00    +0.026 C 
ATOM     11  C   UNL     1       0.765   0.550   4.623  0.00  0.00    +0.033 C 
ATOM     12  C   UNL     1       1.224   0.424   3.151  0.00  0.00    +0.111 C 
BRANCH  11  13
ATOM     13  C   UNL     1       1.639   1.544   5.391  0.00  0.00    +0.161 C 
BRANCH  13  14
ATOM     14  O   UNL     1       1.168   1.652   6.736  0.00  0.00    -0.395 OA
ATOM     15  H   UNL     1       1.677   2.267   7.282  0.00  0.00    +0.209 HD
ENDBRANCH  13  14
ENDBRANCH  11  13
ENDBRANCH   7   8
BRANCH   5  16
ATOM     16  N   UNL     1       0.059  -4.253  -0.028  0.00  0.00    +0.056 N 
ATOM     17  O   UNL     1       0.062  -4.848  -1.081  0.00  0.00    -0.126 OA
ATOM     18  O   UNL     1       0.072  -4.867   1.013  0.00  0.00    -0.126 OA
ENDBRANCH   5  16
TORSDOF 4
