REMARK  Name = ZINC64219110
REMARK  8 active torsions:
REMARK  status: ('A' for Active; 'I' for Inactive)
REMARK    1  A    between atoms: C_1  and  C_2
REMARK    2  A    between atoms: N_4  and  C_5
REMARK    3  A    between atoms: C_5  and  C_7
REMARK    4  A    between atoms: C_5  and  C_17
REMARK    5  A    between atoms: C_7  and  C_8
REMARK    6  A    between atoms: N_19  and  C_20
REMARK    7  A    between atoms: C_20  and  C_21
REMARK    8  A    between atoms: N_23  and  C_24
REMARK                            x       y       z     vdW  Elec       q    Type
REMARK                         _______ _______ _______ _____ _____    ______ ____
ROOT
ATOM      1  C   UNL     1      -1.166  -2.148  -0.018  0.00  0.00    +0.163 C 
ENDROOT
BRANCH   1   5
ATOM      2  C   UNL     1      -0.071   1.520  -0.025  0.00  0.00    +0.109 C 
ATOM      3  C   UNL     1      -0.041   0.013  -0.026  0.00  0.00    +0.211 C 
ATOM      4  O   UNL     1       1.021  -0.572  -0.036  0.00  0.00    -0.276 OA
ATOM      5  N   UNL     1      -1.195  -0.684  -0.017  0.00  0.00    -0.304 N 
ATOM      6  H   UNL     1      -2.044  -0.215  -0.009  0.00  0.00    +0.149 HD
ENDBRANCH   1   5
BRANCH   1   7
ATOM      7  C   UNL     1      -0.457  -2.635  -1.256  0.00  0.00    +0.234 C 
ATOM      8  O   UNL     1       0.285  -1.892  -1.862  0.00  0.00    -0.274 OA
ATOM      9  N   UNL     1      -0.646  -3.898  -1.688  0.00  0.00    -0.305 N 
ATOM     10  H   UNL     1      -1.239  -4.493  -1.204  0.00  0.00    +0.149 HD
BRANCH   9  11
ATOM     11  C   UNL     1       0.043  -4.371  -2.891  0.00  0.00    +0.200 C 
BRANCH  11  12
ATOM     12  C   UNL     1      -0.337  -5.805  -3.157  0.00  0.00    +0.234 C 
ATOM     13  O   UNL     1      -1.109  -6.375  -2.415  0.00  0.00    -0.274 OA
ATOM     14  N   UNL     1       0.179  -6.454  -4.219  0.00  0.00    -0.283 N 
ATOM     15  H   UNL     1       0.744  -5.979  -4.849  0.00  0.00    +0.155 HD
BRANCH  14  16
ATOM     16  C   UNL     1      -0.099  -7.811  -4.414  0.00  0.00    +0.047 A 
ATOM     17  C   UNL     1      -1.340  -8.325  -4.060  0.00  0.00    +0.024 A 
ATOM     18  C   UNL     1      -1.612  -9.665  -4.253  0.00  0.00    +0.002 A 
ATOM     19  C   UNL     1      -0.650 -10.496  -4.798  0.00  0.00    +0.001 A 
ATOM     20  C   UNL     1       0.586  -9.989  -5.152  0.00  0.00    +0.017 A 
ATOM     21  C   UNL     1       0.863  -8.647  -4.966  0.00  0.00    +0.039 A 
ATOM     22 BR   UNL     1       2.552  -7.952  -5.457  0.00  0.00    -0.048 Br
ENDBRANCH  14  16
ENDBRANCH  11  12
ENDBRANCH   9  11
ENDBRANCH   1   7
BRANCH   1  23
ATOM     23  C   UNL     1      -0.424  -2.645   1.224  0.00  0.00    +0.065 C 
BRANCH  23  24
ATOM     24  C   UNL     1      -1.199  -2.263   2.458  0.00  0.00    -0.039 C 
ATOM     25  C   UNL     1      -2.086  -3.031   3.131  0.00  0.00    -0.001 A 
ATOM     26  C   UNL     1      -2.578  -4.398   2.922  0.00  0.00    +0.010 A 
ATOM     27  C   UNL     1      -3.488  -4.907   3.784  0.00  0.00    +0.001 A 
ATOM     28  C   UNL     1      -3.974  -4.162   4.867  0.00  0.00    +0.002 A 
ATOM     29  C   UNL     1      -3.570  -2.900   5.124  0.00  0.00    +0.026 A 
ATOM     30  C   UNL     1      -2.614  -2.266   4.283  0.00  0.00    +0.043 A 
ATOM     31  N   UNL     1      -2.074  -1.072   4.321  0.00  0.00    -0.380 N 
ATOM     32  C   UNL     1      -1.137  -0.946   3.200  0.00  0.00    +0.144 C 
ATOM     33  H   UNL     1      -2.260  -0.387   4.983  0.00  0.00    +0.160 HD
ENDBRANCH  23  24
ENDBRANCH   1  23
TORSDOF 7
