REMARK  Name = ZINC17074548
REMARK  3 active torsions:
REMARK  status: ('A' for Active; 'I' for Inactive)
REMARK    1  A    between atoms: C_4  and  C_7
REMARK    2  A    between atoms: C_7  and  C_8
REMARK    3  A    between atoms: C_7  and  N_14
REMARK                            x       y       z     vdW  Elec       q    Type
REMARK                         _______ _______ _______ _____ _____    ______ ____
ROOT
ATOM      1  N   UNL     1       3.603  -1.949  -0.787  0.00  0.00    -0.289 NA
ATOM      2  C   UNL     1       2.618  -2.772  -0.073  0.00  0.00    +0.104 C 
ATOM      3  C   UNL     1       2.263  -3.994  -0.926  0.00  0.00    +0.123 C 
ATOM      4  N   UNL     1       3.508  -4.688  -1.288  0.00  0.00    -0.300 N 
ATOM      5  C   UNL     1       4.597  -3.899  -1.885  0.00  0.00    +0.123 C 
ATOM      6  C   UNL     1       4.860  -2.681  -0.993  0.00  0.00    +0.104 C 
ATOM      7  C   UNL     1       3.650  -6.032  -1.076  0.00  0.00    +0.179 A 
ATOM      8  N   UNL     1       4.339  -6.761  -1.953  0.00  0.00    -0.296 N 
ATOM      9  H   UNL     1       4.731  -6.332  -2.730  0.00  0.00    +0.172 HD
ATOM     10  C   UNL     1       4.497  -8.087  -1.772  0.00  0.00    +0.256 A 
ATOM     11  O   UNL     1       5.192  -8.814  -2.658  0.00  0.00    -0.268 OA
ATOM     12  C   UNL     1       3.931  -8.692  -0.654  0.00  0.00    +0.140 A 
ATOM     13  C   UNL     1       3.218  -7.903   0.242  0.00  0.00    +0.256 A 
ATOM     14  N   UNL     1       3.100  -6.581   0.007  0.00  0.00    -0.296 N 
ATOM     15  O   UNL     1       2.658  -8.450   1.330  0.00  0.00    -0.268 OA
ATOM     16  H   UNL     1       2.608  -6.025   0.630  0.00  0.00    +0.172 HD
ENDROOT
BRANCH   1  17
ATOM     17  C   UNL     1       3.841  -0.682  -0.082  0.00  0.00    +0.117 C 
BRANCH  17  21
ATOM     18  C   UNL     1       6.605   1.690  -2.313  0.00  0.00    +0.000 A 
ATOM     19  C   UNL     1       6.755   1.558  -0.945  0.00  0.00    +0.000 A 
ATOM     20  C   UNL     1       5.860   0.790  -0.223  0.00  0.00    +0.005 A 
ATOM     21  C   UNL     1       4.816   0.155  -0.869  0.00  0.00    -0.026 A 
ATOM     22  C   UNL     1       4.666   0.288  -2.236  0.00  0.00    +0.005 A 
ATOM     23  C   UNL     1       5.561   1.054  -2.959  0.00  0.00    +0.000 A 
ENDBRANCH  17  21
BRANCH  17  24
ATOM     24  C   UNL     1       2.540   0.064   0.063  0.00  0.00    -0.026 A 
ATOM     25  C   UNL     1       1.675   0.161  -1.011  0.00  0.00    +0.005 A 
ATOM     26  C   UNL     1       0.482   0.846  -0.878  0.00  0.00    +0.000 A 
ATOM     27  C   UNL     1       0.153   1.433   0.329  0.00  0.00    +0.000 A 
ATOM     28  C   UNL     1       1.017   1.336   1.404  0.00  0.00    +0.000 A 
ATOM     29  C   UNL     1       2.209   0.647   1.272  0.00  0.00    +0.005 A 
ENDBRANCH  17  24
ENDBRANCH   1  17
TORSDOF 3
