REMARK  Name = ZINC64479910
REMARK  9 active torsions:
REMARK  status: ('A' for Active; 'I' for Inactive)
REMARK    1  A    between atoms: C_1  and  O_2
REMARK    2  A    between atoms: O_2  and  C_3
REMARK    3  A    between atoms: C_9  and  C_12
REMARK    4  A    between atoms: C_12  and  C_13
REMARK    5  A    between atoms: C_13  and  N_14
REMARK    6  A    between atoms: C_15  and  C_17
REMARK    7  A    between atoms: C_17  and  C_18
REMARK    8  A    between atoms: C_18  and  N_19
REMARK    9  A    between atoms: C_20  and  O_31
REMARK                            x       y       z     vdW  Elec       q    Type
REMARK                         _______ _______ _______ _____ _____    ______ ____
ROOT
ATOM      1  N   UNL     1      -0.752  -6.781  -1.509  0.00  0.00    -0.315 N 
ATOM      2  C   UNL     1      -1.922  -7.385  -1.796  0.00  0.00    +0.215 C 
ATOM      3  O   UNL     1      -2.617  -6.964  -2.697  0.00  0.00    -0.276 OA
ATOM      4  H   UNL     1      -0.196  -7.118  -0.789  0.00  0.00    +0.149 HD
ENDROOT
BRANCH   1   5
ATOM      5  C   UNL     1      -0.319  -5.616  -2.284  0.00  0.00    +0.108 C 
BRANCH   5   6
ATOM      6  C   UNL     1       1.031  -5.126  -1.758  0.00  0.00    +0.052 C 
BRANCH   6  13
ATOM      7  C   UNL     1       0.606  -0.607  -1.056  0.00  0.00    +0.121 A 
ATOM      8  C   UNL     1       1.172   0.195  -2.062  0.00  0.00    +0.047 A 
ATOM      9  C   UNL     1       1.790  -0.325  -3.144  0.00  0.00    +0.029 A 
ATOM     10  C   UNL     1       1.886  -1.780  -3.299  0.00  0.00    +0.043 A 
ATOM     11  N   UNL     1       2.419  -2.528  -4.232  0.00  0.00    -0.380 N 
ATOM     12  C   UNL     1       2.222  -3.937  -3.871  0.00  0.00    +0.144 C 
ATOM     13  C   UNL     1       1.476  -3.927  -2.555  0.00  0.00    -0.040 C 
ATOM     14  C   UNL     1       1.290  -2.626  -2.239  0.00  0.00    +0.002 A 
ATOM     15  C   UNL     1       0.646  -1.960  -1.102  0.00  0.00    +0.055 A 
ATOM     16  H   UNL     1       2.869  -2.205  -5.029  0.00  0.00    +0.160 HD
BRANCH   7  18
ATOM     17  C   UNL     1      -0.017   1.425   0.010  0.00  0.00    +0.277 C 
ATOM     18  O   UNL     1       0.002  -0.004   0.002  0.00  0.00    -0.495 OA
ENDBRANCH   7  18
ENDBRANCH   6  13
ENDBRANCH   5   6
ENDBRANCH   1   5
BRANCH   2  19
ATOM     19  C   UNL     1      -2.367  -8.584  -0.999  0.00  0.00    +0.115 C 
BRANCH  19  20
ATOM     20  C   UNL     1      -3.718  -9.073  -1.525  0.00  0.00    +0.121 C 
BRANCH  20  21
ATOM     21  N   UNL     1      -4.151 -10.239  -0.750  0.00  0.00    -0.256 N 
ATOM     22  C   UNL     1      -3.759 -11.578  -1.188  0.00  0.00    +0.299 C 
ATOM     23  N   UNL     1      -4.788 -12.557  -0.816  0.00  0.00    -0.303 N 
ATOM     24  C   UNL     1      -5.337 -12.491   0.459  0.00  0.00    +0.042 A 
ATOM     25  C   UNL     1      -5.808 -13.616   1.113  0.00  0.00    +0.024 A 
ATOM     26  C   UNL     1      -6.341 -13.496   2.383  0.00  0.00    +0.002 A 
ATOM     27  C   UNL     1      -6.407 -12.259   3.005  0.00  0.00    +0.001 A 
ATOM     28  C   UNL     1      -5.943 -11.128   2.366  0.00  0.00    +0.015 A 
ATOM     29  C   UNL     1      -5.405 -11.234   1.087  0.00  0.00    +0.058 A 
ATOM     30  C   UNL     1      -4.898 -10.057   0.358  0.00  0.00    +0.251 C 
ATOM     31  O   UNL     1      -5.154  -8.934   0.750  0.00  0.00    -0.270 OA
ATOM     32  H   UNL     1      -5.079 -13.234  -1.447  0.00  0.00    +0.150 HD
BRANCH  22  33
ATOM     33  O   UNL     1      -2.523 -11.937  -0.566  0.00  0.00    -0.359 OA
ATOM     34  H   UNL     1      -2.201 -12.816  -0.811  0.00  0.00    +0.213 HD
ENDBRANCH  22  33
ENDBRANCH  20  21
ENDBRANCH  19  20
ENDBRANCH   2  19
TORSDOF 8
