REMARK  Name = ZINC51036708
REMARK  2 active torsions:
REMARK  status: ('A' for Active; 'I' for Inactive)
REMARK    1  A    between atoms: C_2  and  S_8
REMARK    2  A    between atoms: S_8  and  C_9
REMARK                            x       y       z     vdW  Elec       q    Type
REMARK                         _______ _______ _______ _____ _____    ______ ____
ROOT
ATOM      1  C   UNL     1       2.966   4.202  -0.004  0.00  0.00    +0.132 A 
ATOM      2  C   UNL     1       3.402   5.529   0.004  0.00  0.00    +0.118 A 
ATOM      3  C   UNL     1       4.783   5.784  -0.008  0.00  0.00    +0.182 A 
ATOM      4  N   UNL     1       4.933   7.122   0.004  0.00  0.00    -0.216 NA
ATOM      5  H   UNL     1       1.830   6.928   0.035  0.00  0.00    +0.167 HD
ATOM      6  C   UNL     1       3.763   7.697   0.022  0.00  0.00    +0.199 A 
ATOM      7  N   UNL     1       2.786   6.762   0.023  0.00  0.00    -0.341 N 
ATOM      8  N   UNL     1       5.626   4.747  -0.027  0.00  0.00    -0.214 NA
ATOM      9  C   UNL     1       5.170   3.514  -0.034  0.00  0.00    +0.224 A 
ATOM     10  N   UNL     1       3.879   3.234  -0.018  0.00  0.00    -0.227 NA
ENDROOT
BRANCH   1  11
ATOM     11  S   UNL     1       1.247   3.819   0.010  0.00  0.00    -0.048 S 
BRANCH  11  13
ATOM     12  C   UNL     1      -0.017   1.379   0.010  0.00  0.00    +0.075 A 
ATOM     13  C   UNL     1       1.203   2.057   0.002  0.00  0.00    +0.108 A 
ATOM     14  N   UNL     1       2.332   1.353  -0.013  0.00  0.00    -0.229 NA
ATOM     15  C   UNL     1       2.303   0.036  -0.020  0.00  0.00    +0.224 A 
ATOM     16  N   UNL     1       1.169  -0.635  -0.013  0.00  0.00    -0.224 NA
ATOM     17  C   UNL     1       0.002  -0.004   0.002  0.00  0.00    +0.133 A 
ATOM     18 CL   UNL     1      -1.483  -0.903   0.012  0.00  0.00    -0.062 Cl
ENDBRANCH  11  13
ENDBRANCH   1  11
TORSDOF 2
