REMARK  Name = ZINC66556171
REMARK  7 active torsions:
REMARK  status: ('A' for Active; 'I' for Inactive)
REMARK    1  A    between atoms: C_1  and  C_2
REMARK    2  A    between atoms: N_11  and  C_15
REMARK    3  A    between atoms: C_15  and  C_16
REMARK    4  A    between atoms: N_18  and  N_19
REMARK    5  A    between atoms: C_20  and  C_22
REMARK    6  A    between atoms: C_22  and  C_23
REMARK    7  A    between atoms: C_23  and  C_24
REMARK                            x       y       z     vdW  Elec       q    Type
REMARK                         _______ _______ _______ _____ _____    ______ ____
ROOT
ATOM      1  C   UNL     1       1.154   0.526   5.534  0.00  0.00    +0.247 C 
ATOM      2  O   UNL     1       1.567  -0.591   5.305  0.00  0.00    -0.273 OA
ATOM      3  N   UNL     1       1.032   0.953   6.806  0.00  0.00    -0.233 N 
ATOM      4  H   UNL     1       0.701   1.846   6.989  0.00  0.00    +0.173 HD
ENDROOT
BRANCH   3   5
ATOM      5  N   UNL     1       1.383   0.105   7.866  0.00  0.00    -0.234 N 
ATOM      6  C   UNL     1       1.261   0.532   9.138  0.00  0.00    +0.229 C 
ATOM      7  O   UNL     1       0.847   1.649   9.367  0.00  0.00    -0.274 OA
ATOM      8  H   UNL     1       1.714  -0.788   7.683  0.00  0.00    +0.173 HD
BRANCH   6   9
ATOM      9  C   UNL     1       1.638  -0.380  10.278  0.00  0.00    +0.097 C 
BRANCH   9  10
ATOM     10  C   UNL     1       1.407   0.343  11.607  0.00  0.00    +0.013 C 
BRANCH  10  11
ATOM     11  C   UNL     1       1.790  -0.583  12.763  0.00  0.00    -0.011 C 
ATOM     12  C   UNL     1       3.292  -0.866  12.713  0.00  0.00    +0.003 C 
ATOM     13  C   UNL     1       3.675  -1.792  13.870  0.00  0.00    +0.000 C 
ATOM     14  C   UNL     1       3.328  -1.118  15.199  0.00  0.00    +0.000 C 
ATOM     15  C   UNL     1       1.825  -0.834  15.249  0.00  0.00    +0.000 C 
ATOM     16  C   UNL     1       1.442   0.091  14.092  0.00  0.00    +0.003 C 
ENDBRANCH  10  11
ENDBRANCH   9  10
ENDBRANCH   6   9
ENDBRANCH   3   5
BRANCH   1  17
ATOM     17  C   UNL     1       0.777   1.438   4.394  0.00  0.00    +0.215 C 
BRANCH  17  27
ATOM     18  C   UNL     1      -0.019   1.526   0.010  0.00  0.00    +0.010 C 
ATOM     19  C   UNL     1       0.002  -0.004   0.002  0.00  0.00    +0.018 C 
ATOM     20  C   UNL     1       0.718  -0.498  -1.258  0.00  0.00    +0.006 C 
ATOM     21  C   UNL     1       0.756  -2.027  -1.255  0.00  0.00    +0.000 C 
ATOM     22  C   UNL     1       1.516  -2.519  -0.021  0.00  0.00    +0.003 C 
ATOM     23  C   UNL     1       0.803  -2.032   1.243  0.00  0.00    +0.035 C 
ATOM     24  C   UNL     1       0.739  -0.509   1.238  0.00  0.00    +0.115 C 
ATOM     25  C   UNL     1       0.069  -0.004   2.495  0.00  0.00    +0.247 C 
ATOM     26  O   UNL     1      -1.064  -0.228   2.863  0.00  0.00    -0.273 OA
ATOM     27  N   UNL     1       0.998   0.746   3.122  0.00  0.00    -0.215 N 
ATOM     28  C   UNL     1       2.148   0.781   2.437  0.00  0.00    +0.310 C 
ATOM     29  O   UNL     1       3.133   1.393   2.801  0.00  0.00    -0.252 OA
ATOM     30  N   UNL     1       2.091   0.063   1.300  0.00  0.00    -0.285 N 
ATOM     31  H   UNL     1       2.801  -0.054   0.650  0.00  0.00    +0.151 HD
ENDBRANCH  17  27
ENDBRANCH   1  17
TORSDOF 6
