REMARK  Name = ZINC15025281
REMARK  9 active torsions:
REMARK  status: ('A' for Active; 'I' for Inactive)
REMARK    1  A    between atoms: C_1  and  C_2
REMARK    2  A    between atoms: C_2  and  O_3
REMARK    3  A    between atoms: O_3  and  C_4
REMARK    4  A    between atoms: C_9  and  N_10
REMARK    5  A    between atoms: C_11  and  C_13
REMARK    6  A    between atoms: C_13  and  C_15
REMARK    7  A    between atoms: C_13  and  N_56
REMARK    8  A    between atoms: N_18  and  S_21
REMARK    9  A    between atoms: S_21  and  C_24
REMARK                            x       y       z     vdW  Elec       q    Type
REMARK                         _______ _______ _______ _____ _____    ______ ____
ROOT
ATOM      1  C   UNL     1      -0.783   3.025  -1.204  0.00  0.00    -0.060 C 
ATOM      2  C   UNL     1      -1.366   3.494  -2.541  0.00  0.00    +0.091 C 
ATOM      3  N   UNL     1      -2.652   2.813  -2.756  0.00  0.00    -0.180 NA
ATOM      4  C   UNL     1      -2.694   1.349  -2.622  0.00  0.00    +0.091 C 
ATOM      5  C   UNL     1      -2.059   0.964  -1.282  0.00  0.00    -0.060 C 
ATOM      6  N   UNL     1      -0.702   1.548  -1.215  0.00  0.00    +0.389 N 
ATOM      7  H   UNL     1      -0.170   1.249  -2.041  0.00  0.00    -0.081 HD
ENDROOT
BRANCH   3   8
ATOM      8  S   UNL     1      -4.015   3.672  -3.137  0.00  0.00    +0.064 S 
ATOM      9  O   UNL     1      -3.577   4.889  -3.726  0.00  0.00    -0.153 OA
ATOM     10  O   UNL     1      -4.888   2.772  -3.807  0.00  0.00    -0.153 OA
BRANCH   8  11
ATOM     11  C   UNL     1      -4.802   4.102  -1.620  0.00  0.00    +0.143 A 
ATOM     12  C   UNL     1      -4.901   5.428  -1.244  0.00  0.00    +0.069 A 
ATOM     13  C   UNL     1      -5.522   5.766  -0.055  0.00  0.00    +0.125 A 
ATOM     14  C   UNL     1      -6.037   4.775   0.764  0.00  0.00    +0.041 A 
ATOM     15  C   UNL     1      -5.934   3.449   0.390  0.00  0.00    +0.043 A 
ATOM     16  C   UNL     1      -5.316   3.111  -0.802  0.00  0.00    +0.150 A 
ATOM     17  F   UNL     1      -5.215   1.814  -1.167  0.00  0.00    -0.203 F 
ATOM     18  F   UNL     1      -5.622   7.063   0.310  0.00  0.00    -0.205 F 
ENDBRANCH   8  11
ENDBRANCH   3   8
BRANCH   6  19
ATOM     19  C   UNL     1      -0.008   1.073   0.000  0.00  0.00    +0.017 C 
ATOM     20  C   UNL     1      -0.732   1.558   1.258  0.00  0.00    -0.004 C 
BRANCH  19  22
ATOM     21  N   UNL     1       2.245   1.288   0.998  0.00  0.00    -0.284 N 
ATOM     22  C   UNL     1       1.402   1.604  -0.004  0.00  0.00    +0.203 C 
ATOM     23  O   UNL     1       1.778   2.317  -0.911  0.00  0.00    -0.277 OA
ATOM     24  H   UNL     1       1.922   0.785   1.763  0.00  0.00    +0.155 HD
BRANCH  21  30
ATOM     25  C   UNL     1       4.326   1.834   2.108  0.00  0.00    +0.142 A 
ATOM     26  C   UNL     1       5.653   2.227   2.042  0.00  0.00    +0.047 A 
ATOM     27  C   UNL     1       6.241   2.469   0.814  0.00  0.00    +0.004 A 
ATOM     28  C   UNL     1       5.509   2.321  -0.349  0.00  0.00    +0.002 A 
ATOM     29  C   UNL     1       4.186   1.925  -0.291  0.00  0.00    +0.027 A 
ATOM     30  C   UNL     1       3.587   1.685   0.937  0.00  0.00    +0.076 A 
BRANCH  25  31
ATOM     31  O   UNL     1       3.746   1.594   3.315  0.00  0.00    -0.490 OA
BRANCH  31  33
ATOM     32  C   UNL     1       3.745   1.455   5.728  0.00  0.00    +0.048 C 
ATOM     33  C   UNL     1       4.564   1.768   4.474  0.00  0.00    +0.226 C 
ENDBRANCH  31  33
ENDBRANCH  25  31
ENDBRANCH  21  30
ENDBRANCH  19  22
ENDBRANCH   6  19
TORSDOF 7
