REMARK  Name = ZINC64015023
REMARK  8 active torsions:
REMARK  status: ('A' for Active; 'I' for Inactive)
REMARK    1  A    between atoms: C_1  and  C_2
REMARK    2  A    between atoms: C_2  and  C_3
REMARK    3  A    between atoms: C_2  and  C_4
REMARK    4  A    between atoms: C_4  and  N_5
REMARK    5  A    between atoms: C_6  and  C_8
REMARK    6  A    between atoms: N_10  and  C_13
REMARK    7  A    between atoms: C_19  and  C_21
REMARK    8  A    between atoms: C_21  and  C_22
REMARK                            x       y       z     vdW  Elec       q    Type
REMARK                         _______ _______ _______ _____ _____    ______ ____
ROOT
ATOM      1  C   UNL     1      -4.061  -7.429  -0.494  0.00  0.00    +0.095 C 
ATOM      2  C   UNL     1      -3.821  -8.151  -1.822  0.00  0.00    +0.043 C 
ATOM      3  C   UNL     1      -4.746  -9.369  -1.910  0.00  0.00    +0.109 C 
ATOM      4  N   UNL     1      -4.538 -10.207  -0.722  0.00  0.00    -0.301 N 
ATOM      5  C   UNL     1      -4.655  -9.591   0.607  0.00  0.00    +0.109 C 
ATOM      6  C   UNL     1      -3.732  -8.370   0.667  0.00  0.00    +0.043 C 
ATOM      7  C   UNL     1      -4.246 -11.517  -0.848  0.00  0.00    +0.220 C 
ATOM      8  O   UNL     1      -4.152 -12.014  -1.950  0.00  0.00    -0.275 OA
ENDROOT
BRANCH   1  11
ATOM      9  C   UNL     1      -2.558  -4.137  -0.258  0.00  0.00    +0.120 C 
ATOM     10  C   UNL     1      -3.637  -4.948  -0.291  0.00  0.00    +0.119 C 
ATOM     11  N   UNL     1      -3.203  -6.244  -0.420  0.00  0.00    -0.253 N 
ATOM     12  N   UNL     1      -1.838  -6.247  -0.468  0.00  0.00    -0.160 NA
ATOM     13  N   UNL     1      -1.410  -4.952  -0.375  0.00  0.00    -0.259 N 
ATOM     14  H   UNL     1      -1.451  -6.813   0.272  0.00  0.00    +0.168 HD
ATOM     15  H   UNL     1      -0.488  -4.649  -0.386  0.00  0.00    +0.168 HD
BRANCH   9  17
ATOM     16  N   UNL     1      -1.416  -1.993  -0.116  0.00  0.00    -0.310 N 
ATOM     17  C   UNL     1      -2.575  -2.682  -0.130  0.00  0.00    +0.260 C 
ATOM     18  O   UNL     1      -3.636  -2.091  -0.036  0.00  0.00    -0.269 OA
ATOM     19  H   UNL     1      -0.572  -2.463  -0.190  0.00  0.00    +0.149 HD
BRANCH  16  20
ATOM     20  C   UNL     1      -1.433  -0.534   0.013  0.00  0.00    +0.107 C 
BRANCH  20  22
ATOM     21  C   UNL     1      -0.019   1.526   0.010  0.00  0.00    +0.009 C 
ATOM     22  C   UNL     1       0.002  -0.004   0.002  0.00  0.00    -0.000 C 
ATOM     23  C   UNL     1       0.742  -0.511   1.242  0.00  0.00    +0.009 C 
ENDBRANCH  20  22
ENDBRANCH  16  20
ENDBRANCH   9  17
ENDBRANCH   1  11
BRANCH   7  24
ATOM     24  C   UNL     1      -4.036 -12.364   0.381  0.00  0.00    +0.129 C 
BRANCH  24  25
ATOM     25  C   UNL     1      -3.725 -13.780  -0.031  0.00  0.00    -0.033 C 
ATOM     26  C   UNL     1      -2.499 -14.334  -0.175  0.00  0.00    -0.001 A 
ATOM     27  C   UNL     1      -1.142 -13.805   0.002  0.00  0.00    +0.010 A 
ATOM     28  C   UNL     1      -0.086 -14.620  -0.222  0.00  0.00    +0.001 A 
ATOM     29  C   UNL     1      -0.255 -15.954  -0.619  0.00  0.00    +0.002 A 
ATOM     30  C   UNL     1      -1.471 -16.511  -0.801  0.00  0.00    +0.026 A 
ATOM     31  C   UNL     1      -2.651 -15.746  -0.593  0.00  0.00    +0.043 A 
ATOM     32  N   UNL     1      -3.921 -16.052  -0.704  0.00  0.00    -0.380 N 
ATOM     33  C   UNL     1      -4.719 -14.870  -0.362  0.00  0.00    +0.145 C 
ATOM     34  H   UNL     1      -4.274 -16.918  -0.964  0.00  0.00    +0.160 HD
ENDBRANCH  24  25
ENDBRANCH   7  24
TORSDOF 6
