REMARK  Name = ZINC38034410
REMARK  5 active torsions:
REMARK  status: ('A' for Active; 'I' for Inactive)
REMARK    1  A    between atoms: C_1  and  C_2
REMARK    2  A    between atoms: C_4  and  C_7
REMARK    3  A    between atoms: C_7  and  N_8
REMARK    4  A    between atoms: N_8  and  C_9
REMARK    5  A    between atoms: C_17  and  O_19
REMARK                            x       y       z     vdW  Elec       q    Type
REMARK                         _______ _______ _______ _____ _____    ______ ____
ROOT
ATOM      1  C   UNL     1       1.438  -4.710  -2.935  0.00  0.00    +0.001 C 
ATOM      2  C   UNL     1       0.918  -4.296  -4.332  0.00  0.00    +0.218 C 
ATOM      3  O   UNL     1       2.125  -3.947  -5.031  0.00  0.00    -0.493 OA
ATOM      4  C   UNL     1       3.167  -4.650  -4.508  0.00  0.00    +0.126 A 
ATOM      5  C   UNL     1       2.858  -5.143  -3.245  0.00  0.00    -0.016 A 
ATOM      6  C   UNL     1       3.777  -5.876  -2.526  0.00  0.00    +0.009 A 
ATOM      7  C   UNL     1       5.026  -6.136  -3.062  0.00  0.00    +0.046 A 
ATOM      8  C   UNL     1       5.346  -5.657  -4.324  0.00  0.00    +0.120 A 
ATOM      9  C   UNL     1       4.422  -4.917  -5.046  0.00  0.00    +0.091 A 
ENDROOT
BRANCH   1  10
ATOM     10  N   UNL     1       1.426  -3.568  -2.011  0.00  0.00    +0.392 N 
ATOM     11  H   UNL     1       1.889  -2.782  -2.443  0.00  0.00    -0.084 HD
ATOM     12  H   UNL     1       1.909  -3.818  -1.162  0.00  0.00    -0.084 HD
BRANCH  10  13
ATOM     13  C   UNL     1       0.038  -3.206  -1.697  0.00  0.00    +0.019 C 
BRANCH  13  17
ATOM     14  C   UNL     1      -0.018   1.503   0.010  0.00  0.00    +0.091 C 
ATOM     15  C   UNL     1       0.002  -0.004   0.002  0.00  0.00    +0.169 A 
ATOM     16  N   UNL     1       0.008  -0.776  -1.091  0.00  0.00    -0.198 NA
ATOM     17  C   UNL     1       0.026  -2.034  -0.750  0.00  0.00    +0.210 A 
ATOM     18  O   UNL     1       0.033  -2.107   0.587  0.00  0.00    -0.340 OA
ATOM     19  N   UNL     1       0.023  -0.767   1.057  0.00  0.00    -0.062 NA
ENDBRANCH  13  17
ENDBRANCH  10  13
ENDBRANCH   1  10
BRANCH   8  20
ATOM     20  O   UNL     1       6.570  -5.913  -4.855  0.00  0.00    -0.507 OA
ATOM     21  H   UNL     1       6.612  -6.731  -5.370  0.00  0.00    +0.292 HD
ENDBRANCH   8  20
TORSDOF 4
