REMARK  Name = ZINC36320080
REMARK  6 active torsions:
REMARK  status: ('A' for Active; 'I' for Inactive)
REMARK    1  A    between atoms: C_3  and  N_20
REMARK    2  A    between atoms: C_4  and  S_10
REMARK    3  A    between atoms: C_6  and  N_7
REMARK    4  A    between atoms: S_10  and  N_13
REMARK    5  A    between atoms: N_13  and  C_14
REMARK    6  A    between atoms: N_20  and  N_21
REMARK                            x       y       z     vdW  Elec       q    Type
REMARK                         _______ _______ _______ _____ _____    ______ ____
ROOT
ATOM      1  C   UNL     1      -0.240   1.466  -0.253  0.00  0.00    +0.034 A 
ATOM      2  C   UNL     1       0.141   0.598  -1.256  0.00  0.00    +0.028 A 
ATOM      3  C   UNL     1       1.343  -0.092  -1.156  0.00  0.00    +0.068 A 
ATOM      4  C   UNL     1       2.156   0.094  -0.045  0.00  0.00    +0.129 A 
ATOM      5  C   UNL     1       1.769   0.964   0.955  0.00  0.00    +0.063 A 
ATOM      6  C   UNL     1       0.572   1.649   0.851  0.00  0.00    +0.128 A 
ENDROOT
BRANCH   6   7
ATOM      7  N   UNL     1       0.160   2.581   1.925  0.00  0.00    +0.056 N 
ATOM      8  O   UNL     1      -0.886   3.181   1.836  0.00  0.00    -0.126 OA
ATOM      9  O   UNL     1       0.869   2.742   2.891  0.00  0.00    -0.126 OA
ENDBRANCH   6   7
BRANCH   4  10
ATOM     10  S   UNL     1       3.681  -0.779   0.087  0.00  0.00    +0.061 S 
ATOM     11  O   UNL     1       4.295  -0.344   1.293  0.00  0.00    -0.153 OA
ATOM     12  O   UNL     1       3.389  -2.147  -0.169  0.00  0.00    -0.153 OA
BRANCH  10  13
ATOM     13  N   UNL     1       4.651  -0.262  -1.151  0.00  0.00    -0.187 NA
ATOM     14  H   UNL     1       4.918  -0.881  -1.849  0.00  0.00    +0.148 HD
BRANCH  13  15
ATOM     15  C   UNL     1       5.105   1.130  -1.194  0.00  0.00    +0.081 C 
ATOM     16  C   UNL     1       6.499   1.233  -0.566  0.00  0.00    +0.048 C 
ATOM     17  C   UNL     1       6.998   2.675  -0.685  0.00  0.00    +0.161 C 
ATOM     18  O   UNL     1       7.011   3.061  -2.061  0.00  0.00    -0.380 OA
ATOM     19  C   UNL     1       5.728   3.029  -2.688  0.00  0.00    +0.161 C 
ATOM     20  C   UNL     1       5.177   1.601  -2.649  0.00  0.00    +0.048 C 
ENDBRANCH  13  15
ENDBRANCH  10  13
ENDBRANCH   4  10
BRANCH   3  21
ATOM     21  N   UNL     1       1.731  -0.972  -2.169  0.00  0.00    -0.281 N 
ATOM     22  H   UNL     1       2.603  -1.395  -2.135  0.00  0.00    +0.166 HD
BRANCH  21  23
ATOM     23  N   UNL     1       0.884  -1.235  -3.207  0.00  0.00    -0.256 NA
ATOM     24  H   UNL     1       1.300  -1.885  -3.858  0.00  0.00    +0.140 HD
ATOM     25  H   UNL     1      -0.004  -1.578  -2.871  0.00  0.00    +0.140 HD
ENDBRANCH  21  23
ENDBRANCH   3  21
TORSDOF 6
