REMARK  Name = ZINC13192242
REMARK  7 active torsions:
REMARK  status: ('A' for Active; 'I' for Inactive)
REMARK    1  A    between atoms: C_1  and  C_2
REMARK    2  A    between atoms: C_2  and  C_4
REMARK    3  A    between atoms: C_2  and  N_11
REMARK    4  A    between atoms: N_11  and  C_12
REMARK    5  A    between atoms: C_15  and  S_20
REMARK    6  A    between atoms: C_17  and  C_18
REMARK    7  A    between atoms: S_20  and  N_23
REMARK                            x       y       z     vdW  Elec       q    Type
REMARK                         _______ _______ _______ _____ _____    ______ ____
ROOT
ATOM      1  C   UNL     1      -2.411   2.597   3.679  0.00  0.00    +0.042 A 
ATOM      2  C   UNL     1      -1.496   3.520   3.187  0.00  0.00    +0.025 A 
ATOM      3  C   UNL     1      -0.727   3.210   2.085  0.00  0.00    +0.030 A 
ATOM      4  C   UNL     1      -0.866   1.984   1.454  0.00  0.00    +0.106 A 
ATOM      5  C   UNL     1      -1.767   1.056   1.926  0.00  0.00    +0.045 A 
ATOM      6  C   UNL     1      -2.551   1.352   3.045  0.00  0.00    +0.086 A 
ENDROOT
BRANCH   6   7
ATOM      7  C   UNL     1      -3.516   0.364   3.557  0.00  0.00    +0.388 C 
ATOM      8  O   UNL     1      -4.119   0.582   4.589  0.00  0.00    -0.241 OA
ATOM      9  O   UNL     1      -3.732  -0.780   2.879  0.00  0.00    -0.241 OA
ENDBRANCH   6   7
BRANCH   4  10
ATOM     10  S   UNL     1       0.121   1.608   0.043  0.00  0.00    +0.061 S 
ATOM     11  O   UNL     1       0.198   0.191  -0.032  0.00  0.00    -0.153 OA
ATOM     12  O   UNL     1       1.277   2.430   0.126  0.00  0.00    -0.153 OA
BRANCH  10  13
ATOM     13  N   UNL     1      -0.722   2.108  -1.291  0.00  0.00    -0.172 NA
ATOM     14  C   UNL     1      -1.649   1.201  -1.986  0.00  0.00    +0.137 C 
ATOM     15  C   UNL     1      -2.992   1.928  -2.158  0.00  0.00    +0.177 C 
ATOM     16  O   UNL     1      -2.763   3.196  -2.777  0.00  0.00    -0.377 OA
ATOM     17  C   UNL     1      -1.953   4.086  -2.005  0.00  0.00    +0.177 C 
ATOM     18  C   UNL     1      -0.560   3.471  -1.822  0.00  0.00    +0.137 C 
ENDBRANCH  10  13
ENDBRANCH   4  10
BRANCH   1  19
ATOM     19  N   UNL     1      -3.183   2.904   4.792  0.00  0.00    -0.337 N 
ATOM     20  H   UNL     1      -3.763   2.231   5.180  0.00  0.00    +0.147 HD
BRANCH  19  22
ATOM     21  C   UNL     1      -4.084   5.173   4.637  0.00  0.00    +0.033 C 
ATOM     22  C   UNL     1      -3.120   4.245   5.379  0.00  0.00    +0.098 C 
BRANCH  22  23
ATOM     23  C   UNL     1      -3.510   4.175   6.833  0.00  0.00    -0.028 A 
ATOM     24  C   UNL     1      -4.553   3.360   7.231  0.00  0.00    +0.006 A 
ATOM     25  C   UNL     1      -4.908   3.292   8.565  0.00  0.00    +0.015 A 
ATOM     26  C   UNL     1      -4.225   4.047   9.501  0.00  0.00    +0.018 A 
ATOM     27  C   UNL     1      -3.184   4.866   9.102  0.00  0.00    +0.015 A 
ATOM     28  C   UNL     1      -2.827   4.930   7.769  0.00  0.00    +0.006 A 
ATOM     29 BR   UNL     1      -4.714   3.960  11.326  0.00  0.00    -0.050 Br
ENDBRANCH  22  23
ENDBRANCH  19  22
ENDBRANCH   1  19
TORSDOF 6
