REMARK  Name = ZINC64655770
REMARK  3 active torsions:
REMARK  status: ('A' for Active; 'I' for Inactive)
REMARK    1  A    between atoms: C_6  and  C_7
REMARK    2  A    between atoms: N_9  and  C_10
REMARK    3  A    between atoms: C_17  and  C_22
REMARK                            x       y       z     vdW  Elec       q    Type
REMARK                         _______ _______ _______ _____ _____    ______ ____
ROOT
ATOM      1  C   UNL     1      -3.707  -0.898   0.044  0.00  0.00    +0.105 C 
ATOM      2  C   UNL     1      -4.793  -0.049   0.702  0.00  0.00    +0.027 C 
ATOM      3  C   UNL     1      -6.142  -0.745   0.484  0.00  0.00    +0.008 C 
ATOM      4  C   UNL     1      -6.493  -0.653  -0.999  0.00  0.00    +0.054 C 
ATOM      5  C   UNL     1      -5.343  -1.129  -1.850  0.00  0.00    +0.024 A 
ATOM      6  C   UNL     1      -4.080  -1.234  -1.376  0.00  0.00    -0.007 A 
ATOM      7  C   UNL     1      -3.051  -1.671  -2.222  0.00  0.00    +0.025 A 
ATOM      8  C   UNL     1      -3.337  -2.000  -3.542  0.00  0.00    +0.101 A 
ATOM      9  C   UNL     1      -4.678  -1.882  -3.993  0.00  0.00    +0.261 A 
ATOM     10  O   UNL     1      -4.966  -2.165  -5.143  0.00  0.00    -0.267 OA
ATOM     11  N   UNL     1      -5.626  -1.457  -3.143  0.00  0.00    -0.325 N 
ATOM     12  H   UNL     1      -6.540  -1.381  -3.458  0.00  0.00    +0.169 HD
ENDROOT
BRANCH   8  13
ATOM     13  C   UNL     1      -2.276  -2.460  -4.450  0.00  0.00    +0.247 C 
ATOM     14  O   UNL     1      -1.116  -2.456  -4.082  0.00  0.00    -0.270 OA
ATOM     15  N   UNL     1      -2.588  -2.886  -5.690  0.00  0.00    -0.325 N 
ATOM     16  H   UNL     1      -3.501  -2.820  -6.010  0.00  0.00    +0.145 HD
ATOM     17  H   UNL     1      -1.899  -3.258  -6.263  0.00  0.00    +0.145 HD
ENDBRANCH   8  13
BRANCH   1  20
ATOM     18  C   UNL     1      -1.272  -0.818   0.032  0.00  0.00    +0.245 C 
ATOM     19  O   UNL     1      -1.261  -2.033   0.012  0.00  0.00    -0.270 OA
ATOM     20  N   UNL     1      -2.445  -0.154   0.049  0.00  0.00    -0.304 N 
ATOM     21  H   UNL     1      -2.453   0.816   0.065  0.00  0.00    +0.150 HD
BRANCH  18  27
ATOM     22  C   UNL     1      -0.006   1.327   0.059  0.00  0.00    +0.013 A 
ATOM     23  C   UNL     1       1.186   2.023   0.063  0.00  0.00    +0.007 A 
ATOM     24  C   UNL     1       2.386   1.340   0.045  0.00  0.00    -0.017 A 
ATOM     25  C   UNL     1       2.401  -0.048   0.023  0.00  0.00    -0.016 A 
ATOM     26  C   UNL     1       1.219  -0.753   0.018  0.00  0.00    +0.019 A 
ATOM     27  C   UNL     1       0.002  -0.068   0.037  0.00  0.00    +0.037 A 
ATOM     28  C   UNL     1       3.849  -0.480   0.008  0.00  0.00    +0.195 C 
ATOM     29  O   UNL     1       4.603   0.677  -0.399  0.00  0.00    -0.371 OA
ATOM     30  C   UNL     1       3.825   1.803   0.045  0.00  0.00    +0.195 C 
ENDBRANCH  18  27
ENDBRANCH   1  20
TORSDOF 3
