REMARK  Name = ZINC39609361
REMARK  12 active torsions:
REMARK  status: ('A' for Active; 'I' for Inactive)
REMARK    1  A    between atoms: C_1  and  C_2
REMARK    2  A    between atoms: C_5  and  C_9
REMARK    3  A    between atoms: C_7  and  C_8
REMARK    4  A    between atoms: C_9  and  C_10
REMARK    5  A    between atoms: C_10  and  N_11
REMARK    6  A    between atoms: C_12  and  C_14
REMARK    7  A    between atoms: C_25  and  C_27
REMARK    8  A    between atoms: C_27  and  C_29
REMARK    9  A    between atoms: C_27  and  O_32
REMARK   10  A    between atoms: C_29  and  C_30
REMARK   11  A    between atoms: C_29  and  C_31
REMARK   12  A    between atoms: O_32  and  C_33
REMARK                            x       y       z     vdW  Elec       q    Type
REMARK                         _______ _______ _______ _____ _____    ______ ____
ROOT
ATOM      1  C   UNL     1       1.544  -8.828  -0.032  0.00  0.00    +0.100 C 
ATOM      2  C   UNL     1       1.130  -9.171  -1.480  0.00  0.00    +0.121 C 
ATOM      3  N   UNL     1       2.410  -9.387  -2.195  0.00  0.00    -0.297 N 
ATOM      4  C   UNL     1       3.260 -10.110  -1.219  0.00  0.00    +0.115 C 
ATOM      5  C   UNL     1       2.941  -9.449   0.137  0.00  0.00    -0.004 C 
ATOM      6  C   UNL     1       2.922 -10.498   1.245  0.00  0.00    -0.010 C 
ATOM      7  C   UNL     1       4.335 -11.059   1.434  0.00  0.00    -0.082 C 
ATOM      8  N   UNL     1       5.254  -9.969   1.780  0.00  0.00    +0.379 N 
ATOM      9  C   UNL     1       5.337  -9.012   0.670  0.00  0.00    -0.082 C 
ATOM     10  C   UNL     1       3.967  -8.364   0.449  0.00  0.00    -0.010 C 
ATOM     11  C   UNL     1       2.730  -9.011  -3.449  0.00  0.00    +0.257 C 
ATOM     12  O   UNL     1       3.796  -9.336  -3.927  0.00  0.00    -0.272 OA
ATOM     13  H   UNL     1       4.918  -9.496   2.606  0.00  0.00    -0.086 HD
ATOM     14  H   UNL     1       6.171 -10.349   1.964  0.00  0.00    -0.086 HD
ENDROOT
BRANCH   1  16
ATOM     15  N   UNL     1       1.112  -6.774   1.277  0.00  0.00    -0.315 N 
ATOM     16  C   UNL     1       1.608  -7.334   0.156  0.00  0.00    +0.218 C 
ATOM     17  O   UNL     1       2.106  -6.636  -0.702  0.00  0.00    -0.275 OA
ATOM     18  H   UNL     1       0.714  -7.333   1.963  0.00  0.00    +0.149 HD
BRANCH  15  19
ATOM     19  C   UNL     1       1.174  -5.322   1.459  0.00  0.00    +0.109 C 
BRANCH  19  20
ATOM     20  C   UNL     1       0.547  -4.950   2.804  0.00  0.00    +0.054 C 
BRANCH  20  25
ATOM     21  C   UNL     1       0.790   0.779   3.526  0.00  0.00    +0.044 C 
ATOM     22  C   UNL     1       0.727  -0.715   3.338  0.00  0.00    -0.048 A 
ATOM     23  C   UNL     1      -0.370  -1.288   2.722  0.00  0.00    +0.004 A 
ATOM     24  C   UNL     1      -0.428  -2.658   2.549  0.00  0.00    +0.004 A 
ATOM     25  C   UNL     1       0.611  -3.456   2.992  0.00  0.00    -0.046 A 
ATOM     26  C   UNL     1       1.708  -2.883   3.607  0.00  0.00    +0.007 A 
ATOM     27  C   UNL     1       1.768  -1.512   3.776  0.00  0.00    -0.047 A 
ATOM     28  C   UNL     1       2.966  -0.886   4.442  0.00  0.00    +0.044 C 
ENDBRANCH  20  25
ENDBRANCH  19  20
ENDBRANCH  15  19
ENDBRANCH   1  16
BRANCH  11  29
ATOM     29  C   UNL     1       1.763  -8.185  -4.258  0.00  0.00    +0.261 C 
BRANCH  29  30
ATOM     30  C   UNL     1       2.383  -6.818  -4.554  0.00  0.00    +0.033 C 
ATOM     31  C   UNL     1       1.431  -6.007  -5.436  0.00  0.00    +0.011 C 
ATOM     32  C   UNL     1       2.623  -6.071  -3.241  0.00  0.00    +0.011 C 
ENDBRANCH  29  30
BRANCH  29  33
ATOM     33  O   UNL     1       1.476  -8.855  -5.487  0.00  0.00    -0.479 OA
BRANCH  33  34
ATOM     34  C   UNL     1       0.203  -8.770  -5.954  0.00  0.00    +0.122 A 
ATOM     35  C   UNL     1      -0.139  -9.377  -7.153  0.00  0.00    +0.045 A 
ATOM     36  C   UNL     1      -1.435  -9.290  -7.626  0.00  0.00    +0.004 A 
ATOM     37  C   UNL     1      -2.389  -8.598  -6.904  0.00  0.00    +0.000 A 
ATOM     38  C   UNL     1      -2.051  -7.992  -5.708  0.00  0.00    +0.004 A 
ATOM     39  C   UNL     1      -0.758  -8.081  -5.229  0.00  0.00    +0.045 A 
ENDBRANCH  33  34
ENDBRANCH  29  33
ENDBRANCH  11  29
TORSDOF 8
