REMARK  Name = ZINC54071719
REMARK  8 active torsions:
REMARK  status: ('A' for Active; 'I' for Inactive)
REMARK    1  A    between atoms: C_1  and  C_2
REMARK    2  A    between atoms: C_2  and  C_4
REMARK    3  A    between atoms: C_2  and  N_14
REMARK    4  A    between atoms: N_17  and  N_18
REMARK    5  A    between atoms: C_19  and  C_21
REMARK    6  A    between atoms: C_21  and  O_22
REMARK    7  A    between atoms: O_22  and  C_23
REMARK    8  A    between atoms: C_28  and  C_29
REMARK                            x       y       z     vdW  Elec       q    Type
REMARK                         _______ _______ _______ _____ _____    ______ ____
ROOT
ATOM      1  N   UNL     1       0.711  -0.489   1.189  0.00  0.00    -0.292 N 
ATOM      2  C   UNL     1       2.054  -0.600   1.174  0.00  0.00    +0.316 C 
ATOM      3  O   UNL     1       2.677  -0.297   0.175  0.00  0.00    -0.251 OA
ATOM      4  N   UNL     1       2.706  -1.046   2.266  0.00  0.00    -0.218 N 
ATOM      5  H   UNL     1       0.213  -0.731   1.986  0.00  0.00    +0.151 HD
ATOM      6  H   UNL     1       3.672  -1.126   2.255  0.00  0.00    +0.174 HD
ENDROOT
BRANCH   4   7
ATOM      7  N   UNL     1       1.987  -1.396   3.416  0.00  0.00    -0.230 N 
ATOM      8  C   UNL     1       2.639  -1.842   4.508  0.00  0.00    +0.267 C 
ATOM      9  O   UNL     1       3.848  -1.941   4.495  0.00  0.00    -0.271 OA
ATOM     10  H   UNL     1       1.020  -1.316   3.427  0.00  0.00    +0.173 HD
BRANCH   8  11
ATOM     11  C   UNL     1       1.866  -2.218   5.746  0.00  0.00    +0.326 C 
BRANCH  11  12
ATOM     12  O   UNL     1       2.773  -2.658   6.759  0.00  0.00    -0.481 OA
BRANCH  12  13
ATOM     13  C   UNL     1       2.235  -3.036   7.946  0.00  0.00    +0.138 A 
ATOM     14  C   UNL     1       0.862  -2.991   8.134  0.00  0.00    +0.047 A 
ATOM     15  C   UNL     1       0.316  -3.376   9.343  0.00  0.00    +0.004 A 
ATOM     16  C   UNL     1       1.132  -3.809  10.374  0.00  0.00    +0.001 A 
ATOM     17  C   UNL     1       2.499  -3.860  10.205  0.00  0.00    +0.022 A 
ATOM     18  C   UNL     1       3.064  -3.479   8.986  0.00  0.00    +0.093 A 
BRANCH  18  19
ATOM     19  C   UNL     1       4.483  -3.535   8.801  0.00  0.00    +0.103 C 
ATOM     20  N   UNL     1       5.609  -3.580   8.654  0.00  0.00    -0.191 NA
ENDBRANCH  18  19
ENDBRANCH  12  13
ENDBRANCH  11  12
ENDBRANCH   8  11
ENDBRANCH   4   7
BRANCH   1  22
ATOM     21  C   UNL     1      -0.019   1.526   0.010  0.00  0.00    +0.033 C 
ATOM     22  C   UNL     1       0.002  -0.004   0.002  0.00  0.00    +0.102 C 
BRANCH  22  23
ATOM     23  C   UNL     1      -1.412  -0.526   0.013  0.00  0.00    -0.027 A 
ATOM     24  C   UNL     1      -2.125  -0.572   1.196  0.00  0.00    +0.006 A 
ATOM     25  C   UNL     1      -3.418  -1.054   1.198  0.00  0.00    +0.004 A 
ATOM     26  C   UNL     1      -4.010  -1.491   0.021  0.00  0.00    -0.044 A 
ATOM     27  C   UNL     1      -3.301  -1.440  -1.159  0.00  0.00    -0.044 A 
ATOM     28  C   UNL     1      -2.001  -0.953  -1.159  0.00  0.00    +0.009 A 
ATOM     29  C   UNL     1      -3.885  -1.883  -2.475  0.00  0.00    +0.035 C 
ATOM     30  C   UNL     1      -5.113  -2.762  -2.249  0.00  0.00    +0.005 C 
ATOM     31  C   UNL     1      -6.061  -2.033  -1.290  0.00  0.00    +0.005 C 
ATOM     32  C   UNL     1      -5.421  -2.012   0.097  0.00  0.00    +0.035 C 
ENDBRANCH  22  23
ENDBRANCH   1  22
TORSDOF 7
