REMARK  Name = ZINC01578024
REMARK  5 active torsions:
REMARK  status: ('A' for Active; 'I' for Inactive)
REMARK    1  A    between atoms: C_1  and  C_7
REMARK    2  A    between atoms: C_2  and  C_3
REMARK    3  A    between atoms: C_2  and  C_5
REMARK    4  A    between atoms: C_7  and  C_8
REMARK    5  A    between atoms: C_7  and  C_10
REMARK                            x       y       z     vdW  Elec       q    Type
REMARK                         _______ _______ _______ _____ _____    ______ ____
ROOT
ATOM      1  C   UNL     1      -0.723   1.954   1.250  0.00  0.00    +0.036 C 
ATOM      2  C   UNL     1      -1.830   2.714   1.141  0.00  0.00    +0.126 C 
ENDROOT
BRANCH   2   3
ATOM      3  C   UNL     1      -2.336   3.060  -0.153  0.00  0.00    +0.110 C 
ATOM      4  N   UNL     1      -2.738   3.335  -1.179  0.00  0.00    -0.190 NA
ENDBRANCH   2   3
BRANCH   2   5
ATOM      5  C   UNL     1      -2.500   3.175   2.319  0.00  0.00    +0.110 C 
ATOM      6  N   UNL     1      -3.032   3.542   3.254  0.00  0.00    -0.190 NA
ENDBRANCH   2   5
BRANCH   1   7
ATOM      7  C   UNL     1      -0.018   1.468   0.010  0.00  0.00    +0.218 C 
BRANCH   7   8
ATOM      8  C   UNL     1       0.002  -0.004   0.002  0.00  0.00    +0.085 C 
ATOM      9  N   UNL     1       0.018  -1.140  -0.004  0.00  0.00    -0.195 NA
ENDBRANCH   7   8
BRANCH   7  10
ATOM     10  C   UNL     1       1.363   1.977  -0.000  0.00  0.00    +0.085 C 
ATOM     11  N   UNL     1       2.429   2.370  -0.008  0.00  0.00    -0.195 NA
ENDBRANCH   7  10
ENDBRANCH   1   7
TORSDOF 5
