REMARK  Name = ZINC41067327
REMARK  9 active torsions:
REMARK  status: ('A' for Active; 'I' for Inactive)
REMARK    1  A    between atoms: C_1  and  C_2
REMARK    2  A    between atoms: C_2  and  C_3
REMARK    3  A    between atoms: C_3  and  C_4
REMARK    4  A    between atoms: C_5  and  N_20
REMARK    5  A    between atoms: N_8  and  C_13
REMARK    6  A    between atoms: N_9  and  C_10
REMARK    7  A    between atoms: C_10  and  C_11
REMARK    8  A    between atoms: C_11  and  C_12
REMARK    9  A    between atoms: C_18  and  C_19
REMARK                            x       y       z     vdW  Elec       q    Type
REMARK                         _______ _______ _______ _____ _____    ______ ____
ROOT
ATOM      1  C   UNL     1      -1.413  -2.041   0.005  0.00  0.00    +0.062 A 
ATOM      2  C   UNL     1      -1.493  -2.838   1.091  0.00  0.00    +0.113 A 
ATOM      3  C   UNL     1      -1.439  -4.186   0.651  0.00  0.00    +0.293 A 
ATOM      4  O   UNL     1      -1.486  -5.175   1.360  0.00  0.00    -0.264 OA
ATOM      5  N   UNL     1      -1.328  -4.175  -0.693  0.00  0.00    -0.215 N 
ATOM      6  N   UNL     1      -1.315  -2.838  -1.110  0.00  0.00    -0.279 N 
ENDROOT
BRANCH   5   7
ATOM      7  C   UNL     1      -1.244  -5.298  -1.522  0.00  0.00    +0.070 A 
ATOM      8  C   UNL     1      -2.402  -5.932  -1.955  0.00  0.00    +0.028 A 
ATOM      9  C   UNL     1      -2.316  -7.040  -2.773  0.00  0.00    +0.002 A 
ATOM     10  C   UNL     1      -1.078  -7.520  -3.162  0.00  0.00    +0.000 A 
ATOM     11  C   UNL     1       0.076  -6.893  -2.732  0.00  0.00    +0.005 A 
ATOM     12  C   UNL     1      -0.003  -5.779  -1.918  0.00  0.00    -0.025 A 
ATOM     13  C   UNL     1       1.256  -5.091  -1.456  0.00  0.00    +0.046 C 
ENDBRANCH   5   7
BRANCH   2  14
ATOM     14  N   UNL     1      -1.609  -2.407   2.429  0.00  0.00    -0.352 N 
ATOM     15  H   UNL     1      -1.638  -1.459   2.632  0.00  0.00    +0.143 HD
ATOM     16  H   UNL     1      -1.660  -3.058   3.146  0.00  0.00    +0.143 HD
ENDBRANCH   2  14
BRANCH   1  17
ATOM     17  C   UNL     1      -1.433  -0.534   0.013  0.00  0.00    +0.057 C 
BRANCH  17  19
ATOM     18  C   UNL     1      -0.019   1.526   0.010  0.00  0.00    +0.004 C 
ATOM     19  C   UNL     1       0.002  -0.004   0.002  0.00  0.00    +0.003 C 
ENDBRANCH  17  19
ENDBRANCH   1  17
BRANCH   6  20
ATOM     20  C   UNL     1      -1.214  -2.370  -2.495  0.00  0.00    +0.142 C 
BRANCH  20  21
ATOM     21  C   UNL     1       0.259  -2.189  -2.865  0.00  0.00    +0.020 C 
ATOM     22  C   UNL     1       0.365  -1.701  -4.311  0.00  0.00    +0.005 C 
ENDBRANCH  20  21
ENDBRANCH   6  20
TORSDOF 6
