REMARK  Name = ZINC66740482
REMARK  4 active torsions:
REMARK  status: ('A' for Active; 'I' for Inactive)
REMARK    1  A    between atoms: C_1  and  C_2
REMARK    2  A    between atoms: C_11  and  C_14
REMARK    3  A    between atoms: C_19  and  O_20
REMARK    4  A    between atoms: O_20  and  C_21
REMARK                            x       y       z     vdW  Elec       q    Type
REMARK                         _______ _______ _______ _____ _____    ______ ____
ROOT
ATOM      1  C   UNL     1      -0.018   1.503   0.010  0.00  0.00    +0.067 C 
ATOM      2  C   UNL     1       0.002  -0.004   0.002  0.00  0.00    +0.055 A 
ATOM      3  C   UNL     1       0.008  -0.795  -1.075  0.00  0.00    +0.082 A 
ATOM      4  C   UNL     1       0.036  -2.138  -0.574  0.00  0.00    +0.168 A 
ATOM      5  N   UNL     1       0.036  -2.062   0.724  0.00  0.00    -0.167 NA
ATOM      6  N   UNL     1       0.024  -0.824   1.094  0.00  0.00    -0.279 N 
ATOM      7  H   UNL     1       0.027  -0.521   2.015  0.00  0.00    +0.189 HD
ATOM      8  C   UNL     1       0.065  -3.267  -1.523  0.00  0.00    +0.268 C 
ATOM      9  O   UNL     1       0.262  -4.408  -1.151  0.00  0.00    -0.268 OA
ATOM     10  N   UNL     1      -0.138  -2.973  -2.829  0.00  0.00    -0.288 N 
ATOM     11  C   UNL     1      -0.547  -1.654  -3.298  0.00  0.00    +0.193 C 
ATOM     12  N   UNL     1      -0.010  -0.572  -2.459  0.00  0.00    -0.319 N 
ATOM     13  H   UNL     1      -0.004  -3.674  -3.486  0.00  0.00    +0.151 HD
ATOM     14  H   UNL     1       0.316   0.257  -2.844  0.00  0.00    +0.148 HD
ENDROOT
BRANCH  11  15
ATOM     15  C   UNL     1      -2.052  -1.577  -3.288  0.00  0.00    +0.033 A 
ATOM     16  C   UNL     1      -2.681  -0.386  -2.979  0.00  0.00    +0.026 A 
ATOM     17  C   UNL     1      -4.062  -0.315  -2.970  0.00  0.00    +0.018 A 
ATOM     18  C   UNL     1      -4.817  -1.436  -3.268  0.00  0.00    +0.019 A 
ATOM     19  C   UNL     1      -4.192  -2.628  -3.578  0.00  0.00    +0.047 A 
ATOM     20  C   UNL     1      -2.807  -2.700  -3.593  0.00  0.00    +0.133 A 
ATOM     21 BR   UNL     1      -4.921   1.316  -2.547  0.00  0.00    -0.050 Br
BRANCH  20  22
ATOM     22  O   UNL     1      -2.190  -3.871  -3.902  0.00  0.00    -0.434 OA
BRANCH  22  23
ATOM     23  C   UNL     1      -3.030  -4.987  -4.206  0.00  0.00    +0.541 C 
ATOM     24  F   UNL     1      -3.845  -5.270  -3.105  0.00  0.00    -0.166 F 
ATOM     25  F   UNL     1      -3.829  -4.680  -5.312  0.00  0.00    -0.166 F 
ENDBRANCH  22  23
ENDBRANCH  20  22
ENDBRANCH  11  15
TORSDOF 3
