REMARK  Name = ZINC66143041
REMARK  7 active torsions:
REMARK  status: ('A' for Active; 'I' for Inactive)
REMARK    1  A    between atoms: C_1  and  C_2
REMARK    2  A    between atoms: N_4  and  C_5
REMARK    3  A    between atoms: C_8  and  O_25
REMARK    4  A    between atoms: C_9  and  C_11
REMARK    5  A    between atoms: C_17  and  C_20
REMARK    6  A    between atoms: C_20  and  C_21
REMARK    7  A    between atoms: C_21  and  C_22
REMARK                            x       y       z     vdW  Elec       q    Type
REMARK                         _______ _______ _______ _____ _____    ______ ____
ROOT
ATOM      1  C   UNL     1      -3.855  -4.643  -0.030  0.00  0.00    +0.250 C 
ATOM      2  O   UNL     1      -3.932  -5.856  -0.002  0.00  0.00    -0.270 OA
ATOM      3  N   UNL     1      -4.978  -3.898  -0.082  0.00  0.00    -0.297 N 
ATOM      4  C   UNL     1      -4.905  -2.431  -0.042  0.00  0.00    +0.108 C 
ATOM      5  C   UNL     1      -5.665  -1.866  -1.246  0.00  0.00    +0.019 C 
ATOM      6  C   UNL     1      -7.090  -2.425  -1.253  0.00  0.00    +0.006 C 
ATOM      7  C   UNL     1      -7.041  -3.949  -1.384  0.00  0.00    +0.007 C 
ATOM      8  C   UNL     1      -6.296  -4.538  -0.188  0.00  0.00    +0.111 C 
ENDROOT
BRANCH   1  13
ATOM      9  C   UNL     1      -1.017  -2.387   0.958  0.00  0.00    +0.034 A 
ATOM     10  C   UNL     1      -0.046  -2.753   0.032  0.00  0.00    +0.027 A 
ATOM     11  C   UNL     1      -0.312  -3.727  -0.909  0.00  0.00    +0.048 A 
ATOM     12  C   UNL     1      -1.552  -4.349  -0.937  0.00  0.00    +0.129 A 
ATOM     13  C   UNL     1      -2.534  -3.986  -0.006  0.00  0.00    +0.080 A 
ATOM     14  C   UNL     1      -2.256  -3.003   0.946  0.00  0.00    +0.040 A 
BRANCH   9  18
ATOM     15  C   UNL     1       0.263   0.765   2.574  0.00  0.00    +0.109 C 
ATOM     16  C   UNL     1       0.035  -0.343   1.579  0.00  0.00    +0.214 C 
ATOM     17  O   UNL     1       0.546  -0.287   0.481  0.00  0.00    -0.276 OA
ATOM     18  N   UNL     1      -0.738  -1.397   1.910  0.00  0.00    -0.286 N 
ATOM     19  H   UNL     1      -1.100  -1.470   2.807  0.00  0.00    +0.155 HD
ENDBRANCH   9  18
BRANCH  12  20
ATOM     20  O   UNL     1      -1.812  -5.306  -1.863  0.00  0.00    -0.506 OA
ATOM     21  H   UNL     1      -1.589  -6.202  -1.575  0.00  0.00    +0.292 HD
ENDBRANCH  12  20
ENDBRANCH   1  13
BRANCH   7  22
ATOM     22  C   UNL     1      -8.466  -4.504  -1.425  0.00  0.00    +0.014 C 
BRANCH  22  23
ATOM     23  C   UNL     1      -8.419  -6.012  -1.681  0.00  0.00    +0.096 C 
BRANCH  23  24
ATOM     24  C   UNL     1      -9.823  -6.559  -1.722  0.00  0.00    +0.210 C 
ATOM     25  O   UNL     1     -10.768  -5.816  -1.562  0.00  0.00    -0.276 OA
ATOM     26  N   UNL     1     -10.028  -7.873  -1.936  0.00  0.00    -0.329 N 
ATOM     27  H   UNL     1      -9.272  -8.468  -2.064  0.00  0.00    +0.145 HD
ATOM     28  H   UNL     1     -10.932  -8.225  -1.962  0.00  0.00    +0.145 HD
ENDBRANCH  23  24
ENDBRANCH  22  23
ENDBRANCH   7  22
TORSDOF 6
