REMARK  Name = ZINC35375087
REMARK  9 active torsions:
REMARK  status: ('A' for Active; 'I' for Inactive)
REMARK    1  A    between atoms: C_1  and  C_2
REMARK    2  A    between atoms: C_2  and  C_3
REMARK    3  A    between atoms: C_3  and  C_5
REMARK    4  A    between atoms: C_3  and  N_6
REMARK    5  A    between atoms: C_11  and  C_30
REMARK    6  A    between atoms: C_22  and  C_29
REMARK    7  A    between atoms: C_23  and  C_28
REMARK    8  A    between atoms: C_30  and  C_31
REMARK    9  A    between atoms: C_34  and  O_37
REMARK                            x       y       z     vdW  Elec       q    Type
REMARK                         _______ _______ _______ _____ _____    ______ ____
ROOT
ATOM      1  N   UNL     1      -0.045  -0.096   2.266  0.00  0.00    -0.239 N 
ATOM      2  C   UNL     1      -1.263  -0.573   2.546  0.00  0.00    +0.227 C 
ATOM      3  O   UNL     1      -1.842  -1.431   1.914  0.00  0.00    -0.275 OA
ATOM      4  C   UNL     1      -1.806   0.122   3.774  0.00  0.00    +0.107 C 
ATOM      5  C   UNL     1      -2.992   1.021   3.364  0.00  0.00    +0.072 C 
ATOM      6  N   UNL     1      -2.748   2.314   4.057  0.00  0.00    -0.295 NA
ATOM      7  C   UNL     1      -1.288   2.503   3.966  0.00  0.00    +0.136 C 
ATOM      8  C   UNL     1      -0.663   1.100   4.166  0.00  0.00    +0.122 C 
ATOM      9  C   UNL     1       0.391   0.845   3.113  0.00  0.00    +0.228 C 
ATOM     10  O   UNL     1       1.463   1.406   3.044  0.00  0.00    -0.275 OA
ATOM     11  C   UNL     1      -0.892   3.111   2.651  0.00  0.00    +0.004 A 
ATOM     12  C   UNL     1      -1.052   2.722   1.340  0.00  0.00    +0.008 A 
ATOM     13  C   UNL     1      -0.566   3.518   0.317  0.00  0.00    +0.004 A 
ATOM     14  C   UNL     1       0.081   4.703   0.616  0.00  0.00    -0.046 A 
ATOM     15  C   UNL     1       0.245   5.096   1.928  0.00  0.00    -0.026 A 
ATOM     16  C   UNL     1      -0.242   4.301   2.963  0.00  0.00    +0.042 A 
ATOM     17  N   UNL     1      -0.202   4.481   4.347  0.00  0.00    -0.283 N 
ATOM     18  C   UNL     1      -0.795   3.469   5.009  0.00  0.00    +0.243 C 
ATOM     19  O   UNL     1      -0.909   3.358   6.211  0.00  0.00    -0.273 OA
ATOM     20  C   UNL     1       0.953   6.389   2.242  0.00  0.00    +0.046 C 
ATOM     21  C   UNL     1       0.610   5.570  -0.498  0.00  0.00    +0.044 C 
ATOM     22  H   UNL     1      -3.239   3.068   3.600  0.00  0.00    +0.124 HD
ATOM     23  H   UNL     1       0.207   5.246   4.782  0.00  0.00    +0.155 HD
ENDROOT
BRANCH   1  24
ATOM     24  C   UNL     1       0.749  -0.568   1.130  0.00  0.00    +0.081 C 
ATOM     25  C   UNL     1       1.061   0.607   0.202  0.00  0.00    +0.028 C 
BRANCH  24  27
ATOM     26  C   UNL     1       1.750  -2.433   2.457  0.00  0.00    +0.006 C 
ATOM     27  C   UNL     1       2.057  -1.177   1.639  0.00  0.00    +0.019 C 
ENDBRANCH  24  27
ENDBRANCH   1  24
BRANCH   5  28
ATOM     28  C   UNL     1      -4.313   0.406   3.830  0.00  0.00    +0.054 C 
BRANCH  28  29
ATOM     29  C   UNL     1      -5.462   1.233   3.314  0.00  0.00    -0.046 A 
ATOM     30  C   UNL     1      -5.947   2.286   4.068  0.00  0.00    +0.007 A 
ATOM     31  C   UNL     1      -7.001   3.045   3.598  0.00  0.00    +0.045 A 
ATOM     32  C   UNL     1      -7.572   2.751   2.368  0.00  0.00    +0.117 A 
ATOM     33  C   UNL     1      -7.084   1.695   1.614  0.00  0.00    +0.045 A 
ATOM     34  C   UNL     1      -6.026   0.941   2.086  0.00  0.00    +0.007 A 
BRANCH  32  35
ATOM     35  O   UNL     1      -8.610   3.497   1.904  0.00  0.00    -0.507 OA
ATOM     36  H   UNL     1      -8.339   4.259   1.374  0.00  0.00    +0.292 HD
ENDBRANCH  32  35
ENDBRANCH  28  29
ENDBRANCH   5  28
TORSDOF 5
