REMARK  Name = ZINC20757943
REMARK  7 active torsions:
REMARK  status: ('A' for Active; 'I' for Inactive)
REMARK    1  A    between atoms: C_4  and  C_7
REMARK    2  A    between atoms: C_7  and  C_8
REMARK    3  A    between atoms: C_8  and  C_10
REMARK    4  A    between atoms: C_8  and  N_24
REMARK    5  A    between atoms: N_12  and  CA_13
REMARK    6  A    between atoms: CA_13  and  C_15
REMARK    7  A    between atoms: CA_13  and  C_21
REMARK                            x       y       z     vdW  Elec       q    Type
REMARK                         _______ _______ _______ _____ _____    ______ ____
ROOT
ATOM      1  C   UNL     1      -0.729   1.579   1.267  0.00  0.00    +0.185 C 
ENDROOT
BRANCH   1   2
ATOM      2  N   UNL     1      -2.062   0.977   1.338  0.00  0.00    -0.248 N 
ATOM      3  C   UNL     1      -3.151   1.776   1.354  0.00  0.00    +0.265 A 
ATOM      4  O   UNL     1      -3.036   2.986   1.310  0.00  0.00    -0.267 OA
ATOM      5  C   UNL     1      -4.481   1.145   1.422  0.00  0.00    +0.063 A 
ATOM      6  C   UNL     1      -5.651   1.900   1.438  0.00  0.00    +0.015 A 
ATOM      7  C   UNL     1      -6.871   1.261   1.506  0.00  0.00    +0.001 A 
ATOM      8  C   UNL     1      -6.936  -0.123   1.559  0.00  0.00    +0.002 A 
ATOM      9  C   UNL     1      -5.784  -0.883   1.544  0.00  0.00    +0.026 A 
ATOM     10  C   UNL     1      -4.548  -0.259   1.476  0.00  0.00    +0.056 A 
ATOM     11  N   UNL     1      -3.366  -0.985   1.459  0.00  0.00    -0.307 N 
ATOM     12  H   UNL     1      -3.396  -2.084   1.500  0.00  0.00    +0.170 HD
ATOM     13  C   UNL     1      -2.179  -0.359   1.392  0.00  0.00    +0.330 A 
ATOM     14  O   UNL     1      -1.166  -1.033   1.379  0.00  0.00    -0.246 OA
ENDBRANCH   1   2
BRANCH   1  15
ATOM     15  C   UNL     1       0.067   1.185   2.485  0.00  0.00    +0.237 C 
ATOM     16  O   UNL     1      -0.431   0.470   3.329  0.00  0.00    -0.274 OA
ATOM     17  N   UNL     1       1.331   1.625   2.635  0.00  0.00    -0.297 N 
ATOM     18  H   UNL     1       1.783   2.273   1.870  0.00  0.00    +0.150 HD
BRANCH  17  19
ATOM     19  CA  UNL     1       2.104   1.242   3.819  0.00  0.00    +0.217 C 
BRANCH  19  20
ATOM     20  C   UNL     1       3.576   1.307   3.501  0.00  0.00    -0.016 A 
ATOM     21  C   UNL     1       4.070   2.337   2.723  0.00  0.00    +0.006 A 
ATOM     22  C   UNL     1       5.420   2.399   2.434  0.00  0.00    +0.000 A 
ATOM     23  C   UNL     1       6.275   1.425   2.916  0.00  0.00    +0.000 A 
ATOM     24  C   UNL     1       5.780   0.392   3.690  0.00  0.00    +0.000 A 
ATOM     25  C   UNL     1       4.431   0.333   3.982  0.00  0.00    +0.006 A 
ENDBRANCH  19  20
BRANCH  19  26
ATOM     26  C   UNL     1       1.793   2.187   4.951  0.00  0.00    +0.380 C 
ATOM     27  O   UNL     1       1.006   3.089   4.785  0.00  0.00    -0.244 OA
ATOM     28  OXT UNL     1       2.390   2.028   6.142  0.00  0.00    -0.244 OA
ENDBRANCH  19  26
ENDBRANCH  17  19
ENDBRANCH   1  15
BRANCH   1  29
ATOM     29  C   UNL     1      -0.013   1.086   0.008  0.00  0.00    +0.070 C 
BRANCH  29  33
ATOM     30  C   UNL     1      -2.078   2.501  -3.453  0.00  0.00    +0.000 A 
ATOM     31  C   UNL     1      -1.066   3.259  -2.894  0.00  0.00    +0.000 A 
ATOM     32  C   UNL     1      -0.398   2.801  -1.774  0.00  0.00    +0.004 A 
ATOM     33  C   UNL     1      -0.742   1.585  -1.213  0.00  0.00    -0.045 A 
ATOM     34  C   UNL     1      -1.750   0.825  -1.775  0.00  0.00    +0.004 A 
ATOM     35  C   UNL     1      -2.422   1.285  -2.892  0.00  0.00    +0.000 A 
ENDBRANCH  29  33
ENDBRANCH   1  29
TORSDOF 7
