REMARK  Name = ZINC51157054
REMARK  5 active torsions:
REMARK  status: ('A' for Active; 'I' for Inactive)
REMARK    1  A    between atoms: C_1  and  C_2
REMARK    2  A    between atoms: C_5  and  C_21
REMARK    3  A    between atoms: C_6  and  S_9
REMARK    4  A    between atoms: S_9  and  N_12
REMARK    5  A    between atoms: N_12  and  C_13
REMARK                            x       y       z     vdW  Elec       q    Type
REMARK                         _______ _______ _______ _____ _____    ______ ____
ROOT
ATOM      1  S   UNL     1      -0.595  -2.952   3.095  0.00  0.00    +0.061 S 
ATOM      2  O   UNL     1      -1.180  -2.350   4.241  0.00  0.00    -0.153 OA
ATOM      3  O   UNL     1      -1.096  -4.154   2.526  0.00  0.00    -0.153 OA
ENDROOT
BRANCH   1   9
ATOM      4  C   UNL     1      -0.160  -1.562  -1.927  0.00  0.00    +0.045 C 
ATOM      5  C   UNL     1      -0.415  -1.158  -0.497  0.00  0.00    -0.029 A 
ATOM      6  C   UNL     1      -0.672   0.165  -0.189  0.00  0.00    +0.025 A 
ATOM      7  C   UNL     1      -0.905   0.536   1.123  0.00  0.00    +0.046 A 
ATOM      8  C   UNL     1      -0.882  -0.417   2.127  0.00  0.00    -0.004 A 
ATOM      9  C   UNL     1      -0.625  -1.739   1.818  0.00  0.00    +0.128 A 
ATOM     10  C   UNL     1      -0.397  -2.111   0.505  0.00  0.00    +0.070 A 
ATOM     11 CL   UNL     1      -0.082  -3.773   0.116  0.00  0.00    -0.081 Cl
ATOM     12  C   UNL     1      -1.136  -0.013   3.556  0.00  0.00    +0.047 C 
ATOM     13 CL   UNL     1      -1.227   2.197   1.512  0.00  0.00    -0.083 Cl
ENDBRANCH   1   9
BRANCH   1  14
ATOM     14  N   UNL     1       0.995  -3.232   3.468  0.00  0.00    -0.178 NA
ATOM     15  H   UNL     1       1.374  -4.116   3.344  0.00  0.00    +0.149 HD
BRANCH  14  16
ATOM     16  C   UNL     1       1.828  -2.143   3.983  0.00  0.00    +0.162 C 
ATOM     17  C   UNL     1       2.475  -2.578   5.301  0.00  0.00    +0.031 C 
ATOM     18  C   UNL     1       3.546  -1.548   5.679  0.00  0.00    +0.021 C 
ATOM     19  C   UNL     1       4.685  -1.630   4.662  0.00  0.00    +0.104 C 
ATOM     20  N   UNL     1       4.162  -1.563   3.303  0.00  0.00    -0.314 N 
ATOM     21  C   UNL     1       2.894  -1.811   2.978  0.00  0.00    +0.232 C 
ATOM     22  O   UNL     1       2.583  -1.765   1.807  0.00  0.00    -0.274 OA
ATOM     23  H   UNL     1       4.776  -1.323   2.591  0.00  0.00    +0.149 HD
ENDBRANCH  14  16
ENDBRANCH   1  14
TORSDOF 3
