REMARK  Name = ZINC37552490
REMARK  8 active torsions:
REMARK  status: ('A' for Active; 'I' for Inactive)
REMARK    1  A    between atoms: C_1  and  C_2
REMARK    2  A    between atoms: C_5  and  S_7
REMARK    3  A    between atoms: S_7  and  N_10
REMARK    4  A    between atoms: N_10  and  C_11
REMARK    5  A    between atoms: C_14  and  C_18
REMARK    6  A    between atoms: C_15  and  C_17
REMARK    7  A    between atoms: C_19  and  C_20
REMARK    8  A    between atoms: C_20  and  O_21
REMARK                            x       y       z     vdW  Elec       q    Type
REMARK                         _______ _______ _______ _____ _____    ______ ____
ROOT
ATOM      1  C   UNL     1       2.324  -3.939  -2.364  0.00  0.00    +0.048 A 
ATOM      2  C   UNL     1       2.538  -2.584  -2.136  0.00  0.00    +0.026 A 
ATOM      3  C   UNL     1       3.504  -1.909  -2.850  0.00  0.00    +0.019 A 
ATOM      4  C   UNL     1       4.268  -2.586  -3.802  0.00  0.00    +0.028 A 
ATOM      5  C   UNL     1       4.051  -3.947  -4.028  0.00  0.00    -0.033 A 
ATOM      6  C   UNL     1       3.087  -4.618  -3.307  0.00  0.00    +0.029 A 
ATOM      7  C   UNL     1       4.874  -4.682  -5.054  0.00  0.00    +0.045 C 
ENDROOT
BRANCH   1   8
ATOM      8  N   UNL     1       1.345  -4.620  -1.640  0.00  0.00    -0.216 N 
ATOM      9  H   UNL     1       0.506  -4.859  -2.064  0.00  0.00    +0.174 HD
BRANCH   8  10
ATOM     10  S   UNL     1       1.615  -5.020  -0.056  0.00  0.00    +0.079 S 
ATOM     11  O   UNL     1       0.470  -5.739   0.383  0.00  0.00    -0.149 OA
ATOM     12  O   UNL     1       2.066  -3.838   0.591  0.00  0.00    -0.149 OA
BRANCH  10  17
ATOM     13  C   UNL     1       5.443  -9.530   0.029  0.00  0.00    +0.051 C 
ATOM     14  C   UNL     1       4.692  -8.224   0.011  0.00  0.00    -0.011 A 
ATOM     15  C   UNL     1       5.180  -6.959   0.016  0.00  0.00    +0.013 A 
ATOM     16  C   UNL     1       4.294  -5.899  -0.004  0.00  0.00    +0.037 A 
ATOM     17  C   UNL     1       2.963  -6.155  -0.027  0.00  0.00    +0.146 A 
ATOM     18  S   UNL     1       2.930  -7.940  -0.029  0.00  0.00    -0.074 S 
ENDBRANCH  10  17
ENDBRANCH   8  10
ENDBRANCH   1   8
BRANCH   4  19
ATOM     19  C   UNL     1       5.273  -1.887  -4.546  0.00  0.00    -0.064 C 
ATOM     20  C   UNL     1       6.096  -1.314  -5.156  0.00  0.00    -0.069 C 
BRANCH  20  21
ATOM     21  C   UNL     1       7.128  -0.595  -5.921  0.00  0.00    +0.244 C 
BRANCH  21  22
ATOM     22  O   UNL     1       7.767  -1.499  -6.824  0.00  0.00    -0.383 OA
ATOM     23  H   UNL     1       8.461  -1.093  -7.362  0.00  0.00    +0.211 HD
ENDBRANCH  21  22
ENDBRANCH  20  21
ENDBRANCH   4  19
TORSDOF 6
