REMARK  Name = ZINC59817473
REMARK  8 active torsions:
REMARK  status: ('A' for Active; 'I' for Inactive)
REMARK    1  A    between atoms: C_1  and  C_2
REMARK    2  A    between atoms: C_5  and  C_8
REMARK    3  A    between atoms: C_8  and  C_27
REMARK    4  A    between atoms: N_9  and  N_10
REMARK    5  A    between atoms: C_13  and  S_16
REMARK    6  A    between atoms: S_16  and  C_17
REMARK    7  A    between atoms: C_17  and  C_18
REMARK    8  A    between atoms: C_23  and  C_26
REMARK                            x       y       z     vdW  Elec       q    Type
REMARK                         _______ _______ _______ _____ _____    ______ ____
ROOT
ATOM      1  N   UNL     1       0.083  -6.292  -1.157  0.00  0.00    -0.205 N 
ATOM      2  C   UNL     1       0.086  -6.976  -2.358  0.00  0.00    +0.232 A 
ATOM      3  N   UNL     1       0.078  -6.434  -3.558  0.00  0.00    -0.186 NA
ATOM      4  C   UNL     1       0.085  -7.397  -4.486  0.00  0.00    +0.211 A 
ATOM      5  N   UNL     1       0.096  -8.565  -3.889  0.00  0.00    -0.144 NA
ATOM      6  N   UNL     1       0.103  -8.318  -2.507  0.00  0.00    -0.245 N 
ATOM      7  H   UNL     1       0.093  -6.781  -0.320  0.00  0.00    +0.177 HD
ATOM      8  H   UNL     1       0.116  -8.981  -1.799  0.00  0.00    +0.192 HD
ENDROOT
BRANCH   1  10
ATOM      9  C   UNL     1       0.061  -4.248  -0.021  0.00  0.00    +0.063 C 
ATOM     10  N   UNL     1       0.064  -4.891  -1.149  0.00  0.00    -0.184 NA
ATOM     11  C   UNL     1       0.077  -5.008   1.280  0.00  0.00    +0.068 C 
BRANCH   9  16
ATOM     12  C   UNL     1      -0.018   1.503   0.010  0.00  0.00    +0.044 C 
ATOM     13  C   UNL     1       0.002  -0.004   0.002  0.00  0.00    -0.050 A 
ATOM     14  C   UNL     1       0.006  -0.686  -1.202  0.00  0.00    +0.004 A 
ATOM     15  C   UNL     1       0.025  -2.065  -1.217  0.00  0.00    +0.010 A 
ATOM     16  C   UNL     1       0.041  -2.773  -0.013  0.00  0.00    -0.003 A 
ATOM     17  C   UNL     1       0.037  -2.078   1.198  0.00  0.00    +0.010 A 
ATOM     18  C   UNL     1       0.023  -0.699   1.198  0.00  0.00    +0.004 A 
ENDBRANCH   9  16
ENDBRANCH   1  10
BRANCH   4  19
ATOM     19  S   UNL     1       0.078  -7.138  -6.229  0.00  0.00    -0.075 S 
BRANCH  19  20
ATOM     20  C   UNL     1       0.091  -8.815  -6.922  0.00  0.00    +0.173 C 
BRANCH  20  21
ATOM     21  C   UNL     1       0.087  -8.737  -8.427  0.00  0.00    +0.229 C 
ATOM     22  O   UNL     1       0.076  -7.657  -8.978  0.00  0.00    -0.275 OA
ATOM     23  N   UNL     1       0.095  -9.868  -9.160  0.00  0.00    -0.267 N 
ATOM     24  C   UNL     1       0.091  -9.795 -10.553  0.00  0.00    +0.168 A 
ATOM     25  C   UNL     1       0.085  -8.612 -11.325  0.00  0.00    +0.091 A 
ATOM     26  C   UNL     1       0.083  -8.960 -12.624  0.00  0.00    +0.136 A 
ATOM     27  O   UNL     1       0.088 -10.300 -12.698  0.00  0.00    -0.358 OA
ATOM     28  N   UNL     1       0.099 -10.812 -11.377  0.00  0.00    -0.063 NA
ATOM     29  C   UNL     1       0.076  -8.010 -13.793  0.00  0.00    +0.089 C 
ATOM     30  H   UNL     1       0.104 -10.732  -8.719  0.00  0.00    +0.156 HD
ENDBRANCH  20  21
ENDBRANCH  19  20
ENDBRANCH   4  19
TORSDOF 5
