REMARK  Name = ZINC42737249
REMARK  9 active torsions:
REMARK  status: ('A' for Active; 'I' for Inactive)
REMARK    1  A    between atoms: C_1  and  C_2
REMARK    2  A    between atoms: C_2  and  N_3
REMARK    3  A    between atoms: N_3  and  C_4
REMARK    4  A    between atoms: N_3  and  C_9
REMARK    5  A    between atoms: C_4  and  C_5
REMARK    6  A    between atoms: C_9  and  C_11
REMARK    7  A    between atoms: C_9  and  C_12
REMARK    8  A    between atoms: N_14  and  C_15
REMARK    9  A    between atoms: C_20  and  N_21
REMARK                            x       y       z     vdW  Elec       q    Type
REMARK                         _______ _______ _______ _____ _____    ______ ____
ROOT
ATOM      1  C   UNL     1       2.774   1.524  -1.153  0.00  0.00    +0.203 C 
ATOM      2  O   UNL     1       1.883   2.347  -1.175  0.00  0.00    -0.277 OA
ATOM      3  N   UNL     1       4.059   1.920  -1.244  0.00  0.00    -0.285 N 
ATOM      4  H   UNL     1       4.768   1.259  -1.281  0.00  0.00    +0.155 HD
ENDROOT
BRANCH   3   5
ATOM      5  C   UNL     1       4.371   3.286  -1.286  0.00  0.00    +0.054 A 
ATOM      6  C   UNL     1       3.487   4.183  -1.866  0.00  0.00    +0.026 A 
ATOM      7  C   UNL     1       3.796   5.530  -1.906  0.00  0.00    +0.022 A 
ATOM      8  C   UNL     1       4.986   5.987  -1.369  0.00  0.00    +0.043 A 
ATOM      9  C   UNL     1       5.874   5.099  -0.789  0.00  0.00    +0.044 A 
ATOM     10  C   UNL     1       5.568   3.747  -0.739  0.00  0.00    +0.047 A 
ATOM     11 CL   UNL     1       5.368   7.680  -1.425  0.00  0.00    -0.083 Cl
BRANCH  10  12
ATOM     12  N   UNL     1       6.461   2.847  -0.148  0.00  0.00    -0.356 N 
ATOM     13  H   UNL     1       6.248   1.901  -0.117  0.00  0.00    +0.142 HD
ATOM     14  H   UNL     1       7.294   3.169   0.232  0.00  0.00    +0.142 HD
ENDBRANCH  10  12
ENDBRANCH   3   5
BRANCH   1  15
ATOM     15  C   UNL     1       2.444   0.059  -1.025  0.00  0.00    +0.017 C 
ATOM     16  C   UNL     1       2.304  -0.556  -2.418  0.00  0.00    -0.004 C 
BRANCH  15  17
ATOM     17  N   UNL     1       1.180  -0.095  -0.292  0.00  0.00    +0.393 N 
ATOM     18  H   UNL     1       0.456   0.435  -0.754  0.00  0.00    -0.080 HD
BRANCH  17  20
ATOM     19  C   UNL     1       2.351  -0.488   1.823  0.00  0.00    -0.017 C 
ATOM     20  C   UNL     1       1.347   0.398   1.082  0.00  0.00    -0.081 C 
ENDBRANCH  17  20
BRANCH  17  21
ATOM     21  C   UNL     1       0.802  -1.514  -0.261  0.00  0.00    +0.037 C 
BRANCH  21  22
ATOM     22  C   UNL     1      -0.601  -1.656   0.333  0.00  0.00    +0.376 C 
ATOM     23  F   UNL     1      -1.487  -0.824  -0.360  0.00  0.00    -0.173 F 
ATOM     24  F   UNL     1      -1.023  -2.985   0.220  0.00  0.00    -0.173 F 
ATOM     25  F   UNL     1      -0.575  -1.288   1.683  0.00  0.00    -0.173 F 
ENDBRANCH  21  22
ENDBRANCH  17  21
ENDBRANCH  15  17
ENDBRANCH   1  15
TORSDOF 7
