REMARK  Name = ZINC66744551
REMARK  8 active torsions:
REMARK  status: ('A' for Active; 'I' for Inactive)
REMARK    1  A    between atoms: C_1  and  C_2
REMARK    2  A    between atoms: C_2  and  C_3
REMARK    3  A    between atoms: C_2  and  C_4
REMARK    4  A    between atoms: C_2  and  N_7
REMARK    5  A    between atoms: C_4  and  O_5
REMARK    6  A    between atoms: O_5  and  C_6
REMARK    7  A    between atoms: C_8  and  C_10
REMARK    8  A    between atoms: C_13  and  N_17
REMARK                            x       y       z     vdW  Elec       q    Type
REMARK                         _______ _______ _______ _____ _____    ______ ____
ROOT
ATOM      1  N   UNL     1       0.688  -0.476  -1.203  0.00  0.00    -0.304 N 
ATOM      2  C   UNL     1       1.972  -0.132  -1.427  0.00  0.00    +0.246 C 
ATOM      3  O   UNL     1       2.560   0.570  -0.629  0.00  0.00    -0.270 OA
ATOM      4  H   UNL     1       0.218  -1.037  -1.840  0.00  0.00    +0.150 HD
ENDROOT
BRANCH   2   5
ATOM      5  C   UNL     1       2.663  -0.609  -2.643  0.00  0.00    +0.055 A 
ATOM      6  C   UNL     1       1.988  -1.411  -3.565  0.00  0.00    +0.017 A 
ATOM      7  C   UNL     1       2.639  -1.852  -4.698  0.00  0.00    +0.033 A 
ATOM      8  C   UNL     1       3.959  -1.502  -4.922  0.00  0.00    +0.128 A 
ATOM      9  C   UNL     1       4.635  -0.708  -4.014  0.00  0.00    +0.053 A 
ATOM     10  C   UNL     1       3.994  -0.254  -2.878  0.00  0.00    +0.055 A 
ATOM     11 CL   UNL     1       4.841   0.749  -1.742  0.00  0.00    -0.083 Cl
BRANCH   8  12
ATOM     12  N   UNL     1       4.651  -1.980  -6.141  0.00  0.00    +0.056 N 
ATOM     13  O   UNL     1       4.063  -2.674  -6.936  0.00  0.00    -0.126 OA
ATOM     14  O   UNL     1       5.804  -1.676  -6.340  0.00  0.00    -0.126 OA
ENDBRANCH   8  12
ENDBRANCH   2   5
BRANCH   1  16
ATOM     15  C   UNL     1      -0.019   1.526   0.010  0.00  0.00    +0.033 C 
ATOM     16  C   UNL     1       0.002  -0.004   0.002  0.00  0.00    +0.052 C 
ATOM     17  C   UNL     1       0.742  -0.511   1.242  0.00  0.00    +0.033 C 
BRANCH  16  18
ATOM     18  C   UNL     1      -1.433  -0.534   0.013  0.00  0.00    +0.184 C 
BRANCH  18  19
ATOM     19  O   UNL     1      -2.102  -0.073   1.189  0.00  0.00    -0.381 OA
ATOM     20  C   UNL     1      -3.457  -0.513   1.297  0.00  0.00    +0.194 C 
ENDBRANCH  18  19
ENDBRANCH  16  18
ENDBRANCH   1  16
TORSDOF 5
