REMARK  Name = ZINC09743762
REMARK  6 active torsions:
REMARK  status: ('A' for Active; 'I' for Inactive)
REMARK    1  A    between atoms: C_1  and  C_2
REMARK    2  A    between atoms: C_2  and  C_4
REMARK    3  A    between atoms: C_2  and  S_15
REMARK    4  A    between atoms: N_6  and  C_7
REMARK    5  A    between atoms: C_7  and  C_13
REMARK    6  A    between atoms: S_15  and  C_16
REMARK                            x       y       z     vdW  Elec       q    Type
REMARK                         _______ _______ _______ _____ _____    ______ ____
ROOT
ATOM      1  C   UNL     1       2.402   0.219   1.288  0.00  0.00    +0.029 C 
ATOM      2  C   UNL     1       1.789  -0.294  -0.017  0.00  0.00    +0.137 C 
ENDROOT
BRANCH   2   3
ATOM      3  C   UNL     1       2.056  -1.771  -0.151  0.00  0.00    +0.227 C 
ATOM      4  O   UNL     1       1.191  -2.572   0.132  0.00  0.00    -0.275 OA
ATOM      5  N   UNL     1       3.257  -2.201  -0.586  0.00  0.00    -0.296 N 
ATOM      6  H   UNL     1       3.949  -1.560  -0.812  0.00  0.00    +0.150 HD
BRANCH   5   7
ATOM      7  C   UNL     1       3.518  -3.637  -0.717  0.00  0.00    +0.121 C 
ATOM      8  C   UNL     1       3.355  -4.311   0.647  0.00  0.00    +0.041 C 
ATOM      9  C   UNL     1       3.627  -5.810   0.511  0.00  0.00    +0.003 C 
ATOM     10  C   UNL     1       5.054  -6.026   0.002  0.00  0.00    +0.000 C 
ATOM     11  C   UNL     1       5.216  -5.352  -1.362  0.00  0.00    +0.003 C 
ATOM     12  C   UNL     1       4.944  -3.853  -1.225  0.00  0.00    +0.041 C 
BRANCH   7  13
ATOM     13  C   UNL     1       2.562  -4.224  -1.671  0.00  0.00    +0.088 C 
ATOM     14  N   UNL     1       1.825  -4.677  -2.407  0.00  0.00    -0.194 NA
ENDBRANCH   7  13
ENDBRANCH   5   7
ENDBRANCH   2   3
BRANCH   2  15
ATOM     15  S   UNL     1       0.002  -0.004   0.002  0.00  0.00    -0.073 S 
BRANCH  15  16
ATOM     16  C   UNL     1      -0.022   1.758   0.012  0.00  0.00    +0.192 A 
ATOM     17  N   UNL     1      -1.188   2.394   0.021  0.00  0.00    -0.207 NA
ATOM     18  C   UNL     1      -1.268   3.713   0.034  0.00  0.00    +0.129 A 
ATOM     19  C   UNL     1      -0.072   4.484   0.026  0.00  0.00    +0.047 A 
ATOM     20  C   UNL     1       0.101   5.927   0.031  0.00  0.00    +0.021 A 
ATOM     21  C   UNL     1       1.340   6.438   0.021  0.00  0.00    +0.048 A 
ATOM     22  S   UNL     1       2.386   4.994   0.004  0.00  0.00    -0.077 S 
ATOM     23  C   UNL     1       1.129   3.743   0.011  0.00  0.00    +0.114 A 
ATOM     24  N   UNL     1       1.125   2.424   0.004  0.00  0.00    -0.215 NA
ATOM     25  N   UNL     1      -2.502   4.338   0.048  0.00  0.00    -0.343 N 
ATOM     26  H   UNL     1      -2.555   5.306   0.053  0.00  0.00    +0.144 HD
ATOM     27  H   UNL     1      -3.314   3.807   0.053  0.00  0.00    +0.144 HD
ENDBRANCH  15  16
ENDBRANCH   2  15
TORSDOF 5
