REMARK  Name = ZINC41695275
REMARK  7 active torsions:
REMARK  status: ('A' for Active; 'I' for Inactive)
REMARK    1  A    between atoms: C_1  and  N_2
REMARK    2  A    between atoms: N_2  and  C_3
REMARK    3  A    between atoms: C_3  and  C_4
REMARK    4  A    between atoms: C_7  and  O_11
REMARK    5  A    between atoms: C_9  and  O_10
REMARK    6  A    between atoms: C_12  and  C_14
REMARK    7  A    between atoms: C_17  and  C_19
REMARK                            x       y       z     vdW  Elec       q    Type
REMARK                         _______ _______ _______ _____ _____    ______ ____
ROOT
ATOM      1  C   UNL     1      -0.030   1.462   0.010  0.00  0.00    +0.133 C 
ATOM      2  N   UNL     1      -0.010  -0.003   0.003  0.00  0.00    -0.294 N 
ATOM      3  C   UNL     1      -0.102  -0.673  -1.163  0.00  0.00    +0.282 C 
ATOM      4  O   UNL     1      -0.166  -1.888  -1.164  0.00  0.00    -0.267 OA
ENDROOT
BRANCH   3   5
ATOM      5  C   UNL     1      -0.124   0.063  -2.432  0.00  0.00    +0.190 A 
ATOM      6  C   UNL     1      -0.326  -0.477  -3.670  0.00  0.00    +0.055 A 
ATOM      7  C   UNL     1      -0.267   0.583  -4.587  0.00  0.00    +0.046 A 
ATOM      8  C   UNL     1      -0.035   1.710  -3.878  0.00  0.00    +0.120 A 
ATOM      9  O   UNL     1       0.046   1.393  -2.580  0.00  0.00    -0.454 OA
BRANCH   8  10
ATOM     10  C   UNL     1       0.105   3.095  -4.454  0.00  0.00    +0.182 C 
ATOM     11 CL   UNL     1      -1.514   3.887  -4.516  0.00  0.00    -0.117 Cl
ENDBRANCH   8  10
ENDBRANCH   3   5
BRANCH   2  12
ATOM     12  C   UNL     1       0.110  -0.740   1.263  0.00  0.00    +0.146 C 
BRANCH  12  13
ATOM     13  C   UNL     1      -1.264  -1.013   1.818  0.00  0.00    +0.011 A 
ATOM     14  C   UNL     1      -1.775  -0.214   2.823  0.00  0.00    +0.012 A 
ATOM     15  C   UNL     1      -3.034  -0.461   3.334  0.00  0.00    +0.046 A 
ATOM     16  C   UNL     1      -3.790  -1.514   2.838  0.00  0.00    +0.120 A 
ATOM     17  C   UNL     1      -3.281  -2.318   1.830  0.00  0.00    +0.091 A 
ATOM     18  C   UNL     1      -2.019  -2.064   1.315  0.00  0.00    +0.125 A 
BRANCH  18  19
ATOM     19  O   UNL     1      -1.519  -2.846   0.323  0.00  0.00    -0.506 OA
ATOM     20  H   UNL     1      -1.023  -3.614   0.639  0.00  0.00    +0.292 HD
ENDBRANCH  18  19
BRANCH  16  21
ATOM     21  O   UNL     1      -5.029  -1.758   3.342  0.00  0.00    -0.507 OA
ATOM     22  H   UNL     1      -5.739  -1.290   2.881  0.00  0.00    +0.292 HD
ENDBRANCH  16  21
ENDBRANCH  12  13
ENDBRANCH   2  12
TORSDOF 6
