REMARK  Name = ZINC15940429
REMARK  15 active torsions:
REMARK  status: ('A' for Active; 'I' for Inactive)
REMARK    1  A    between atoms: C_1  and  C_2
REMARK    2  A    between atoms: C_2  and  C_3
REMARK    3  A    between atoms: C_3  and  C_4
REMARK    4  A    between atoms: C_4  and  N_5
REMARK    5  A    between atoms: C_6  and  N_34
REMARK    6  A    between atoms: C_7  and  N_14
REMARK    7  A    between atoms: N_14  and  C_15
REMARK    8  A    between atoms: C_15  and  C_16
REMARK    9  A    between atoms: C_16  and  O_17
REMARK   10  A    between atoms: O_17  and  C_18
REMARK   11  A    between atoms: C_19  and  C_21
REMARK   12  A    between atoms: C_21  and  O_22
REMARK   13  A    between atoms: O_22  and  C_23
REMARK   14  A    between atoms: C_23  and  C_25
REMARK   15  A    between atoms: C_26  and  C_27
REMARK                            x       y       z     vdW  Elec       q    Type
REMARK                         _______ _______ _______ _____ _____    ______ ____
ROOT
ATOM      1  N   UNL     1      -5.254  -3.683   2.482  0.00  0.00    -0.259 N 
ATOM      2  C   UNL     1      -4.651  -3.222   3.597  0.00  0.00    +0.258 C 
ATOM      3  O   UNL     1      -3.532  -2.757   3.534  0.00  0.00    -0.272 OA
ENDROOT
BRANCH   1   6
ATOM      4  N   UNL     1      -4.511  -2.603  -0.951  0.00  0.00    -0.280 N 
ATOM      5  C   UNL     1      -5.152  -2.717   0.261  0.00  0.00    +0.127 A 
ATOM      6  C   UNL     1      -4.620  -3.545   1.229  0.00  0.00    +0.140 A 
ATOM      7  C   UNL     1      -3.435  -4.249   0.944  0.00  0.00    +0.277 A 
ATOM      8  O   UNL     1      -2.945  -4.988   1.781  0.00  0.00    -0.266 OA
ATOM      9  N   UNL     1      -2.847  -4.102  -0.259  0.00  0.00    -0.273 N 
ATOM     10  H   UNL     1      -2.030  -4.587  -0.456  0.00  0.00    +0.173 HD
ATOM     11  C   UNL     1      -3.382  -3.294  -1.192  0.00  0.00    +0.331 A 
ATOM     12  O   UNL     1      -2.833  -3.184  -2.271  0.00  0.00    -0.246 OA
BRANCH   5  13
ATOM     13  N   UNL     1      -6.307  -2.014   0.505  0.00  0.00    -0.343 N 
ATOM     14  H   UNL     1      -6.642  -1.387  -0.154  0.00  0.00    +0.144 HD
ATOM     15  H   UNL     1      -6.788  -2.146   1.337  0.00  0.00    +0.144 HD
ENDBRANCH   5  13
BRANCH   4  16
ATOM     16  C   UNL     1      -5.064  -1.727  -1.987  0.00  0.00    +0.128 C 
BRANCH  16  17
ATOM     17  C   UNL     1      -6.038  -2.521  -2.859  0.00  0.00    +0.021 C 
BRANCH  17  19
ATOM     18  C   UNL     1      -7.591  -2.401  -4.813  0.00  0.00    +0.004 C 
ATOM     19  C   UNL     1      -6.616  -1.607  -3.941  0.00  0.00    -0.002 C 
ENDBRANCH  17  19
ENDBRANCH  16  17
ENDBRANCH   4  16
ENDBRANCH   1   6
BRANCH   1  20
ATOM     20  C   UNL     1      -6.567  -4.326   2.572  0.00  0.00    +0.142 C 
BRANCH  20  21
ATOM     21  C   UNL     1      -6.386  -5.840   2.703  0.00  0.00    +0.178 C 
BRANCH  21  22
ATOM     22  O   UNL     1      -5.734  -6.136   3.940  0.00  0.00    -0.381 OA
ATOM     23  C   UNL     1      -5.516  -7.530   4.162  0.00  0.00    +0.194 C 
ENDBRANCH  21  22
ENDBRANCH  20  21
ENDBRANCH   1  20
BRANCH   2  24
ATOM     24  C   UNL     1      -5.367  -3.285   4.922  0.00  0.00    +0.328 C 
BRANCH  24  25
ATOM     25  O   UNL     1      -4.527  -2.742   5.943  0.00  0.00    -0.452 OA
BRANCH  25  26
ATOM     26  C   UNL     1      -5.023  -2.724   7.198  0.00  0.00    +0.332 C 
ATOM     27  O   UNL     1      -6.138  -3.158   7.418  0.00  0.00    -0.246 OA
BRANCH  26  28
ATOM     28  C   UNL     1      -4.220  -2.182   8.293  0.00  0.00    +0.092 C 
ATOM     29  C   UNL     1      -4.716  -2.164   9.548  0.00  0.00    +0.015 C 
BRANCH  29  30
ATOM     30  C   UNL     1      -3.908  -1.619  10.650  0.00  0.00    -0.025 A 
ATOM     31  C   UNL     1      -2.628  -1.113  10.400  0.00  0.00    +0.009 A 
ATOM     32  C   UNL     1      -1.877  -0.604  11.438  0.00  0.00    +0.016 A 
ATOM     33  C   UNL     1      -2.387  -0.592  12.726  0.00  0.00    +0.018 A 
ATOM     34  C   UNL     1      -3.654  -1.091  12.981  0.00  0.00    +0.016 A 
ATOM     35  C   UNL     1      -4.419  -1.599  11.953  0.00  0.00    +0.009 A 
ATOM     36 BR   UNL     1      -1.349   0.108  14.143  0.00  0.00    -0.050 Br
ENDBRANCH  29  30
ENDBRANCH  26  28
ENDBRANCH  25  26
ENDBRANCH  24  25
ENDBRANCH   2  24
TORSDOF 13
