REMARK  Name = ZINC22787872
REMARK  5 active torsions:
REMARK  status: ('A' for Active; 'I' for Inactive)
REMARK    1  A    between atoms: C_6  and  N_7
REMARK    2  A    between atoms: C_11  and  C_13
REMARK    3  A    between atoms: C_13  and  N_14
REMARK    4  A    between atoms: N_17  and  C_20
REMARK    5  A    between atoms: C_20  and  C_21
REMARK                            x       y       z     vdW  Elec       q    Type
REMARK                         _______ _______ _______ _____ _____    ______ ____
ROOT
ATOM      1  C   UNL     1      -6.316  -1.366   0.503  0.00  0.00    +0.181 C 
ENDROOT
BRANCH   1   6
ATOM      2  N   UNL     1      -1.596  -1.604  -0.376  0.00  0.00    -0.269 N 
ATOM      3  C   UNL     1      -2.712  -0.859  -0.253  0.00  0.00    +0.310 C 
ATOM      4  O   UNL     1      -2.661   0.345  -0.412  0.00  0.00    -0.252 OA
ATOM      5  N   UNL     1      -3.886  -1.450   0.046  0.00  0.00    -0.239 N 
ATOM      6  C   UNL     1      -5.003  -0.705   0.169  0.00  0.00    +0.234 C 
ATOM      7  O   UNL     1      -4.952   0.495   0.010  0.00  0.00    -0.274 OA
ATOM      8  H   UNL     1      -1.649  -2.571  -0.326  0.00  0.00    +0.156 HD
ATOM      9  H   UNL     1      -3.928  -2.411   0.173  0.00  0.00    +0.159 HD
BRANCH   2  15
ATOM     10  C   UNL     1      -0.102   0.258  -0.002  0.00  0.00    +0.027 A 
ATOM     11  C   UNL     1       1.120   0.873  -0.200  0.00  0.00    +0.051 A 
ATOM     12  C   UNL     1       2.094   0.256  -0.970  0.00  0.00    +0.162 A 
ATOM     13  C   UNL     1       1.842  -0.985  -1.544  0.00  0.00    +0.164 A 
ATOM     14  C   UNL     1       0.616  -1.601  -1.347  0.00  0.00    +0.072 A 
ATOM     15  C   UNL     1      -0.357  -0.980  -0.576  0.00  0.00    +0.038 A 
ATOM     16  O   UNL     1       2.789  -1.609  -2.296  0.00  0.00    -0.485 OA
ATOM     17  C   UNL     1       3.866  -0.798  -2.779  0.00  0.00    +0.270 C 
ATOM     18  C   UNL     1       4.375   0.067  -1.618  0.00  0.00    +0.270 C 
ATOM     19  O   UNL     1       3.291   0.880  -1.156  0.00  0.00    -0.485 OA
ENDBRANCH   2  15
ENDBRANCH   1   6
BRANCH   1  20
ATOM     20  N   UNL     1      -7.371  -0.347   0.580  0.00  0.00    -0.292 NA
ATOM     21  C   UNL     1      -7.143   0.563   1.711  0.00  0.00    +0.100 C 
ATOM     22  C   UNL     1      -8.216   1.654   1.709  0.00  0.00    +0.100 C 
ATOM     23  N   UNL     1      -9.545   1.032   1.797  0.00  0.00    -0.294 NA
ATOM     24  C   UNL     1      -9.773   0.122   0.666  0.00  0.00    +0.100 C 
ATOM     25  C   UNL     1      -8.699  -0.970   0.668  0.00  0.00    +0.100 C 
BRANCH  23  26
ATOM     26  C   UNL     1     -10.600   2.051   1.874  0.00  0.00    +0.137 C 
BRANCH  26  27
ATOM     27  C   UNL     1     -10.621   2.648   3.257  0.00  0.00    +0.037 A 
ATOM     28  C   UNL     1     -10.310   3.977   3.452  0.00  0.00    +0.093 A 
ATOM     29  C   UNL     1     -10.335   4.513   4.740  0.00  0.00    +0.259 A 
ATOM     30  O   UNL     1     -10.061   5.689   4.918  0.00  0.00    -0.267 OA
ATOM     31  N   UNL     1     -10.668   3.720   5.802  0.00  0.00    -0.264 N 
ATOM     32  C   UNL     1     -10.737   4.099   7.121  0.00  0.00    +0.104 A 
ATOM     33  C   UNL     1     -11.076   3.227   8.070  0.00  0.00    +0.067 A 
ATOM     34  S   UNL     1     -11.334   1.735   7.122  0.00  0.00    -0.059 S 
ATOM     35  C   UNL     1     -10.962   2.413   5.519  0.00  0.00    +0.158 A 
ATOM     36  N   UNL     1     -10.945   1.904   4.312  0.00  0.00    -0.338 N 
ATOM     37  H   UNL     1     -11.170   0.969   4.185  0.00  0.00    +0.168 HD
ENDBRANCH  26  27
ENDBRANCH  23  26
ENDBRANCH   1  20
TORSDOF 5
