REMARK  Name = ZINC00062987
REMARK  7 active torsions:
REMARK  status: ('A' for Active; 'I' for Inactive)
REMARK    1  A    between atoms: C_1  and  C_2
REMARK    2  A    between atoms: C_3  and  C_19
REMARK    3  A    between atoms: C_4  and  C_12
REMARK    4  A    between atoms: C_6  and  C_10
REMARK    5  A    between atoms: C_7  and  N_9
REMARK    6  A    between atoms: C_19  and  O_21
REMARK    7  A    between atoms: O_21  and  C_22
REMARK                            x       y       z     vdW  Elec       q    Type
REMARK                         _______ _______ _______ _____ _____    ______ ____
ROOT
ATOM      1  C   UNL     1       2.338  -0.227   0.194  0.00  0.00    +0.087 C 
ATOM      2  C   UNL     1       2.363   1.276   0.088  0.00  0.00    +0.115 C 
ATOM      3  C   UNL     1       1.224   1.924  -0.188  0.00  0.00    +0.087 C 
ATOM      4  C   UNL     1       1.193   3.423  -0.309  0.00  0.00    +0.105 C 
ATOM      5  C   UNL     1       2.434   4.008   0.312  0.00  0.00    +0.098 C 
ATOM      6  C   UNL     1       3.515   3.231   0.563  0.00  0.00    +0.198 C 
ATOM      7  O   UNL     1       3.526   1.918   0.274  0.00  0.00    -0.445 OA
ENDROOT
BRANCH   4   8
ATOM      8  C   UNL     1       1.127   3.806  -1.765  0.00  0.00    -0.033 A 
ATOM      9  C   UNL     1       0.057   4.543  -2.238  0.00  0.00    +0.004 A 
ATOM     10  C   UNL     1      -0.005   4.895  -3.573  0.00  0.00    +0.002 A 
ATOM     11  C   UNL     1       1.004   4.511  -4.436  0.00  0.00    +0.020 A 
ATOM     12  C   UNL     1       2.075   3.774  -3.964  0.00  0.00    +0.041 A 
ATOM     13  C   UNL     1       2.139   3.427  -2.626  0.00  0.00    +0.024 A 
ATOM     14 CL   UNL     1       3.343   3.291  -5.048  0.00  0.00    -0.084 Cl
ENDBRANCH   4   8
BRANCH   6  15
ATOM     15  N   UNL     1       4.630   3.799   1.127  0.00  0.00    -0.328 N 
ATOM     16  H   UNL     1       5.411   3.255   1.312  0.00  0.00    +0.145 HD
ATOM     17  H   UNL     1       4.636   4.745   1.341  0.00  0.00    +0.145 HD
ENDBRANCH   6  15
BRANCH   5  18
ATOM     18  C   UNL     1       2.474   5.402   0.637  0.00  0.00    +0.101 C 
ATOM     19  N   UNL     1       2.506   6.508   0.895  0.00  0.00    -0.191 NA
ENDBRANCH   5  18
BRANCH   3  20
ATOM     20  C   UNL     1       0.030   1.185  -0.374  0.00  0.00    +0.339 C 
ATOM     21  O   UNL     1      -0.827   1.187   0.489  0.00  0.00    -0.245 OA
BRANCH  20  22
ATOM     22  O   UNL     1      -0.154   0.474  -1.506  0.00  0.00    -0.465 OA
ATOM     23  C   UNL     1      -1.379  -0.252  -1.624  0.00  0.00    +0.280 C 
ENDBRANCH  20  22
ENDBRANCH   3  20
TORSDOF 5
