REMARK  Name = ZINC51172413
REMARK  3 active torsions:
REMARK  status: ('A' for Active; 'I' for Inactive)
REMARK    1  A    between atoms: C_5  and  C_7
REMARK    2  A    between atoms: C_8  and  C_13
REMARK    3  A    between atoms: C_11  and  N_12
REMARK                            x       y       z     vdW  Elec       q    Type
REMARK                         _______ _______ _______ _____ _____    ______ ____
ROOT
ATOM      1  C   UNL     1       1.247  -2.164  -0.023  0.00  0.00    +0.074 A 
ATOM      2  C   UNL     1       1.269  -3.046   1.148  0.00  0.00    +0.130 A 
ATOM      3  N   UNL     1       1.289  -4.282   0.700  0.00  0.00    -0.075 NA
ATOM      4  O   UNL     1       1.281  -4.254  -0.713  0.00  0.00    -0.339 OA
ATOM      5  C   UNL     1       1.250  -2.981  -1.134  0.00  0.00    +0.224 A 
ENDROOT
BRANCH   1  10
ATOM      6  C   UNL     1      -0.017   1.376   0.010  0.00  0.00    +0.001 A 
ATOM      7  C   UNL     1       1.170   2.087   0.002  0.00  0.00    +0.003 A 
ATOM      8  C   UNL     1       2.382   1.422  -0.013  0.00  0.00    +0.039 A 
ATOM      9  C   UNL     1       2.415   0.041  -0.022  0.00  0.00    +0.131 A 
ATOM     10  C   UNL     1       1.220  -0.682  -0.014  0.00  0.00    +0.024 A 
ATOM     11  C   UNL     1       0.002  -0.004   0.002  0.00  0.00    +0.011 A 
ATOM     12  F   UNL     1       3.599  -0.609  -0.038  0.00  0.00    -0.205 F 
ENDBRANCH   1  10
BRANCH   2  13
ATOM     13  C   UNL     1       1.269  -2.626   2.563  0.00  0.00    +0.043 A 
ATOM     14  C   UNL     1       0.680  -3.230   3.643  0.00  0.00    +0.019 A 
ATOM     15  C   UNL     1       0.817  -2.648   4.883  0.00  0.00    +0.028 A 
ATOM     16  C   UNL     1       1.530  -1.496   4.999  0.00  0.00    +0.079 A 
ATOM     17  S   UNL     1       2.044  -1.204   3.315  0.00  0.00    -0.075 S 
ATOM     18 CL   UNL     1       1.862  -0.556   6.420  0.00  0.00    -0.076 Cl
ENDBRANCH   2  13
BRANCH   5  19
ATOM     19  N   UNL     1       1.228  -2.561  -2.449  0.00  0.00    -0.327 N 
ATOM     20  H   UNL     1       1.209  -1.614  -2.655  0.00  0.00    +0.145 HD
ATOM     21  H   UNL     1       1.232  -3.214  -3.166  0.00  0.00    +0.145 HD
ENDBRANCH   5  19
TORSDOF 3
