REMARK  Name = ZINC45454674
REMARK  7 active torsions:
REMARK  status: ('A' for Active; 'I' for Inactive)
REMARK    1  A    between atoms: C_1  and  C_2
REMARK    2  A    between atoms: N_5  and  C_11
REMARK    3  A    between atoms: C_7  and  C_10
REMARK    4  A    between atoms: C_11  and  C_12
REMARK    5  A    between atoms: C_12  and  C_13
REMARK    6  A    between atoms: C_13  and  N_14
REMARK    7  A    between atoms: C_21  and  C_23
REMARK                            x       y       z     vdW  Elec       q    Type
REMARK                         _______ _______ _______ _____ _____    ______ ____
ROOT
ATOM      1  N   UNL     1       1.802  -6.007  -3.796  0.00  0.00    -0.299 N 
ATOM      2  C   UNL     1       2.309  -6.705  -4.831  0.00  0.00    +0.303 C 
ATOM      3  O   UNL     1       2.889  -6.125  -5.730  0.00  0.00    -0.253 OA
ATOM      4  N   UNL     1       2.176  -8.045  -4.870  0.00  0.00    -0.279 N 
ATOM      5  C   UNL     1       1.495  -8.871  -3.856  0.00  0.00    +0.110 C 
ATOM      6  C   UNL     1       1.069 -10.155  -4.611  0.00  0.00    +0.021 C 
ATOM      7  C   UNL     1       2.273 -10.368  -5.566  0.00  0.00    +0.029 C 
ATOM      8  C   UNL     1       2.679  -8.926  -5.934  0.00  0.00    +0.108 C 
ATOM      9  H   UNL     1       1.339  -6.469  -3.079  0.00  0.00    +0.150 HD
ENDROOT
BRANCH   8  10
ATOM     10  C   UNL     1       4.180  -8.825  -6.016  0.00  0.00    -0.024 A 
ATOM     11  C   UNL     1       4.949  -8.721  -4.867  0.00  0.00    +0.025 A 
ATOM     12  C   UNL     1       6.323  -8.630  -4.981  0.00  0.00    +0.111 A 
ATOM     13  N   UNL     1       6.903  -8.640  -6.165  0.00  0.00    -0.263 NA
ATOM     14  C   UNL     1       6.205  -8.737  -7.279  0.00  0.00    +0.111 A 
ATOM     15  C   UNL     1       4.827  -8.839  -7.243  0.00  0.00    +0.025 A 
ENDBRANCH   8  10
BRANCH   1  16
ATOM     16  C   UNL     1       1.947  -4.550  -3.754  0.00  0.00    +0.107 C 
BRANCH  16  17
ATOM     17  C   UNL     1       1.287  -4.008  -2.484  0.00  0.00    +0.034 C 
BRANCH  17  18
ATOM     18  C   UNL     1       1.439  -2.486  -2.440  0.00  0.00    +0.086 C 
BRANCH  18  22
ATOM     19  C   UNL     1      -0.019   1.526   0.010  0.00  0.00    +0.039 C 
ATOM     20  C   UNL     1       0.002  -0.004   0.002  0.00  0.00    +0.130 C 
ATOM     21  C   UNL     1       0.720  -0.499  -1.256  0.00  0.00    +0.115 C 
ATOM     22  N   UNL     1       0.805  -1.966  -1.221  0.00  0.00    -0.297 NA
ATOM     23  C   UNL     1       1.523  -2.417  -0.020  0.00  0.00    +0.115 C 
ATOM     24  C   UNL     1       0.797  -1.904   1.226  0.00  0.00    +0.130 C 
ATOM     25  O   UNL     1       0.695  -0.479   1.159  0.00  0.00    -0.371 OA
ATOM     26  C   UNL     1      -0.605  -2.513   1.288  0.00  0.00    +0.039 C 
ENDBRANCH  18  22
ENDBRANCH  17  18
ENDBRANCH  16  17
ENDBRANCH   1  16
TORSDOF 5
