REMARK  Name = ZINC29256918
REMARK  7 active torsions:
REMARK  status: ('A' for Active; 'I' for Inactive)
REMARK    1  A    between atoms: C_1  and  C_2
REMARK    2  A    between atoms: C_3  and  C_24
REMARK    3  A    between atoms: C_4  and  C_23
REMARK    4  A    between atoms: C_7  and  C_8
REMARK    5  A    between atoms: N_10  and  C_11
REMARK    6  A    between atoms: N_10  and  C_12
REMARK    7  A    between atoms: C_24  and  C_26
REMARK                            x       y       z     vdW  Elec       q    Type
REMARK                         _______ _______ _______ _____ _____    ______ ____
ROOT
ATOM      1  C   UNL     1      -1.254   2.195   0.074  0.00  0.00    +0.263 C 
ATOM      2  O   UNL     1      -1.154   3.402   0.191  0.00  0.00    -0.268 OA
ATOM      3  N   UNL     1      -2.471   1.628  -0.039  0.00  0.00    -0.292 N 
ATOM      4  C   UNL     1      -2.600   0.169  -0.068  0.00  0.00    +0.133 C 
ENDROOT
BRANCH   3   5
ATOM      5  C   UNL     1      -3.666   2.470  -0.134  0.00  0.00    +0.107 C 
ATOM      6  C   UNL     1      -4.366   2.205  -1.465  0.00  0.00    +0.027 C 
ATOM      7  C   UNL     1      -5.719   2.926  -1.453  0.00  0.00    +0.007 C 
ATOM      8  C   UNL     1      -6.636   2.213  -0.462  0.00  0.00    +0.035 C 
ATOM      9  C   UNL     1      -5.950   2.048   0.870  0.00  0.00    -0.042 A 
ATOM     10  C   UNL     1      -4.585   2.159   1.019  0.00  0.00    -0.024 A 
ATOM     11  C   UNL     1      -4.014   1.982   2.272  0.00  0.00    +0.006 A 
ATOM     12  C   UNL     1      -4.803   1.701   3.369  0.00  0.00    +0.000 A 
ATOM     13  C   UNL     1      -6.173   1.594   3.220  0.00  0.00    +0.000 A 
ATOM     14  C   UNL     1      -6.742   1.768   1.975  0.00  0.00    +0.004 A 
ENDBRANCH   3   5
BRANCH   1  21
ATOM     15  C   UNL     1      -0.229   0.452   2.447  0.00  0.00    +0.047 C 
ATOM     16  C   UNL     1       0.407   0.594   1.088  0.00  0.00    -0.010 A 
ATOM     17  C   UNL     1       1.593  -0.039   0.643  0.00  0.00    +0.041 A 
ATOM     18  C   UNL     1       1.806   0.375  -0.662  0.00  0.00    +0.024 A 
ATOM     19  N   UNL     1       0.817   1.212  -1.007  0.00  0.00    -0.354 N 
ATOM     20  H   UNL     1       0.799   1.659  -2.012  0.00  0.00    +0.166 HD
ATOM     21  C   UNL     1      -0.049   1.357   0.056  0.00  0.00    +0.106 A 
ATOM     22  C   UNL     1       2.955  -0.044  -1.544  0.00  0.00    +0.064 C 
BRANCH  17  23
ATOM     23  C   UNL     1       2.434  -0.958   1.416  0.00  0.00    +0.162 C 
ATOM     24  O   UNL     1       2.273  -2.157   1.316  0.00  0.00    -0.292 OA
ATOM     25  C   UNL     1       3.499  -0.414   2.333  0.00  0.00    +0.091 C 
ENDBRANCH  17  23
ENDBRANCH   1  21
TORSDOF 3
