REMARK  Name = ZINC67401216
REMARK  7 active torsions:
REMARK  status: ('A' for Active; 'I' for Inactive)
REMARK    1  A    between atoms: C_1  and  N_2
REMARK    2  A    between atoms: N_2  and  C_3
REMARK    3  A    between atoms: C_6  and  C_11
REMARK    4  A    between atoms: C_11  and  N_12
REMARK    5  A    between atoms: C_15  and  C_18
REMARK    6  A    between atoms: C_18  and  C_20
REMARK    7  A    between atoms: C_18  and  O_27
REMARK                            x       y       z     vdW  Elec       q    Type
REMARK                         _______ _______ _______ _____ _____    ______ ____
ROOT
ATOM      1  N   UNL     1      -1.355  -4.684  -2.349  0.00  0.00    +0.384 N 
ATOM      2  C   UNL     1      -2.025  -4.290  -3.594  0.00  0.00    -0.078 C 
ATOM      3  C   UNL     1      -3.487  -4.742  -3.555  0.00  0.00    -0.012 C 
ATOM      4  C   UNL     1      -3.541  -6.265  -3.404  0.00  0.00    +0.019 C 
ATOM      5  C   UNL     1      -2.775  -6.670  -2.142  0.00  0.00    -0.012 C 
ATOM      6  C   UNL     1      -1.340  -6.147  -2.233  0.00  0.00    -0.078 C 
ATOM      7  H   UNL     1      -1.850  -4.291  -1.563  0.00  0.00    -0.081 HD
ENDROOT
BRANCH   1   8
ATOM      8  C   UNL     1       0.025  -4.181  -2.357  0.00  0.00    -0.001 C 
BRANCH   8  14
ATOM      9  C   UNL     1      -0.018   1.461   0.010  0.00  0.00    +0.132 C 
ATOM     10  N   UNL     1       0.002  -0.004   0.002  0.00  0.00    -0.306 N 
ATOM     11  C   UNL     1       0.024  -0.743   1.267  0.00  0.00    +0.132 C 
ATOM     12  C   UNL     1       0.000  -0.688  -1.197  0.00  0.00    +0.222 A 
ATOM     13  N   UNL     1       0.013  -2.019  -1.205  0.00  0.00    -0.201 NA
ATOM     14  C   UNL     1       0.011  -2.674  -2.353  0.00  0.00    +0.120 A 
ATOM     15  N   UNL     1      -0.004  -2.011  -3.496  0.00  0.00    -0.202 NA
ATOM     16  C   UNL     1      -0.016  -0.681  -3.496  0.00  0.00    +0.217 A 
ATOM     17  N   UNL     1      -0.020  -0.018  -2.344  0.00  0.00    -0.181 NA
ATOM     18  N   UNL     1      -0.031   0.010  -4.690  0.00  0.00    -0.327 N 
ATOM     19  H   UNL     1      -0.032  -0.474  -5.531  0.00  0.00    +0.145 HD
ATOM     20  H   UNL     1      -0.040   0.980  -4.689  0.00  0.00    +0.145 HD
ENDBRANCH   8  14
ENDBRANCH   1   8
BRANCH   4  21
ATOM     21  C   UNL     1      -4.998  -6.715  -3.285  0.00  0.00    +0.147 C 
BRANCH  21  22
ATOM     22  C   UNL     1      -5.050  -8.214  -3.137  0.00  0.00    -0.019 A 
ATOM     23  C   UNL     1      -4.921  -9.024  -4.250  0.00  0.00    +0.007 A 
ATOM     24  C   UNL     1      -4.968 -10.398  -4.115  0.00  0.00    +0.020 A 
ATOM     25  C   UNL     1      -5.145 -10.964  -2.865  0.00  0.00    +0.041 A 
ATOM     26  C   UNL     1      -5.274 -10.154  -1.751  0.00  0.00    +0.020 A 
ATOM     27  C   UNL     1      -5.221  -8.779  -1.887  0.00  0.00    +0.007 A 
ATOM     28 CL   UNL     1      -5.205 -12.691  -2.694  0.00  0.00    -0.084 Cl
ENDBRANCH  21  22
BRANCH  21  29
ATOM     29  O   UNL     1      -5.714  -6.328  -4.460  0.00  0.00    -0.387 OA
ATOM     30  H   UNL     1      -5.364  -6.708  -5.277  0.00  0.00    +0.210 HD
ENDBRANCH  21  29
ENDBRANCH   4  21
TORSDOF 5
