REMARK  Name = ZINC36597702
REMARK  18 active torsions:
REMARK  status: ('A' for Active; 'I' for Inactive)
REMARK    1  A    between atoms: C_1  and  C_2
REMARK    2  A    between atoms: C_7  and  C_8
REMARK    3  A    between atoms: C_8  and  C_10
REMARK    4  A    between atoms: C_8  and  N_21
REMARK    5  A    between atoms: N_12  and  C_13
REMARK    6  A    between atoms: C_13  and  C_14
REMARK    7  A    between atoms: C_13  and  C_15
REMARK    8  A    between atoms: C_13  and  C_16
REMARK    9  A    between atoms: C_16  and  C_17
REMARK   10  A    between atoms: C_17  and  C_18
REMARK   11  A    between atoms: C_17  and  C_19
REMARK   12  A    between atoms: C_17  and  C_20
REMARK   13  A    between atoms: N_21  and  C_22
REMARK   14  A    between atoms: C_22  and  C_23
REMARK   15  A    between atoms: C_26  and  C_28
REMARK   16  A    between atoms: C_29  and  C_31
REMARK   17  A    between atoms: C_35  and  O_38
REMARK   18  A    between atoms: C_36  and  O_37
REMARK                            x       y       z     vdW  Elec       q    Type
REMARK                         _______ _______ _______ _____ _____    ______ ____
ROOT
ATOM      1  C   UNL     1      -0.520  -0.173   4.292  0.00  0.00    +0.193 C 
ENDROOT
BRANCH   1   8
ATOM      2  C   UNL     1       1.727   1.358   3.316  0.00  0.00    +0.044 C 
ATOM      3  C   UNL     1       1.491  -0.041   2.808  0.00  0.00    -0.045 A 
ATOM      4  C   UNL     1       2.353  -0.594   1.880  0.00  0.00    +0.004 A 
ATOM      5  C   UNL     1       2.137  -1.877   1.414  0.00  0.00    +0.000 A 
ATOM      6  C   UNL     1       1.058  -2.608   1.877  0.00  0.00    +0.000 A 
ATOM      7  C   UNL     1       0.197  -2.055   2.806  0.00  0.00    +0.006 A 
ATOM      8  C   UNL     1       0.416  -0.773   3.275  0.00  0.00    -0.015 A 
ENDBRANCH   1   8
BRANCH   1   9
ATOM      9  C   UNL     1      -1.939  -0.281   3.794  0.00  0.00    +0.239 C 
ATOM     10  O   UNL     1      -2.796  -0.762   4.505  0.00  0.00    -0.273 OA
ATOM     11  N   UNL     1      -2.255   0.156   2.559  0.00  0.00    -0.308 N 
ATOM     12  H   UNL     1      -1.558   0.470   1.962  0.00  0.00    +0.149 HD
BRANCH  11  13
ATOM     13  C   UNL     1      -3.652   0.156   2.117  0.00  0.00    +0.030 C 
ATOM     14  C   UNL     1      -4.151  -1.286   2.003  0.00  0.00    +0.031 C 
ATOM     15  C   UNL     1      -4.508   0.912   3.135  0.00  0.00    +0.031 C 
BRANCH  13  16
ATOM     16  C   UNL     1      -3.755   0.841   0.753  0.00  0.00    +0.031 C 
BRANCH  16  17
ATOM     17  C   UNL     1      -2.806   2.040   0.712  0.00  0.00    -0.036 C 
ATOM     18  C   UNL     1      -1.428   1.583   0.228  0.00  0.00    +0.010 C 
ATOM     19  C   UNL     1      -3.358   3.095  -0.248  0.00  0.00    +0.010 C 
ATOM     20  C   UNL     1      -2.681   2.641   2.113  0.00  0.00    +0.010 C 
ENDBRANCH  16  17
ENDBRANCH  13  16
ENDBRANCH  11  13
ENDBRANCH   1   9
BRANCH   1  21
ATOM     21  N   UNL     1      -0.391  -0.894   5.560  0.00  0.00    -0.275 N 
ATOM     22  C   UNL     1      -1.050  -0.459   6.652  0.00  0.00    +0.252 C 
ATOM     23  O   UNL     1      -0.981  -1.084   7.693  0.00  0.00    -0.270 OA
BRANCH  22  24
ATOM     24  C   UNL     1      -1.856   0.775   6.585  0.00  0.00    +0.082 A 
ATOM     25  C   UNL     1      -1.998   1.457   5.373  0.00  0.00    +0.017 A 
ATOM     26  C   UNL     1      -2.751   2.608   5.314  0.00  0.00    +0.005 A 
ATOM     27  C   UNL     1      -3.372   3.097   6.452  0.00  0.00    +0.049 A 
ATOM     28  C   UNL     1      -3.241   2.434   7.660  0.00  0.00    +0.159 A 
ATOM     29  C   UNL     1      -2.488   1.266   7.734  0.00  0.00    +0.171 A 
BRANCH  29  30
ATOM     30  O   UNL     1      -2.362   0.609   8.915  0.00  0.00    -0.503 OA
ATOM     31  H   UNL     1      -1.608   0.898   9.447  0.00  0.00    +0.292 HD
ENDBRANCH  29  30
BRANCH  28  32
ATOM     32  O   UNL     1      -3.854   2.920   8.773  0.00  0.00    -0.503 OA
ATOM     33  H   UNL     1      -4.749   2.581   8.909  0.00  0.00    +0.292 HD
ENDBRANCH  28  32
ENDBRANCH  22  24
BRANCH  21  34
ATOM     34  C   UNL     1       0.454  -2.087   5.642  0.00  0.00    +0.183 C 
BRANCH  34  35
ATOM     35  C   UNL     1       1.827  -1.698   6.125  0.00  0.00    +0.122 A 
ATOM     36  C   UNL     1       2.227  -1.656   7.409  0.00  0.00    +0.046 A 
ATOM     37  C   UNL     1       3.579  -1.243   7.404  0.00  0.00    +0.045 A 
ATOM     38  C   UNL     1       3.925  -1.057   6.117  0.00  0.00    +0.102 A 
ATOM     39  O   UNL     1       2.862  -1.340   5.347  0.00  0.00    -0.463 OA
ATOM     40  C   UNL     1       5.278  -0.613   5.624  0.00  0.00    +0.086 C 
ENDBRANCH  34  35
ENDBRANCH  21  34
ENDBRANCH   1  21
TORSDOF 11
