REMARK  Name = ZINC00620386
REMARK  6 active torsions:
REMARK  status: ('A' for Active; 'I' for Inactive)
REMARK    1  A    between atoms: C_1  and  C_2
REMARK    2  A    between atoms: C_2  and  C_3
REMARK    3  A    between atoms: C_3  and  C_4
REMARK    4  A    between atoms: C_3  and  C_5
REMARK    5  A    between atoms: C_3  and  N_6
REMARK    6  A    between atoms: C_7  and  C_9
REMARK                            x       y       z     vdW  Elec       q    Type
REMARK                         _______ _______ _______ _____ _____    ______ ____
ROOT
ATOM      1  C   UNL     1       1.385  -4.154   2.227  0.00  0.00    +0.142 C 
ATOM      2  C   UNL     1      -0.028  -4.670   2.212  0.00  0.00    +0.011 A 
ATOM      3  C   UNL     1      -0.743  -4.659   1.027  0.00  0.00    +0.008 A 
ATOM      4  C   UNL     1      -2.041  -5.130   0.993  0.00  0.00    +0.001 A 
ATOM      5  C   UNL     1      -2.632  -5.614   2.145  0.00  0.00    +0.004 A 
ATOM      6  C   UNL     1      -1.925  -5.627   3.330  0.00  0.00    +0.046 A 
ATOM      7  C   UNL     1      -0.618  -5.155   3.368  0.00  0.00    +0.133 A 
ATOM      8  O   UNL     1       0.061  -5.177   4.540  0.00  0.00    -0.455 OA
ATOM      9  C   UNL     1       1.415  -5.134   4.541  0.00  0.00    +0.133 A 
ATOM     10  C   UNL     1       2.113  -4.648   3.447  0.00  0.00    +0.011 A 
ATOM     11  C   UNL     1       3.496  -4.614   3.472  0.00  0.00    +0.008 A 
ATOM     12  C   UNL     1       4.183  -5.064   4.583  0.00  0.00    +0.001 A 
ATOM     13  C   UNL     1       3.489  -5.550   5.676  0.00  0.00    +0.004 A 
ATOM     14  C   UNL     1       2.108  -5.585   5.657  0.00  0.00    +0.046 A 
ENDROOT
BRANCH   1  16
ATOM     15  N   UNL     1       0.762  -1.976   1.234  0.00  0.00    -0.310 N 
ATOM     16  C   UNL     1       1.364  -2.647   2.235  0.00  0.00    +0.225 C 
ATOM     17  O   UNL     1       1.890  -2.038   3.143  0.00  0.00    -0.275 OA
ATOM     18  H   UNL     1       0.342  -2.462   0.507  0.00  0.00    +0.149 HD
BRANCH  15  19
ATOM     19  C   UNL     1       0.742  -0.511   1.242  0.00  0.00    +0.029 C 
ATOM     20  C   UNL     1       2.178   0.019   1.231  0.00  0.00    +0.031 C 
ATOM     21  C   UNL     1       0.026  -0.018   2.500  0.00  0.00    +0.031 C 
BRANCH  19  23
ATOM     22  C   UNL     1      -0.019   1.526   0.010  0.00  0.00    +0.006 C 
ATOM     23  C   UNL     1       0.002  -0.004   0.002  0.00  0.00    +0.022 C 
ENDBRANCH  19  23
ENDBRANCH  15  19
ENDBRANCH   1  16
TORSDOF 3
