REMARK  Name = ZINC64166479
REMARK  4 active torsions:
REMARK  status: ('A' for Active; 'I' for Inactive)
REMARK    1  A    between atoms: C_5  and  C_12
REMARK    2  A    between atoms: N_19  and  C_22
REMARK    3  A    between atoms: C_22  and  C_23
REMARK    4  A    between atoms: C_23  and  N_24
REMARK                            x       y       z     vdW  Elec       q    Type
REMARK                         _______ _______ _______ _____ _____    ______ ____
ROOT
ATOM      1  C   UNL     1       5.431   0.948   1.188  0.00  0.00    +0.242 C 
ATOM      2  O   UNL     1       5.277   1.829   2.007  0.00  0.00    -0.273 OA
ATOM      3  N   UNL     1       6.384   0.013   1.374  0.00  0.00    -0.298 N 
ATOM      4  C   UNL     1       6.550  -1.032   0.366  0.00  0.00    +0.117 C 
ATOM      5  C   UNL     1       6.233  -2.397   0.987  0.00  0.00    +0.115 C 
ATOM      6  C   UNL     1       7.439  -2.863   1.772  0.00  0.00    +0.217 C 
ATOM      7  O   UNL     1       8.109  -3.784   1.355  0.00  0.00    -0.276 OA
ATOM      8  N   UNL     1       7.771  -2.267   2.920  0.00  0.00    -0.302 N 
ATOM      9  C   UNL     1       6.969  -1.153   3.446  0.00  0.00    +0.126 C 
ATOM     10  C   UNL     1       7.216   0.088   2.573  0.00  0.00    +0.127 C 
ENDROOT
BRANCH   1  15
ATOM     11  C   UNL     1      -0.017   1.400   0.010  0.00  0.00    +0.040 A 
ATOM     12  C   UNL     1       1.109   2.144   0.003  0.00  0.00    +0.029 A 
ATOM     13  C   UNL     1       2.386   1.516  -0.013  0.00  0.00    +0.043 A 
ATOM     14  N   UNL     1       3.600   2.010  -0.023  0.00  0.00    -0.370 N 
ATOM     15  C   UNL     1       4.557   0.898  -0.038  0.00  0.00    +0.190 C 
ATOM     16  C   UNL     1       3.725  -0.365  -0.037  0.00  0.00    +0.016 C 
ATOM     17  C   UNL     1       2.434   0.037  -0.021  0.00  0.00    -0.001 A 
ATOM     18  C   UNL     1       1.164  -0.699  -0.013  0.00  0.00    +0.048 A 
ATOM     19  C   UNL     1       0.002  -0.004   0.002  0.00  0.00    +0.124 A 
ATOM     20  F   UNL     1      -1.169  -0.678   0.010  0.00  0.00    -0.205 F 
ATOM     21  H   UNL     1       3.828   2.953  -0.020  0.00  0.00    +0.161 HD
ENDBRANCH   1  15
BRANCH   8  22
ATOM     22  C   UNL     1       8.947  -2.727   3.663  0.00  0.00    +0.089 C 
BRANCH  22  23
ATOM     23  C   UNL     1      10.181  -1.952   3.197  0.00  0.00    -0.060 C 
BRANCH  23  24
ATOM     24  N   UNL     1      11.360  -2.413   3.942  0.00  0.00    +0.381 N 
ATOM     25  C   UNL     1      11.198  -2.085   5.363  0.00  0.00    -0.079 C 
ATOM     26  C   UNL     1      12.385  -2.635   6.156  0.00  0.00    -0.019 C 
ATOM     27  C   UNL     1      13.679  -2.007   5.629  0.00  0.00    -0.004 C 
ATOM     28  C   UNL     1      13.800  -2.293   4.130  0.00  0.00    -0.019 C 
ATOM     29  C   UNL     1      12.560  -1.756   3.412  0.00  0.00    -0.079 C 
ATOM     30  H   UNL     1      11.451  -3.413   3.838  0.00  0.00    -0.082 HD
ENDBRANCH  23  24
ENDBRANCH  22  23
ENDBRANCH   8  22
TORSDOF 4
