REMARK  Name = ZINC40117809
REMARK  9 active torsions:
REMARK  status: ('A' for Active; 'I' for Inactive)
REMARK    1  A    between atoms: C_1  and  C_2
REMARK    2  A    between atoms: C_2  and  C_3
REMARK    3  A    between atoms: C_2  and  C_4
REMARK    4  A    between atoms: C_4  and  C_6
REMARK    5  A    between atoms: C_4  and  N_23
REMARK    6  A    between atoms: N_8  and  C_9
REMARK    7  A    between atoms: C_13  and  C_15
REMARK    8  A    between atoms: C_15  and  C_22
REMARK    9  A    between atoms: C_24  and  C_26
REMARK                            x       y       z     vdW  Elec       q    Type
REMARK                         _______ _______ _______ _____ _____    ______ ____
ROOT
ATOM      1  C   UNL     1      -2.073   0.225   0.634  0.00  0.00    +0.238 C 
ATOM      2  O   UNL     1      -2.829   1.078   0.220  0.00  0.00    -0.273 OA
ATOM      3  N   UNL     1      -2.209  -0.244   1.890  0.00  0.00    -0.284 N 
ATOM      4  H   UNL     1      -1.660  -0.984   2.194  0.00  0.00    +0.155 HD
ENDROOT
BRANCH   3   5
ATOM      5  C   UNL     1      -3.143   0.335   2.756  0.00  0.00    +0.034 A 
ATOM      6  C   UNL     1      -4.309   0.895   2.249  0.00  0.00    +0.023 A 
ATOM      7  C   UNL     1      -5.228   1.466   3.107  0.00  0.00    +0.002 A 
ATOM      8  C   UNL     1      -4.989   1.481   4.469  0.00  0.00    +0.006 A 
ATOM      9  C   UNL     1      -3.830   0.925   4.977  0.00  0.00    -0.014 A 
ATOM     10  C   UNL     1      -2.909   0.346   4.125  0.00  0.00    +0.029 A 
BRANCH   9  11
ATOM     11  C   UNL     1      -3.574   0.944   6.462  0.00  0.00    +0.135 C 
ATOM     12  C   UNL     1      -3.577  -0.464   7.021  0.00  0.00    +0.248 C 
ATOM     13  O   UNL     1      -2.827  -1.371   6.727  0.00  0.00    -0.273 OA
ATOM     14  N   UNL     1      -4.585  -0.499   7.915  0.00  0.00    -0.238 N 
ATOM     15  C   UNL     1      -5.213   0.680   7.996  0.00  0.00    +0.307 C 
ATOM     16  O   UNL     1      -6.155   0.894   8.734  0.00  0.00    -0.252 OA
ATOM     17  N   UNL     1      -4.685   1.601   7.171  0.00  0.00    -0.282 N 
ATOM     18  C   UNL     1      -2.249   1.646   6.768  0.00  0.00    +0.047 C 
ATOM     19  H   UNL     1      -4.826  -1.282   8.434  0.00  0.00    +0.159 HD
ATOM     20  H   UNL     1      -4.979   2.520   7.064  0.00  0.00    +0.152 HD
ENDBRANCH   9  11
ENDBRANCH   3   5
BRANCH   1  21
ATOM     21  C   UNL     1      -0.981  -0.309  -0.256  0.00  0.00    +0.162 C 
BRANCH  21  22
ATOM     22  N   UNL     1      -1.380  -0.168  -1.658  0.00  0.00    -0.299 N 
ATOM     23  C   UNL     1      -0.856  -0.984  -2.594  0.00  0.00    +0.251 C 
ATOM     24  O   UNL     1      -0.051  -1.839  -2.273  0.00  0.00    -0.270 OA
ATOM     25  H   UNL     1      -2.022   0.513  -1.913  0.00  0.00    +0.150 HD
BRANCH  23  26
ATOM     26  C   UNL     1      -1.256  -0.843  -3.997  0.00  0.00    +0.074 A 
ATOM     27  C   UNL     1      -0.846  -1.575  -5.101  0.00  0.00    +0.021 A 
ATOM     28  C   UNL     1      -1.401  -1.205  -6.302  0.00  0.00    +0.008 A 
ATOM     29  C   UNL     1      -2.288  -0.180  -6.330  0.00  0.00    +0.046 A 
ATOM     30  S   UNL     1      -2.402   0.311  -4.728  0.00  0.00    -0.092 S 
ENDBRANCH  23  26
ENDBRANCH  21  22
BRANCH  21  32
ATOM     31  C   UNL     1       1.461  -0.182  -0.769  0.00  0.00    +0.009 C 
ATOM     32  C   UNL     1       0.308   0.478  -0.011  0.00  0.00    +0.012 C 
ATOM     33  C   UNL     1       0.130   1.915  -0.504  0.00  0.00    +0.009 C 
ENDBRANCH  21  32
ENDBRANCH   1  21
TORSDOF 6
