REMARK  Name = ZINC03978059
REMARK  7 active torsions:
REMARK  status: ('A' for Active; 'I' for Inactive)
REMARK    1  A    between atoms: C_1  and  C_2
REMARK    2  A    between atoms: C_15  and  O_30
REMARK    3  A    between atoms: C_18  and  C_29
REMARK    4  A    between atoms: C_23  and  C_24
REMARK    5  A    between atoms: C_23  and  O_28
REMARK    6  A    between atoms: C_24  and  C_26
REMARK    7  A    between atoms: C_26  and  O_27
REMARK                            x       y       z     vdW  Elec       q    Type
REMARK                         _______ _______ _______ _____ _____    ______ ____
ROOT
ATOM      1  C   UNL     1      -0.050   1.777  -0.523  0.00  0.00    +0.016 C 
ATOM      2  C   UNL     1       0.016   0.260  -0.331  0.00  0.00    -0.005 C 
ATOM      3  C   UNL     1      -1.403  -0.310  -0.279  0.00  0.00    +0.019 C 
ATOM      4  C   UNL     1      -2.144   0.314   0.909  0.00  0.00    +0.080 C 
ATOM      5  C   UNL     1      -1.364   0.039   2.170  0.00  0.00    +0.156 C 
ATOM      6  O   UNL     1      -1.938  -0.026   3.237  0.00  0.00    -0.293 OA
ATOM      7  C   UNL     1       0.084  -0.147   2.107  0.00  0.00    +0.046 C 
ATOM      8  C   UNL     1       0.737  -0.052   0.953  0.00  0.00    -0.060 C 
ATOM      9  C   UNL     1       2.229  -0.265   0.895  0.00  0.00    +0.032 C 
ATOM     10  C   UNL     1       2.537  -1.436  -0.025  0.00  0.00    +0.008 C 
ATOM     11  C   UNL     1       1.455  -1.661  -1.078  0.00  0.00    -0.001 C 
ATOM     12  C   UNL     1       0.777  -0.371  -1.505  0.00  0.00    +0.031 C 
ATOM     13  C   UNL     1      -0.260  -0.668  -2.599  0.00  0.00    +0.119 C 
ATOM     14  C   UNL     1       0.449  -1.264  -3.812  0.00  0.00    +0.041 C 
ATOM     15  C   UNL     1       1.139  -2.556  -3.437  0.00  0.00    +0.009 C 
ATOM     16  C   UNL     1       2.114  -2.382  -2.261  0.00  0.00    +0.002 C 
ATOM     17  C   UNL     1       2.323  -3.858  -1.808  0.00  0.00    +0.008 C 
ATOM     18  C   UNL     1       0.917  -4.485  -1.936  0.00  0.00    +0.043 C 
ATOM     19  C   UNL     1       0.156  -3.641  -2.978  0.00  0.00    +0.131 C 
ATOM     20  C   UNL     1       1.927  -3.072  -4.642  0.00  0.00    +0.015 C 
ENDROOT
BRANCH  19  21
ATOM     21  C   UNL     1      -0.251  -4.501  -4.147  0.00  0.00    +0.190 C 
ATOM     22  O   UNL     1       0.364  -5.510  -4.398  0.00  0.00    -0.292 OA
BRANCH  21  23
ATOM     23  C   UNL     1      -1.425  -4.103  -5.003  0.00  0.00    +0.233 C 
BRANCH  23  24
ATOM     24  O   UNL     1      -1.610  -5.070  -6.038  0.00  0.00    -0.387 OA
ATOM     25  H   UNL     1      -2.351  -4.878  -6.629  0.00  0.00    +0.210 HD
ENDBRANCH  23  24
ENDBRANCH  21  23
ENDBRANCH  19  21
BRANCH  19  26
ATOM     26  O   UNL     1      -0.996  -3.042  -2.382  0.00  0.00    -0.380 OA
ATOM     27  H   UNL     1      -1.655  -3.679  -2.072  0.00  0.00    +0.211 HD
ENDBRANCH  19  26
BRANCH  13  28
ATOM     28  O   UNL     1      -0.916   0.544  -2.976  0.00  0.00    -0.391 OA
ATOM     29  H   UNL     1      -1.585   0.431  -3.665  0.00  0.00    +0.210 HD
ENDBRANCH  13  28
TORSDOF 5
