REMARK  Name = ZINC39314554
REMARK  7 active torsions:
REMARK  status: ('A' for Active; 'I' for Inactive)
REMARK    1  A    between atoms: C_1  and  O_2
REMARK    2  A    between atoms: O_2  and  C_3
REMARK    3  A    between atoms: C_6  and  C_11
REMARK    4  A    between atoms: C_8  and  O_9
REMARK    5  A    between atoms: O_9  and  C_10
REMARK    6  A    between atoms: C_26  and  N_30
REMARK    7  A    between atoms: C_27  and  C_28
REMARK                            x       y       z     vdW  Elec       q    Type
REMARK                         _______ _______ _______ _____ _____    ______ ____
ROOT
ATOM      1  C   UNL     1      -4.987  -2.627   0.035  0.00  0.00    +0.084 C 
ATOM      2  C   UNL     1      -5.781  -2.224  -1.212  0.00  0.00    +0.154 C 
ATOM      3  C   UNL     1      -6.290  -0.820  -0.929  0.00  0.00    +0.129 C 
ATOM      4  C   UNL     1      -5.914   0.196  -1.795  0.00  0.00    +0.035 A 
ATOM      5  C   UNL     1      -6.361   1.520  -1.609  0.00  0.00    +0.013 A 
ATOM      6  C   UNL     1      -5.976   2.490  -2.483  0.00  0.00    +0.001 A 
ATOM      7  C   UNL     1      -5.145   2.202  -3.562  0.00  0.00    +0.002 A 
ATOM      8  C   UNL     1      -4.678   0.943  -3.792  0.00  0.00    +0.024 A 
ATOM      9  C   UNL     1      -5.033  -0.107  -2.930  0.00  0.00    +0.044 A 
ATOM     10  N   UNL     1      -4.567  -1.343  -3.152  0.00  0.00    -0.284 N 
ATOM     11  C   UNL     1      -4.868  -2.405  -2.403  0.00  0.00    +0.229 C 
ATOM     12  O   UNL     1      -4.413  -3.504  -2.661  0.00  0.00    -0.275 OA
ATOM     13  O   UNL     1      -7.061  -0.625   0.143  0.00  0.00    -0.444 OA
ATOM     14  C   UNL     1      -6.707  -1.284   1.272  0.00  0.00    +0.198 C 
ATOM     15  C   UNL     1      -5.749  -2.234   1.271  0.00  0.00    +0.095 C 
ATOM     16  H   UNL     1      -3.978  -1.478  -3.910  0.00  0.00    +0.155 HD
ENDROOT
BRANCH   1  20
ATOM     17  C   UNL     1      -1.201  -0.638   0.010  0.00  0.00    +0.162 A 
ATOM     18  C   UNL     1      -2.374   0.099   0.019  0.00  0.00    +0.050 A 
ATOM     19  C   UNL     1      -3.596  -0.546   0.027  0.00  0.00    +0.008 A 
ATOM     20  C   UNL     1      -3.652  -1.928   0.026  0.00  0.00    -0.034 A 
ATOM     21  C   UNL     1      -2.485  -2.669   0.017  0.00  0.00    +0.053 A 
ATOM     22  C   UNL     1      -1.257  -2.028   0.003  0.00  0.00    +0.162 A 
BRANCH  17  24
ATOM     23  C   UNL     1      -0.017   1.425   0.010  0.00  0.00    +0.277 C 
ATOM     24  O   UNL     1       0.002  -0.004   0.002  0.00  0.00    -0.491 OA
ENDBRANCH  17  24
BRANCH  22  25
ATOM     25  O   UNL     1      -0.108  -2.756  -0.012  0.00  0.00    -0.491 OA
ATOM     26  C   UNL     1      -0.242  -4.179  -0.018  0.00  0.00    +0.277 C 
ENDBRANCH  22  25
ENDBRANCH   1  20
BRANCH  14  27
ATOM     27  N   UNL     1      -7.340  -0.975   2.450  0.00  0.00    -0.328 N 
ATOM     28  H   UNL     1      -8.030  -0.294   2.466  0.00  0.00    +0.145 HD
ATOM     29  H   UNL     1      -7.098  -1.438   3.267  0.00  0.00    +0.145 HD
ENDBRANCH  14  27
BRANCH  15  30
ATOM     30  C   UNL     1      -5.445  -2.898   2.502  0.00  0.00    +0.100 C 
ATOM     31  N   UNL     1      -5.203  -3.425   3.480  0.00  0.00    -0.191 NA
ENDBRANCH  15  30
TORSDOF 5
