REMARK  Name = ZINC39664852
REMARK  8 active torsions:
REMARK  status: ('A' for Active; 'I' for Inactive)
REMARK    1  A    between atoms: C_1  and  N_2
REMARK    2  A    between atoms: N_2  and  C_3
REMARK    3  A    between atoms: N_2  and  C_4
REMARK    4  A    between atoms: C_4  and  C_5
REMARK    5  A    between atoms: C_5  and  C_7
REMARK    6  A    between atoms: C_5  and  N_13
REMARK    7  A    between atoms: C_14  and  C_16
REMARK    8  A    between atoms: C_27  and  C_29
REMARK                            x       y       z     vdW  Elec       q    Type
REMARK                         _______ _______ _______ _____ _____    ______ ____
ROOT
ATOM      1  C   UNL     1       2.058  -4.244   2.156  0.00  0.00    +0.100 C 
ATOM      2  C   UNL     1       1.781  -3.476   3.468  0.00  0.00    +0.121 C 
ATOM      3  N   UNL     1       3.115  -3.300   4.088  0.00  0.00    -0.296 N 
ATOM      4  C   UNL     1       4.015  -3.003   2.947  0.00  0.00    +0.115 C 
ATOM      5  C   UNL     1       3.525  -3.930   1.817  0.00  0.00    -0.004 C 
ATOM      6  C   UNL     1       3.615  -3.216   0.472  0.00  0.00    -0.010 C 
ATOM      7  C   UNL     1       5.087  -2.967   0.130  0.00  0.00    -0.082 C 
ATOM      8  N   UNL     1       5.802  -4.247   0.075  0.00  0.00    +0.379 N 
ATOM      9  C   UNL     1       5.790  -4.885   1.397  0.00  0.00    -0.082 C 
ATOM     10  C   UNL     1       4.348  -5.215   1.794  0.00  0.00    -0.010 C 
ATOM     11  C   UNL     1       3.438  -3.389   5.393  0.00  0.00    +0.248 C 
ATOM     12  O   UNL     1       4.568  -3.126   5.760  0.00  0.00    -0.270 OA
ATOM     13  H   UNL     1       5.352  -4.854  -0.593  0.00  0.00    -0.086 HD
ATOM     14  H   UNL     1       6.756  -4.086  -0.210  0.00  0.00    -0.086 HD
ENDROOT
BRANCH  11  15
ATOM     15  C   UNL     1       2.426  -3.803   6.373  0.00  0.00    +0.052 A 
ATOM     16  C   UNL     1       1.123  -3.448   6.228  0.00  0.00    +0.059 A 
ATOM     17  S   UNL     1       0.329  -4.119   7.543  0.00  0.00    -0.096 S 
ATOM     18  C   UNL     1       1.687  -4.910   8.360  0.00  0.00    +0.020 A 
ATOM     19  C   UNL     1       2.790  -4.619   7.535  0.00  0.00    +0.001 A 
ATOM     20  C   UNL     1       4.042  -5.128   7.927  0.00  0.00    +0.010 A 
ATOM     21  C   UNL     1       4.159  -5.880   9.069  0.00  0.00    +0.001 A 
ATOM     22  C   UNL     1       3.056  -6.157   9.863  0.00  0.00    +0.001 A 
ATOM     23  C   UNL     1       1.816  -5.662   9.508  0.00  0.00    +0.015 A 
ENDBRANCH  11  15
BRANCH   1  25
ATOM     24  N   UNL     1       0.766  -4.592   0.076  0.00  0.00    -0.310 N 
ATOM     25  C   UNL     1       1.149  -3.753   1.059  0.00  0.00    +0.219 C 
ATOM     26  O   UNL     1       0.763  -2.604   1.060  0.00  0.00    -0.275 OA
ATOM     27  H   UNL     1       1.015  -5.529   0.113  0.00  0.00    +0.149 HD
BRANCH  24  28
ATOM     28  C   UNL     1      -0.027  -4.089  -1.049  0.00  0.00    +0.087 C 
BRANCH  28  29
ATOM     29  C   UNL     1       0.257  -4.919  -2.275  0.00  0.00    -0.029 A 
ATOM     30  C   UNL     1       0.396  -6.290  -2.164  0.00  0.00    +0.005 A 
ATOM     31  C   UNL     1       0.655  -7.051  -3.288  0.00  0.00    +0.000 A 
ATOM     32  C   UNL     1       0.776  -6.441  -4.523  0.00  0.00    +0.000 A 
ATOM     33  C   UNL     1       0.637  -5.070  -4.634  0.00  0.00    +0.000 A 
ATOM     34  C   UNL     1       0.372  -4.309  -3.510  0.00  0.00    +0.005 A 
ENDBRANCH  28  29
BRANCH  28  35
ATOM     35  C   UNL     1      -1.515  -4.179  -0.705  0.00  0.00    -0.052 C 
BRANCH  35  37
ATOM     36  C   UNL     1      -3.736  -3.795  -1.526  0.00  0.00    -0.097 C 
ATOM     37  N   UNL     1      -2.306  -3.590  -1.793  0.00  0.00    +0.377 N 
ATOM     38  C   UNL     1      -2.026  -2.150  -1.878  0.00  0.00    -0.097 C 
ATOM     39  H   UNL     1      -2.059  -4.032  -2.666  0.00  0.00    -0.083 HD
ENDBRANCH  35  37
ENDBRANCH  28  35
ENDBRANCH  24  28
ENDBRANCH   1  25
TORSDOF 6
