REMARK  Name = ZINC13211883
REMARK  8 active torsions:
REMARK  status: ('A' for Active; 'I' for Inactive)
REMARK    1  A    between atoms: C_1  and  C_2
REMARK    2  A    between atoms: C_2  and  C_4
REMARK    3  A    between atoms: C_2  and  N_13
REMARK    4  A    between atoms: N_13  and  C_14
REMARK    5  A    between atoms: C_17  and  C_23
REMARK    6  A    between atoms: C_19  and  N_20
REMARK    7  A    between atoms: N_25  and  C_26
REMARK    8  A    between atoms: C_26  and  C_27
REMARK                            x       y       z     vdW  Elec       q    Type
REMARK                         _______ _______ _______ _____ _____    ______ ____
ROOT
ATOM      1  C   UNL     1       3.280  -0.836   1.484  0.00  0.00    +0.058 A 
ATOM      2  C   UNL     1       4.474  -0.147   1.683  0.00  0.00    +0.026 A 
ATOM      3  C   UNL     1       5.601  -0.823   2.090  0.00  0.00    +0.015 A 
ATOM      4  C   UNL     1       5.549  -2.206   2.292  0.00  0.00    +0.039 A 
ATOM      5  C   UNL     1       4.351  -2.895   2.086  0.00  0.00    +0.047 A 
ATOM      6  C   UNL     1       3.226  -2.212   1.684  0.00  0.00    +0.148 A 
ENDROOT
BRANCH   4   7
ATOM      7  C   UNL     1       6.757  -2.935   2.722  0.00  0.00    +0.245 C 
ATOM      8  O   UNL     1       6.711  -4.138   2.898  0.00  0.00    -0.270 OA
ATOM      9  N   UNL     1       7.912  -2.269   2.921  0.00  0.00    -0.301 N 
ATOM     10  H   UNL     1       7.949  -1.310   2.781  0.00  0.00    +0.150 HD
BRANCH   9  11
ATOM     11  C   UNL     1       9.111  -2.993   3.348  0.00  0.00    +0.229 C 
BRANCH  11  12
ATOM     12  C   UNL     1      10.257  -2.025   3.497  0.00  0.00    +0.373 C 
ATOM     13  O   UNL     1      10.088  -0.850   3.269  0.00  0.00    -0.245 OA
ATOM     14  O   UNL     1      11.464  -2.467   3.882  0.00  0.00    -0.245 OA
ENDBRANCH  11  12
ENDBRANCH   9  11
ENDBRANCH   4   7
BRANCH   6  15
ATOM     15  N   UNL     1       1.957  -2.942   1.465  0.00  0.00    +0.058 N 
ATOM     16  O   UNL     1       1.642  -3.853   2.209  0.00  0.00    -0.126 OA
ATOM     17  O   UNL     1       1.227  -2.630   0.541  0.00  0.00    -0.126 OA
ENDBRANCH   6  15
BRANCH   1  18
ATOM     18  N   UNL     1       2.142  -0.148   1.078  0.00  0.00    -0.335 N 
ATOM     19  H   UNL     1       1.287  -0.606   1.038  0.00  0.00    +0.147 HD
BRANCH  18  21
ATOM     20  C   UNL     1       2.663   1.387  -0.753  0.00  0.00    +0.033 C 
ATOM     21  C   UNL     1       2.233   1.267   0.710  0.00  0.00    +0.099 C 
BRANCH  21  22
ATOM     22  C   UNL     1       0.887   1.921   0.894  0.00  0.00    -0.006 A 
ATOM     23  C   UNL     1      -0.268   1.174   0.762  0.00  0.00    +0.046 A 
ATOM     24  C   UNL     1      -1.504   1.775   0.926  0.00  0.00    +0.142 A 
ATOM     25  C   UNL     1      -1.581   3.125   1.232  0.00  0.00    +0.077 A 
ATOM     26  C   UNL     1      -0.425   3.871   1.364  0.00  0.00    +0.043 A 
ATOM     27  C   UNL     1       0.810   3.269   1.195  0.00  0.00    +0.047 A 
ATOM     28 CL   UNL     1       2.261   4.207   1.360  0.00  0.00    -0.083 Cl
ATOM     29 CL   UNL     1      -3.131   3.879   1.444  0.00  0.00    -0.081 Cl
ATOM     30  F   UNL     1      -2.633   1.046   0.792  0.00  0.00    -0.204 F 
ENDBRANCH  21  22
ENDBRANCH  18  21
ENDBRANCH   1  18
TORSDOF 7
