REMARK  Name = ZINC09662504
REMARK  8 active torsions:
REMARK  status: ('A' for Active; 'I' for Inactive)
REMARK    1  A    between atoms: C_1  and  C_2
REMARK    2  A    between atoms: C_5  and  N_8
REMARK    3  A    between atoms: N_8  and  C_9
REMARK    4  A    between atoms: N_8  and  S_10
REMARK    5  A    between atoms: S_10  and  C_13
REMARK    6  A    between atoms: C_17  and  C_19
REMARK    7  A    between atoms: N_21  and  C_22
REMARK    8  A    between atoms: C_23  and  C_31
REMARK                            x       y       z     vdW  Elec       q    Type
REMARK                         _______ _______ _______ _____ _____    ______ ____
ROOT
ATOM      1  C   UNL     1      -0.009   2.798   0.454  0.00  0.00    +0.109 A 
ATOM      2  C   UNL     1       0.607   3.594  -0.496  0.00  0.00    +0.029 A 
ATOM      3  C   UNL     1       1.340   4.701  -0.109  0.00  0.00    +0.003 A 
ATOM      4  C   UNL     1       1.462   5.019   1.228  0.00  0.00    +0.013 A 
ATOM      5  C   UNL     1       0.844   4.220   2.191  0.00  0.00    +0.039 A 
ATOM      6  C   UNL     1       0.101   3.107   1.794  0.00  0.00    +0.042 A 
ENDROOT
BRANCH   5   7
ATOM      7  C   UNL     1       0.970   4.554   3.625  0.00  0.00    +0.249 C 
ATOM      8  O   UNL     1       0.430   3.857   4.462  0.00  0.00    -0.270 OA
ATOM      9  N   UNL     1       1.683   5.633   4.005  0.00  0.00    -0.275 N 
ATOM     10  H   UNL     1       2.114   6.189   3.338  0.00  0.00    +0.156 HD
BRANCH   9  11
ATOM     11  C   UNL     1       1.802   5.946   5.350  0.00  0.00    +0.085 A 
ATOM     12  C   UNL     1       2.491   7.001   5.932  0.00  0.00    +0.068 A 
ATOM     13  C   UNL     1       2.454   7.109   7.380  0.00  0.00    -0.023 A 
ATOM     14  C   UNL     1       1.748   6.146   8.011  0.00  0.00    -0.004 A 
ATOM     15  S   UNL     1       1.131   5.113   6.713  0.00  0.00    -0.077 S 
ATOM     16  C   UNL     1       1.541   5.997   9.487  0.00  0.00    +0.043 C 
ATOM     17  C   UNL     1       2.562   6.888  10.210  0.00  0.00    +0.005 C 
ATOM     18  C   UNL     1       2.545   8.279   9.568  0.00  0.00    +0.005 C 
ATOM     19  C   UNL     1       3.154   8.211   8.166  0.00  0.00    +0.037 C 
BRANCH  12  20
ATOM     20  C   UNL     1       3.226   7.972   5.116  0.00  0.00    +0.244 C 
ATOM     21  O   UNL     1       2.666   8.976   4.713  0.00  0.00    -0.270 OA
ATOM     22  N   UNL     1       4.520   7.754   4.810  0.00  0.00    -0.325 N 
ATOM     23  H   UNL     1       4.966   6.954   5.131  0.00  0.00    +0.145 HD
ATOM     24  H   UNL     1       5.006   8.396   4.270  0.00  0.00    +0.145 HD
ENDBRANCH  12  20
ENDBRANCH   9  11
ENDBRANCH   5   7
BRANCH   1  25
ATOM     25  S   UNL     1      -0.941   1.390  -0.050  0.00  0.00    +0.074 S 
ATOM     26  O   UNL     1      -1.482   1.697  -1.328  0.00  0.00    -0.150 OA
ATOM     27  O   UNL     1      -1.758   1.027   1.055  0.00  0.00    -0.150 OA
BRANCH  25  28
ATOM     28  N   UNL     1       0.131   0.148  -0.275  0.00  0.00    -0.206 N 
ATOM     29  C   UNL     1       0.750  -0.056  -1.587  0.00  0.00    +0.157 C 
BRANCH  28  34
ATOM     30  C   UNL     1       1.402  -3.316   4.031  0.00  0.00    +0.044 C 
ATOM     31  C   UNL     1       1.064  -2.396   2.887  0.00  0.00    -0.050 A 
ATOM     32  C   UNL     1       0.506  -2.909   1.730  0.00  0.00    +0.005 A 
ATOM     33  C   UNL     1       0.195  -2.068   0.680  0.00  0.00    +0.025 A 
ATOM     34  C   UNL     1       0.444  -0.705   0.786  0.00  0.00    +0.051 A 
ATOM     35  C   UNL     1       1.010  -0.194   1.947  0.00  0.00    +0.025 A 
ATOM     36  C   UNL     1       1.313  -1.040   2.995  0.00  0.00    +0.005 A 
ENDBRANCH  28  34
ENDBRANCH  25  28
ENDBRANCH   1  25
TORSDOF 6
