REMARK  Name = ZINC03051860
REMARK  3 active torsions:
REMARK  status: ('A' for Active; 'I' for Inactive)
REMARK    1  A    between atoms: C_3  and  C_11
REMARK    2  A    between atoms: C_4  and  N_8
REMARK    3  A    between atoms: C_6  and  N_7
REMARK                            x       y       z     vdW  Elec       q    Type
REMARK                         _______ _______ _______ _____ _____    ______ ____
ROOT
ATOM      1  C   UNL     1       3.655  -0.477   1.577  0.00  0.00    +0.023 A 
ATOM      2  C   UNL     1       2.397  -0.257   1.052  0.00  0.00    +0.008 A 
ATOM      3  C   UNL     1       2.253   0.430  -0.139  0.00  0.00    -0.007 A 
ATOM      4  C   UNL     1       3.369   0.895  -0.812  0.00  0.00    +0.132 A 
ATOM      5  C   UNL     1       4.630   0.683  -0.289  0.00  0.00    +0.055 A 
ATOM      6  C   UNL     1       4.777  -0.006   0.907  0.00  0.00    +0.027 A 
ENDROOT
BRANCH   3   7
ATOM      7  C   UNL     1       0.878   0.668  -0.709  0.00  0.00    +0.087 C 
ATOM      8  C   UNL     1      -0.011   1.337   0.345  0.00  0.00    +0.016 C 
ATOM      9  C   UNL     1      -1.439   1.448  -0.192  0.00  0.00    +0.001 C 
ATOM     10  C   UNL     1      -2.017   0.051  -0.421  0.00  0.00    +0.008 C 
ATOM     11  C   UNL     1      -1.202  -0.666  -1.508  0.00  0.00    +0.075 C 
ATOM     12  C   UNL     1       0.254  -0.654  -1.096  0.00  0.00    +0.141 C 
ATOM     13  O   UNL     1       0.901  -1.673  -1.082  0.00  0.00    -0.297 OA
ENDBRANCH   3   7
BRANCH   6  14
ATOM     14  N   UNL     1       6.051  -0.227   1.436  0.00  0.00    -0.358 N 
ATOM     15  H   UNL     1       6.153  -0.708   2.272  0.00  0.00    +0.142 HD
ATOM     16  H   UNL     1       6.834   0.102   0.967  0.00  0.00    +0.142 HD
ENDBRANCH   6  14
BRANCH   4  17
ATOM     17  N   UNL     1       3.211   1.624  -2.090  0.00  0.00    +0.057 N 
ATOM     18  O   UNL     1       3.973   1.405  -3.014  0.00  0.00    -0.126 OA
ATOM     19  O   UNL     1       2.318   2.443  -2.217  0.00  0.00    -0.126 OA
ENDBRANCH   4  17
TORSDOF 3
