REMARK  Name = ZINC37238675
REMARK  5 active torsions:
REMARK  status: ('A' for Active; 'I' for Inactive)
REMARK    1  A    between atoms: C_1  and  C_2
REMARK    2  A    between atoms: C_4  and  S_10
REMARK    3  A    between atoms: C_6  and  C_7
REMARK    4  A    between atoms: S_10  and  N_13
REMARK    5  A    between atoms: C_17  and  C_20
REMARK                            x       y       z     vdW  Elec       q    Type
REMARK                         _______ _______ _______ _____ _____    ______ ____
ROOT
ATOM      1  S   UNL     1       0.033  -3.231  -2.437  0.00  0.00    +0.067 S 
ATOM      2  O   UNL     1      -0.498  -4.448  -1.932  0.00  0.00    -0.152 OA
ATOM      3  O   UNL     1      -0.533  -2.557  -3.553  0.00  0.00    -0.152 OA
ENDROOT
BRANCH   1   7
ATOM      4  C   UNL     1      -0.018   1.503   0.010  0.00  0.00    +0.045 C 
ATOM      5  C   UNL     1       0.002  -0.004   0.002  0.00  0.00    -0.027 A 
ATOM      6  C   UNL     1       0.006  -0.728  -1.164  0.00  0.00    +0.040 A 
ATOM      7  C   UNL     1       0.025  -2.084  -1.099  0.00  0.00    +0.144 A 
ATOM      8  S   UNL     1       0.037  -2.418   0.547  0.00  0.00    -0.062 S 
ATOM      9  C   UNL     1       0.024  -0.750   1.175  0.00  0.00    +0.105 A 
BRANCH   9  10
ATOM     10  C   UNL     1       0.031  -0.301   2.519  0.00  0.00    +0.393 C 
ATOM     11  O   UNL     1       0.017   0.899   2.764  0.00  0.00    -0.240 OA
ATOM     12  O   UNL     1       0.051  -1.113   3.436  0.00  0.00    -0.240 OA
ENDBRANCH   9  10
ENDBRANCH   1   7
BRANCH   1  13
ATOM     13  N   UNL     1       1.617  -3.528  -2.817  0.00  0.00    -0.175 NA
ATOM     14  C   UNL     1       2.318  -2.699  -3.807  0.00  0.00    +0.109 C 
ATOM     15  C   UNL     1       3.607  -2.161  -3.177  0.00  0.00    +0.018 C 
ATOM     16  C   UNL     1       4.434  -3.331  -2.639  0.00  0.00    +0.015 C 
ATOM     17  C   UNL     1       3.638  -4.066  -1.559  0.00  0.00    +0.090 C 
ATOM     18  C   UNL     1       2.351  -4.622  -2.166  0.00  0.00    +0.122 C 
BRANCH  17  19
ATOM     19  C   UNL     1       4.465  -5.198  -1.006  0.00  0.00    +0.215 C 
ATOM     20  O   UNL     1       4.064  -6.340  -1.091  0.00  0.00    -0.276 OA
ATOM     21  N   UNL     1       5.651  -4.942  -0.419  0.00  0.00    -0.329 N 
ATOM     22  H   UNL     1       5.972  -4.029  -0.352  0.00  0.00    +0.145 HD
ATOM     23  H   UNL     1       6.184  -5.670  -0.064  0.00  0.00    +0.145 HD
ENDBRANCH  17  19
ENDBRANCH   1  13
TORSDOF 4
