REMARK  Name = ZINC61107418
REMARK  7 active torsions:
REMARK  status: ('A' for Active; 'I' for Inactive)
REMARK    1  A    between atoms: C_1  and  C_2
REMARK    2  A    between atoms: C_2  and  S_3
REMARK    3  A    between atoms: S_3  and  N_6
REMARK    4  A    between atoms: N_6  and  C_7
REMARK    5  A    between atoms: C_7  and  C_8
REMARK    6  A    between atoms: C_8  and  N_9
REMARK    7  A    between atoms: N_12  and  C_13
REMARK                            x       y       z     vdW  Elec       q    Type
REMARK                         _______ _______ _______ _____ _____    ______ ____
ROOT
ATOM      1  N   UNL     1      -1.513  -5.139  -1.742  0.00  0.00    -0.298 N 
ATOM      2  C   UNL     1      -1.543  -6.468  -1.968  0.00  0.00    +0.304 C 
ATOM      3  O   UNL     1      -0.506  -7.081  -2.129  0.00  0.00    -0.253 OA
ATOM      4  N   UNL     1      -2.724  -7.116  -2.015  0.00  0.00    -0.269 N 
ATOM      5  H   UNL     1      -2.341  -4.650  -1.613  0.00  0.00    +0.150 HD
ATOM      6  H   UNL     1      -3.547  -6.641  -1.820  0.00  0.00    +0.156 HD
ENDROOT
BRANCH   4   7
ATOM      7  C   UNL     1      -2.763  -8.477  -2.345  0.00  0.00    +0.038 A 
ATOM      8  C   UNL     1      -3.822  -8.982  -3.087  0.00  0.00    +0.027 A 
ATOM      9  C   UNL     1      -3.861 -10.324  -3.414  0.00  0.00    +0.051 A 
ATOM     10  C   UNL     1      -2.845 -11.170  -3.002  0.00  0.00    +0.173 A 
ATOM     11  C   UNL     1      -1.781 -10.667  -2.257  0.00  0.00    +0.174 A 
ATOM     12  C   UNL     1      -1.740  -9.321  -1.934  0.00  0.00    +0.073 A 
ATOM     13  O   UNL     1      -0.921 -11.690  -1.978  0.00  0.00    -0.395 OA
ATOM     14  C   UNL     1      -1.672 -12.897  -2.207  0.00  0.00    +0.589 C 
ATOM     15  O   UNL     1      -2.651 -12.509  -3.189  0.00  0.00    -0.395 OA
ATOM     16  F   UNL     1      -0.842 -13.904  -2.712  0.00  0.00    -0.125 F 
ATOM     17  F   UNL     1      -2.298 -13.318  -1.029  0.00  0.00    -0.125 F 
ENDBRANCH   4   7
BRANCH   1  18
ATOM     18  C   UNL     1      -0.230  -4.434  -1.691  0.00  0.00    +0.122 C 
BRANCH  18  19
ATOM     19  C   UNL     1      -0.475  -2.948  -1.424  0.00  0.00    +0.124 C 
BRANCH  19  20
ATOM     20  N   UNL     1       0.808  -2.243  -1.373  0.00  0.00    -0.193 NA
ATOM     21  H   UNL     1       1.634  -2.744  -1.282  0.00  0.00    +0.148 HD
BRANCH  20  22
ATOM     22  S   UNL     1       0.850  -0.590  -1.469  0.00  0.00    +0.029 S 
ATOM     23  O   UNL     1       0.074  -0.274  -2.618  0.00  0.00    -0.158 OA
ATOM     24  O   UNL     1       2.230  -0.258  -1.413  0.00  0.00    -0.158 OA
BRANCH  22  26
ATOM     25  C   UNL     1      -0.014   1.515   0.048  0.00  0.00    +0.029 C 
ATOM     26  C   UNL     1       0.007  -0.014   0.031  0.00  0.00    +0.181 C 
ENDBRANCH  22  26
ENDBRANCH  20  22
ENDBRANCH  19  20
ENDBRANCH  18  19
ENDBRANCH   1  18
TORSDOF 6
