REMARK  Name = ZINC35851618
REMARK  4 active torsions:
REMARK  status: ('A' for Active; 'I' for Inactive)
REMARK    1  A    between atoms: C_1  and  C_2
REMARK    2  A    between atoms: C_4  and  N_35
REMARK    3  A    between atoms: C_7  and  N_8
REMARK    4  A    between atoms: C_28  and  C_33
REMARK                            x       y       z     vdW  Elec       q    Type
REMARK                         _______ _______ _______ _____ _____    ______ ____
ROOT
ATOM      1  N   UNL     1      -0.185  -0.025   2.417  0.00  0.00    -0.210 N 
ATOM      2  C   UNL     1      -1.348   0.141   3.058  0.00  0.00    +0.232 C 
ATOM      3  O   UNL     1      -2.423  -0.270   2.676  0.00  0.00    -0.274 OA
ATOM      4  C   UNL     1      -1.112   0.919   4.333  0.00  0.00    +0.107 C 
ATOM      5  C   UNL     1      -1.774   2.304   4.216  0.00  0.00    +0.071 C 
ATOM      6  C   UNL     1      -2.928   2.404   5.231  0.00  0.00    +0.021 C 
ATOM      7  C   UNL     1      -2.302   2.990   6.511  0.00  0.00    +0.017 C 
ATOM      8  C   UNL     1      -0.807   3.175   6.180  0.00  0.00    +0.086 C 
ATOM      9  N   UNL     1      -0.736   3.275   4.678  0.00  0.00    -0.281 NA
ATOM     10  C   UNL     1       0.533   2.719   4.178  0.00  0.00    +0.138 C 
ATOM     11  C   UNL     1       0.419   1.182   4.315  0.00  0.00    +0.123 C 
ATOM     12  C   UNL     1       0.872   0.514   3.036  0.00  0.00    +0.233 C 
ATOM     13  O   UNL     1       2.015   0.475   2.633  0.00  0.00    -0.274 OA
ATOM     14  C   UNL     1       0.793   3.131   2.756  0.00  0.00    +0.005 A 
ATOM     15  C   UNL     1       0.101   2.957   1.578  0.00  0.00    +0.027 A 
ATOM     16  C   UNL     1       0.610   3.465   0.395  0.00  0.00    +0.042 A 
ATOM     17  C   UNL     1       1.815   4.146   0.400  0.00  0.00    +0.025 A 
ATOM     18  C   UNL     1       2.509   4.323   1.578  0.00  0.00    -0.028 A 
ATOM     19  C   UNL     1       2.004   3.816   2.773  0.00  0.00    +0.042 A 
ATOM     20  N   UNL     1       2.513   3.865   4.073  0.00  0.00    -0.283 N 
ATOM     21  C   UNL     1       1.708   3.245   4.957  0.00  0.00    +0.243 C 
ATOM     22  O   UNL     1       1.894   3.133   6.150  0.00  0.00    -0.273 OA
ATOM     23  C   UNL     1       3.820   5.067   1.572  0.00  0.00    +0.046 C 
ATOM     24 CL   UNL     1      -0.261   3.247  -1.091  0.00  0.00    -0.084 Cl
ATOM     25  H   UNL     1       3.349   4.296   4.311  0.00  0.00    +0.155 HD
ENDROOT
BRANCH   1  32
ATOM     26  C   UNL     1       0.555  -2.772   2.479  0.00  0.00    +0.046 C 
ATOM     27  C   UNL     1       0.276  -2.052   1.185  0.00  0.00    -0.026 A 
ATOM     28  C   UNL     1       0.371  -2.727  -0.017  0.00  0.00    +0.038 A 
ATOM     29  C   UNL     1       0.116  -2.067  -1.205  0.00  0.00    +0.127 A 
ATOM     30  C   UNL     1      -0.235  -0.730  -1.194  0.00  0.00    +0.034 A 
ATOM     31  C   UNL     1      -0.332  -0.049   0.004  0.00  0.00    +0.026 A 
ATOM     32  C   UNL     1      -0.082  -0.711   1.199  0.00  0.00    +0.047 A 
BRANCH  29  33
ATOM     33  N   UNL     1       0.219  -2.794  -2.490  0.00  0.00    +0.056 N 
ATOM     34  O   UNL     1       0.526  -3.963  -2.501  0.00  0.00    -0.126 OA
ATOM     35  O   UNL     1      -0.004  -2.218  -3.530  0.00  0.00    -0.126 OA
ENDBRANCH  29  33
ENDBRANCH   1  32
TORSDOF 2
