REMARK  Name = ZINC42934263
REMARK  7 active torsions:
REMARK  status: ('A' for Active; 'I' for Inactive)
REMARK    1  A    between atoms: C_1  and  C_2
REMARK    2  A    between atoms: C_8  and  C_10
REMARK    3  A    between atoms: C_10  and  C_12
REMARK    4  A    between atoms: C_10  and  S_15
REMARK    5  A    between atoms: C_12  and  C_13
REMARK    6  A    between atoms: C_12  and  C_14
REMARK    7  A    between atoms: S_15  and  C_16
REMARK                            x       y       z     vdW  Elec       q    Type
REMARK                         _______ _______ _______ _____ _____    ______ ____
ROOT
ATOM      1  C   UNL     1      -0.121  -3.987   3.001  0.00  0.00    +0.142 C 
ENDROOT
BRANCH   1   9
ATOM      2  C   UNL     1      -1.896   2.019   2.101  0.00  0.00    +0.007 C 
ATOM      3  C   UNL     1      -1.193   0.742   1.635  0.00  0.00    -0.011 C 
ATOM      4  C   UNL     1      -2.212  -0.188   0.973  0.00  0.00    +0.022 C 
ATOM      5  C   UNL     1      -1.499  -1.450   0.477  0.00  0.00    +0.108 C 
ATOM      6  N   UNL     1      -0.771  -2.054   1.601  0.00  0.00    -0.301 N 
ATOM      7  C   UNL     1       0.168  -1.221   2.364  0.00  0.00    +0.108 C 
ATOM      8  C   UNL     1      -0.564   0.038   2.839  0.00  0.00    +0.022 C 
ATOM      9  C   UNL     1      -0.961  -3.349   1.925  0.00  0.00    +0.229 C 
ATOM     10  O   UNL     1      -1.809  -3.999   1.352  0.00  0.00    -0.274 OA
ENDBRANCH   1   9
BRANCH   1  11
ATOM     11  C   UNL     1       0.844  -4.991   2.366  0.00  0.00    +0.005 C 
ATOM     12  C   UNL     1       0.050  -6.017   1.555  0.00  0.00    +0.009 C 
ATOM     13  C   UNL     1       1.815  -4.252   1.444  0.00  0.00    +0.009 C 
ENDBRANCH   1  11
BRANCH   1  14
ATOM     14  S   UNL     1      -1.198  -4.846   4.181  0.00  0.00    -0.084 S 
BRANCH  14  15
ATOM     15  C   UNL     1      -0.096  -5.404   5.437  0.00  0.00    +0.161 A 
ATOM     16  N   UNL     1       1.210  -5.245   5.534  0.00  0.00    -0.133 NA
ATOM     17  N   UNL     1       1.884  -5.768   6.613  0.00  0.00    -0.125 NA
ATOM     18  C   UNL     1       1.222  -6.425   7.545  0.00  0.00    +0.180 A 
ATOM     19  S   UNL     1      -0.450  -6.327   6.925  0.00  0.00    -0.025 S 
ATOM     20  N   UNL     1       1.698  -7.028   8.704  0.00  0.00    -0.336 N 
ATOM     21  H   UNL     1       2.644  -6.995   8.915  0.00  0.00    +0.144 HD
ATOM     22  H   UNL     1       1.083  -7.481   9.302  0.00  0.00    +0.144 HD
ENDBRANCH  14  15
ENDBRANCH   1  14
TORSDOF 4
