REMARK  Name = ZINC09263097
REMARK  8 active torsions:
REMARK  status: ('A' for Active; 'I' for Inactive)
REMARK    1  A    between atoms: C_1  and  C_2
REMARK    2  A    between atoms: C_7  and  N_8
REMARK    3  A    between atoms: C_9  and  C_11
REMARK    4  A    between atoms: C_11  and  C_32
REMARK    5  A    between atoms: C_12  and  C_13
REMARK    6  A    between atoms: N_15  and  C_22
REMARK    7  A    between atoms: C_22  and  C_23
REMARK    8  A    between atoms: C_26  and  N_29
REMARK                            x       y       z     vdW  Elec       q    Type
REMARK                         _______ _______ _______ _____ _____    ______ ____
ROOT
ATOM      1  C   UNL     1       4.643   8.297  -0.470  0.00  0.00    +0.002 A 
ATOM      2  C   UNL     1       5.957   7.871  -0.507  0.00  0.00    +0.095 A 
ATOM      3  N   UNL     1       6.767   8.927  -0.713  0.00  0.00    -0.342 N 
ATOM      4  C   UNL     1       6.034  10.092  -0.822  0.00  0.00    +0.050 A 
ATOM      5  C   UNL     1       4.678   9.758  -0.683  0.00  0.00    +0.007 A 
ATOM      6  C   UNL     1       3.704  10.749  -0.744  0.00  0.00    +0.010 A 
ATOM      7  C   UNL     1       4.076  12.060  -0.954  0.00  0.00    +0.001 A 
ATOM      8  C   UNL     1       5.414  12.392  -1.098  0.00  0.00    +0.002 A 
ATOM      9  C   UNL     1       6.390  11.420  -1.034  0.00  0.00    +0.026 A 
ENDROOT
BRANCH   1  11
ATOM     10  C   UNL     1       3.460   6.205  -0.774  0.00  0.00    +0.114 C 
ATOM     11  C   UNL     1       3.496   7.495  -0.274  0.00  0.00    +0.034 C 
BRANCH  10  13
ATOM     12  N   UNL     1       2.197   4.152  -1.148  0.00  0.00    -0.281 N 
ATOM     13  C   UNL     1       2.232   5.408  -0.662  0.00  0.00    +0.259 C 
ATOM     14  O   UNL     1       1.245   5.883  -0.130  0.00  0.00    -0.269 OA
ATOM     15  H   UNL     1       3.006   3.744  -1.495  0.00  0.00    +0.155 HD
BRANCH  12  22
ATOM     16  C   UNL     1       2.326   1.310  -1.141  0.00  0.00    +0.045 C 
ATOM     17  C   UNL     1       1.012   2.048  -1.149  0.00  0.00    -0.029 A 
ATOM     18  C   UNL     1      -0.176   1.344  -1.153  0.00  0.00    +0.006 A 
ATOM     19  C   UNL     1      -1.382   2.020  -1.166  0.00  0.00    +0.020 A 
ATOM     20  C   UNL     1      -1.403   3.404  -1.164  0.00  0.00    +0.043 A 
ATOM     21  C   UNL     1      -0.217   4.114  -1.159  0.00  0.00    +0.043 A 
ATOM     22  C   UNL     1       0.995   3.437  -1.152  0.00  0.00    +0.038 A 
ATOM     23 CL   UNL     1      -2.920   4.248  -1.173  0.00  0.00    -0.083 Cl
ENDBRANCH  12  22
ENDBRANCH  10  13
BRANCH  10  24
ATOM     24  C   UNL     1       4.621   5.647  -1.399  0.00  0.00    +0.104 C 
ATOM     25  N   UNL     1       5.542   5.204  -1.896  0.00  0.00    -0.191 NA
ENDBRANCH  10  24
ENDBRANCH   1  11
BRANCH   3  26
ATOM     26  C   UNL     1       8.227   8.850  -0.810  0.00  0.00    +0.157 C 
BRANCH  26  27
ATOM     27  C   UNL     1       8.836   9.142   0.538  0.00  0.00    -0.028 A 
ATOM     28  C   UNL     1       9.164  10.440   0.882  0.00  0.00    +0.007 A 
ATOM     29  C   UNL     1       9.717  10.708   2.120  0.00  0.00    +0.033 A 
ATOM     30  C   UNL     1       9.952   9.676   3.010  0.00  0.00    +0.126 A 
ATOM     31  C   UNL     1       9.629   8.378   2.664  0.00  0.00    +0.033 A 
ATOM     32  C   UNL     1       9.071   8.110   1.428  0.00  0.00    +0.007 A 
BRANCH  30  33
ATOM     33  N   UNL     1      10.549   9.963   4.334  0.00  0.00    +0.056 N 
ATOM     34  O   UNL     1      10.755   9.054   5.119  0.00  0.00    -0.126 OA
ATOM     35  O   UNL     1      10.833  11.107   4.639  0.00  0.00    -0.126 OA
ENDBRANCH  30  33
ENDBRANCH  26  27
ENDBRANCH   3  26
TORSDOF 7
