REMARK  Name = ZINC50396643
REMARK  5 active torsions:
REMARK  status: ('A' for Active; 'I' for Inactive)
REMARK    1  A    between atoms: C_4  and  S_16
REMARK    2  A    between atoms: C_5  and  N_7
REMARK    3  A    between atoms: N_7  and  C_8
REMARK    4  A    between atoms: S_16  and  N_19
REMARK    5  A    between atoms: N_19  and  C_20
REMARK                            x       y       z     vdW  Elec       q    Type
REMARK                         _______ _______ _______ _____ _____    ______ ____
ROOT
ATOM      1  C   UNL     1      -0.100   1.171  -0.924  0.00  0.00    +0.002 A 
ATOM      2  C   UNL     1       1.046   1.944  -0.970  0.00  0.00    +0.002 A 
ATOM      3  C   UNL     1       2.279   1.375  -0.712  0.00  0.00    +0.030 A 
ATOM      4  C   UNL     1       2.371   0.031  -0.406  0.00  0.00    +0.126 A 
ATOM      5  C   UNL     1       1.222  -0.749  -0.359  0.00  0.00    +0.054 A 
ATOM      6  C   UNL     1      -0.015  -0.173  -0.620  0.00  0.00    +0.025 A 
ENDROOT
BRANCH   4   7
ATOM      7  S   UNL     1       3.943  -0.694  -0.078  0.00  0.00    +0.060 S 
ATOM      8  O   UNL     1       4.907   0.337  -0.242  0.00  0.00    -0.153 OA
ATOM      9  O   UNL     1       3.808  -1.425   1.133  0.00  0.00    -0.153 OA
BRANCH   7  10
ATOM     10  N   UNL     1       4.229  -1.804  -1.272  0.00  0.00    -0.187 NA
ATOM     11  H   UNL     1       4.285  -2.748  -1.054  0.00  0.00    +0.148 HD
BRANCH  10  12
ATOM     12  C   UNL     1       4.399  -1.362  -2.659  0.00  0.00    +0.077 C 
ATOM     13  C   UNL     1       3.880  -2.285  -3.763  0.00  0.00    +0.022 C 
ATOM     14  C   UNL     1       5.385  -2.140  -3.532  0.00  0.00    +0.022 C 
ENDBRANCH  10  12
ENDBRANCH   7  10
ENDBRANCH   4   7
BRANCH   5  15
ATOM     15  N   UNL     1       1.311  -2.108  -0.050  0.00  0.00    -0.331 N 
ATOM     16  H   UNL     1       2.174  -2.504   0.150  0.00  0.00    +0.147 HD
BRANCH  15  17
ATOM     17  C   UNL     1       0.102  -2.935  -0.030  0.00  0.00    +0.157 C 
ATOM     18  C   UNL     1       0.480  -4.394  -0.295  0.00  0.00    +0.033 C 
ATOM     19  C   UNL     1      -0.741  -5.273   0.001  0.00  0.00    +0.021 C 
ATOM     20  C   UNL     1      -1.022  -5.230   1.504  0.00  0.00    +0.104 C 
ATOM     21  N   UNL     1      -1.078  -3.851   1.973  0.00  0.00    -0.314 N 
ATOM     22  C   UNL     1      -0.560  -2.816   1.312  0.00  0.00    +0.233 C 
ATOM     23  O   UNL     1      -0.630  -1.718   1.823  0.00  0.00    -0.274 OA
ATOM     24  H   UNL     1      -1.518  -3.677   2.820  0.00  0.00    +0.149 HD
ENDBRANCH  15  17
ENDBRANCH   5  15
TORSDOF 5
