REMARK  Name = ZINC09472459
REMARK  9 active torsions:
REMARK  status: ('A' for Active; 'I' for Inactive)
REMARK    1  A    between atoms: C_1  and  C_2
REMARK    2  A    between atoms: C_3  and  C_26
REMARK    3  A    between atoms: C_4  and  N_11
REMARK    4  A    between atoms: C_6  and  C_7
REMARK    5  A    between atoms: C_7  and  O_9
REMARK    6  A    between atoms: O_9  and  C_10
REMARK    7  A    between atoms: C_12  and  C_14
REMARK    8  A    between atoms: C_23  and  O_24
REMARK    9  A    between atoms: O_24  and  C_25
REMARK                            x       y       z     vdW  Elec       q    Type
REMARK                         _______ _______ _______ _____ _____    ______ ____
ROOT
ATOM      1  N   UNL     1       3.679   1.666  -0.025  0.00  0.00    -0.275 N 
ATOM      2  C   UNL     1       4.675   0.758  -0.039  0.00  0.00    +0.252 C 
ATOM      3  O   UNL     1       4.415  -0.429  -0.042  0.00  0.00    -0.270 OA
ATOM      4  H   UNL     1       3.886   2.614  -0.022  0.00  0.00    +0.156 HD
ENDROOT
BRANCH   2   5
ATOM      5  C   UNL     1       6.081   1.206  -0.050  0.00  0.00    +0.079 A 
ATOM      6  C   UNL     1       6.372   2.561  -0.046  0.00  0.00    +0.025 A 
ATOM      7  C   UNL     1       7.710   2.980  -0.057  0.00  0.00    -0.017 A 
ATOM      8  C   UNL     1       8.042   4.347  -0.053  0.00  0.00    +0.008 A 
ATOM      9  C   UNL     1       9.349   4.723  -0.063  0.00  0.00    +0.001 A 
ATOM     10  C   UNL     1      10.369   3.772  -0.078  0.00  0.00    +0.001 A 
ATOM     11  C   UNL     1      10.087   2.441  -0.083  0.00  0.00    +0.008 A 
ATOM     12  C   UNL     1       8.748   2.013  -0.072  0.00  0.00    -0.014 A 
ATOM     13  C   UNL     1       8.426   0.645  -0.076  0.00  0.00    +0.055 A 
ATOM     14  C   UNL     1       7.120   0.252  -0.059  0.00  0.00    +0.133 A 
BRANCH  14  15
ATOM     15  O   UNL     1       6.817  -1.071  -0.057  0.00  0.00    -0.494 OA
ATOM     16  C   UNL     1       7.914  -1.988  -0.067  0.00  0.00    +0.277 C 
ENDBRANCH  14  15
ENDBRANCH   2   5
BRANCH   1  20
ATOM     17  C   UNL     1      -1.316   2.128   0.020  0.00  0.00    +0.046 C 
ATOM     18  C   UNL     1      -0.017   1.365   0.009  0.00  0.00    -0.015 A 
ATOM     19  C   UNL     1       1.202   2.025   0.002  0.00  0.00    +0.069 A 
ATOM     20  C   UNL     1       2.364   1.247  -0.014  0.00  0.00    +0.085 A 
ATOM     21  S   UNL     1       1.746  -0.372  -0.017  0.00  0.00    -0.066 S 
ATOM     22  C   UNL     1       0.002  -0.004   0.002  0.00  0.00    +0.102 A 
BRANCH  19  23
ATOM     23  C   UNL     1       1.270   3.493   0.008  0.00  0.00    +0.244 C 
ATOM     24  O   UNL     1       1.309   4.095   1.065  0.00  0.00    -0.270 OA
ATOM     25  N   UNL     1       1.291   4.172  -1.156  0.00  0.00    -0.325 N 
ATOM     26  H   UNL     1       1.260   3.692  -1.998  0.00  0.00    +0.145 HD
ATOM     27  H   UNL     1       1.336   5.141  -1.151  0.00  0.00    +0.145 HD
ENDBRANCH  19  23
BRANCH  22  28
ATOM     28  C   UNL     1      -1.127  -0.933   0.007  0.00  0.00    +0.346 C 
ATOM     29  O   UNL     1      -2.266  -0.505   0.020  0.00  0.00    -0.244 OA
BRANCH  28  30
ATOM     30  O   UNL     1      -0.906  -2.264  -0.002  0.00  0.00    -0.464 OA
ATOM     31  C   UNL     1      -2.056  -3.112   0.004  0.00  0.00    +0.280 C 
ENDBRANCH  28  30
ENDBRANCH  22  28
ENDBRANCH   1  20
TORSDOF 6
