REMARK  Name = ZINC33630068
REMARK  12 active torsions:
REMARK  status: ('A' for Active; 'I' for Inactive)
REMARK    1  A    between atoms: C_1  and  C_2
REMARK    2  A    between atoms: C_4  and  C_10
REMARK    3  A    between atoms: C_6  and  C_9
REMARK    4  A    between atoms: C_7  and  O_8
REMARK    5  A    between atoms: N_18  and  C_21
REMARK    6  A    between atoms: C_21  and  C_22
REMARK    7  A    between atoms: C_21  and  C_23
REMARK    8  A    between atoms: C_21  and  C_24
REMARK    9  A    between atoms: C_25  and  C_27
REMARK   10  A    between atoms: C_25  and  C_35
REMARK   11  A    between atoms: C_27  and  C_28
REMARK   12  A    between atoms: C_31  and  O_34
REMARK                            x       y       z     vdW  Elec       q    Type
REMARK                         _______ _______ _______ _____ _____    ______ ____
ROOT
ATOM      1  C   UNL     1       0.028  -2.816  -2.516  0.00  0.00    -0.027 C 
ATOM      2  C   UNL     1      -1.334  -3.439  -2.770  0.00  0.00    +0.077 C 
ATOM      3  C   UNL     1      -1.125  -4.787  -1.978  0.00  0.00    +0.086 C 
ATOM      4  C   UNL     1      -2.480  -5.257  -1.838  0.00  0.00    +0.225 C 
ATOM      5  O   UNL     1      -2.865  -6.407  -1.836  0.00  0.00    -0.275 OA
ATOM      6  N   UNL     1      -3.241  -4.122  -1.706  0.00  0.00    -0.236 N 
ATOM      7  C   UNL     1      -2.555  -2.975  -2.039  0.00  0.00    +0.225 C 
ATOM      8  O   UNL     1      -2.866  -1.829  -1.791  0.00  0.00    -0.275 OA
ATOM      9  C   UNL     1       0.181  -5.239  -2.486  0.00  0.00    +0.052 C 
ATOM     10  N   UNL     1       0.989  -3.958  -2.459  0.00  0.00    +0.396 N 
ATOM     11  H   UNL     1       1.603  -3.929  -3.260  0.00  0.00    -0.083 HD
ATOM     12  H   UNL     1       1.532  -3.906  -1.610  0.00  0.00    -0.083 HD
ENDROOT
BRANCH   1  16
ATOM     13  C   UNL     1       0.484  -2.818   2.466  0.00  0.00    +0.047 C 
ATOM     14  C   UNL     1       0.243  -2.074   1.178  0.00  0.00    -0.009 A 
ATOM     15  C   UNL     1       0.245  -2.754  -0.024  0.00  0.00    +0.009 A 
ATOM     16  C   UNL     1       0.024  -2.071  -1.206  0.00  0.00    -0.060 A 
ATOM     17  C   UNL     1      -0.199  -0.707  -1.188  0.00  0.00    +0.009 A 
ATOM     18  C   UNL     1      -0.202  -0.022   0.012  0.00  0.00    -0.009 A 
ATOM     19  C   UNL     1       0.013  -0.706   1.200  0.00  0.00    +0.123 A 
ATOM     20  C   UNL     1      -0.446   1.465   0.031  0.00  0.00    +0.047 C 
BRANCH  19  21
ATOM     21  O   UNL     1       0.005  -0.035   2.382  0.00  0.00    -0.506 OA
ATOM     22  H   UNL     1       0.870   0.306   2.647  0.00  0.00    +0.292 HD
ENDBRANCH  19  21
ENDBRANCH   1  16
BRANCH   6  23
ATOM     23  C   UNL     1      -4.639  -4.127  -1.270  0.00  0.00    +0.036 C 
ATOM     24  C   UNL     1      -4.734  -4.737   0.130  0.00  0.00    +0.031 C 
ATOM     25  C   UNL     1      -5.169  -2.692  -1.238  0.00  0.00    +0.031 C 
ATOM     26  C   UNL     1      -5.475  -4.958  -2.246  0.00  0.00    +0.031 C 
ENDBRANCH   6  23
BRANCH   9  27
ATOM     27  C   UNL     1       0.052  -5.782  -3.886  0.00  0.00    +0.347 C 
ATOM     28  O   UNL     1       0.676  -5.268  -4.799  0.00  0.00    -0.248 OA
ATOM     29  O   UNL     1      -0.676  -6.735  -4.106  0.00  0.00    -0.248 OA
ENDBRANCH   9  27
BRANCH   9  30
ATOM     30  C   UNL     1       0.797  -6.282  -1.552  0.00  0.00    +0.035 C 
BRANCH  30  31
ATOM     31  C   UNL     1       2.181  -6.633  -2.032  0.00  0.00    -0.048 A 
ATOM     32  C   UNL     1       2.358  -7.667  -2.934  0.00  0.00    +0.007 A 
ATOM     33  C   UNL     1       3.626  -7.990  -3.376  0.00  0.00    +0.045 A 
ATOM     34  C   UNL     1       4.723  -7.277  -2.915  0.00  0.00    +0.117 A 
ATOM     35  C   UNL     1       4.543  -6.240  -2.011  0.00  0.00    +0.045 A 
ATOM     36  C   UNL     1       3.272  -5.917  -1.576  0.00  0.00    +0.007 A 
BRANCH  34  37
ATOM     37  O   UNL     1       5.971  -7.594  -3.348  0.00  0.00    -0.507 OA
ATOM     38  H   UNL     1       6.245  -7.117  -4.143  0.00  0.00    +0.292 HD
ENDBRANCH  34  37
ENDBRANCH  30  31
ENDBRANCH   9  30
TORSDOF 7
