REMARK  Name = ZINC13476133
REMARK  9 active torsions:
REMARK  status: ('A' for Active; 'I' for Inactive)
REMARK    1  A    between atoms: C_1  and  C_2
REMARK    2  A    between atoms: C_4  and  O_27
REMARK    3  A    between atoms: C_6  and  O_26
REMARK    4  A    between atoms: C_8  and  O_25
REMARK    5  A    between atoms: C_10  and  N_13
REMARK    6  A    between atoms: N_13  and  C_14
REMARK    7  A    between atoms: C_17  and  O_23
REMARK    8  A    between atoms: C_19  and  N_20
REMARK    9  A    between atoms: O_23  and  C_24
REMARK                            x       y       z     vdW  Elec       q    Type
REMARK                         _______ _______ _______ _____ _____    ______ ____
ROOT
ATOM      1  C   UNL     1       1.215   3.462  -0.037  0.00  0.00    +0.041 C 
ATOM      2  C   UNL     1       1.325   1.936  -0.055  0.00  0.00    +0.149 C 
ATOM      3  C   UNL     1       2.050   1.492  -1.328  0.00  0.00    +0.174 C 
ATOM      4  C   UNL     1       2.103  -0.039  -1.368  0.00  0.00    +0.178 C 
ATOM      5  C   UNL     1       0.677  -0.591  -1.289  0.00  0.00    +0.192 C 
ATOM      6  C   UNL     1       0.005  -0.066  -0.018  0.00  0.00    +0.235 C 
ATOM      7  O   UNL     1       0.016   1.363  -0.029  0.00  0.00    -0.351 OA
ENDROOT
BRANCH   6   8
ATOM      8  N   UNL     1       0.734  -0.551   1.156  0.00  0.00    -0.315 N 
ATOM      9  H   UNL     1       1.698  -0.651   1.121  0.00  0.00    +0.149 HD
BRANCH   8  10
ATOM     10  C   UNL     1       0.041  -0.869   2.329  0.00  0.00    +0.060 A 
ATOM     11  C   UNL     1      -1.348  -0.854   2.341  0.00  0.00    +0.029 A 
ATOM     12  C   UNL     1      -2.032  -1.175   3.497  0.00  0.00    +0.047 A 
ATOM     13  C   UNL     1      -1.332  -1.498   4.650  0.00  0.00    +0.122 A 
ATOM     14  C   UNL     1       0.054  -1.507   4.641  0.00  0.00    +0.080 A 
ATOM     15  C   UNL     1       0.740  -1.193   3.484  0.00  0.00    +0.150 A 
BRANCH  15  16
ATOM     16  N   UNL     1       2.220  -1.202   3.475  0.00  0.00    +0.058 N 
ATOM     17  O   UNL     1       2.833  -1.600   4.449  0.00  0.00    -0.126 OA
ATOM     18  O   UNL     1       2.825  -0.811   2.493  0.00  0.00    -0.126 OA
ENDBRANCH  15  16
BRANCH  13  19
ATOM     19  O   UNL     1      -2.006  -1.808   5.790  0.00  0.00    -0.495 OA
ATOM     20  C   UNL     1      -3.434  -1.779   5.727  0.00  0.00    +0.277 C 
ENDBRANCH  13  19
ENDBRANCH   8  10
ENDBRANCH   6   8
BRANCH   5  21
ATOM     21  O   UNL     1      -0.066  -0.163  -2.433  0.00  0.00    -0.385 OA
ATOM     22  H   UNL     1      -0.982  -0.474  -2.446  0.00  0.00    +0.210 HD
ENDBRANCH   5  21
BRANCH   4  23
ATOM     23  O   UNL     1       2.864  -0.520  -0.258  0.00  0.00    -0.386 OA
ATOM     24  H   UNL     1       2.933  -1.484  -0.217  0.00  0.00    +0.210 HD
ENDBRANCH   4  23
BRANCH   3  25
ATOM     25  O   UNL     1       3.380   2.016  -1.330  0.00  0.00    -0.387 OA
ATOM     26  H   UNL     1       3.422   2.982  -1.305  0.00  0.00    +0.210 HD
ENDBRANCH   3  25
TORSDOF 7
