REMARK  Name = ZINC31356091
REMARK  10 active torsions:
REMARK  status: ('A' for Active; 'I' for Inactive)
REMARK    1  A    between atoms: C_1  and  C_2
REMARK    2  A    between atoms: C_2  and  C_3
REMARK    3  A    between atoms: C_3  and  C_4
REMARK    4  A    between atoms: C_3  and  N_6
REMARK    5  A    between atoms: C_4  and  C_5
REMARK    6  A    between atoms: C_7  and  C_9
REMARK    7  A    between atoms: C_9  and  C_11
REMARK    8  A    between atoms: C_9  and  S_12
REMARK    9  A    between atoms: S_12  and  C_13
REMARK   10  A    between atoms: C_17  and  N_19
REMARK                            x       y       z     vdW  Elec       q    Type
REMARK                         _______ _______ _______ _____ _____    ______ ____
ROOT
ATOM      1  S   UNL     1      -1.072   3.770   0.611  0.00  0.00    -0.073 S 
ENDROOT
BRANCH   1   2
ATOM      2  C   UNL     1      -2.741   4.334   0.666  0.00  0.00    +0.192 A 
ATOM      3  N   UNL     1      -3.713   3.510   0.303  0.00  0.00    -0.207 NA
ATOM      4  C   UNL     1      -4.985   3.900   0.337  0.00  0.00    +0.122 A 
ATOM      5  C   UNL     1      -5.286   5.195   0.749  0.00  0.00    +0.086 A 
ATOM      6  C   UNL     1      -4.238   6.033   1.118  0.00  0.00    +0.122 A 
ATOM      7  N   UNL     1      -2.990   5.573   1.064  0.00  0.00    -0.207 NA
ATOM      8  N   UNL     1      -5.996   3.030  -0.039  0.00  0.00    -0.343 N 
ATOM      9  H   UNL     1      -7.045   3.359  -0.009  0.00  0.00    +0.144 HD
ATOM     10  H   UNL     1      -5.750   2.010  -0.369  0.00  0.00    +0.144 HD
BRANCH   6  11
ATOM     11  N   UNL     1      -4.490   7.331   1.535  0.00  0.00    -0.343 N 
ATOM     12  H   UNL     1      -3.657   7.987   1.825  0.00  0.00    +0.144 HD
ATOM     13  H   UNL     1      -5.524   7.704   1.578  0.00  0.00    +0.144 HD
ENDBRANCH   6  11
ENDBRANCH   1   2
BRANCH   1  14
ATOM     14  C   UNL     1      -1.331   2.079   0.020  0.00  0.00    +0.137 C 
ATOM     15  C   UNL     1      -1.905   2.117  -1.398  0.00  0.00    +0.029 C 
BRANCH  14  17
ATOM     16  N   UNL     1       0.002  -0.004   0.002  0.00  0.00    -0.312 N 
ATOM     17  C   UNL     1      -0.016   1.344   0.009  0.00  0.00    +0.226 C 
ATOM     18  O   UNL     1       1.026   1.964   0.003  0.00  0.00    -0.275 OA
ATOM     19  H   UNL     1      -0.943  -0.567   0.008  0.00  0.00    +0.149 HD
BRANCH  16  20
ATOM     20  C   UNL     1       1.281  -0.719  -0.014  0.00  0.00    +0.072 C 
BRANCH  20  22
ATOM     21  C   UNL     1       0.721  -1.982   2.068  0.00  0.00    +0.006 C 
ATOM     22  C   UNL     1       1.093  -2.112   0.590  0.00  0.00    +0.019 C 
ENDBRANCH  20  22
BRANCH  20  23
ATOM     23  C   UNL     1       1.773  -0.851  -1.456  0.00  0.00    +0.019 C 
ATOM     24  C   UNL     1       2.079   0.539  -2.019  0.00  0.00    +0.006 C 
ENDBRANCH  20  23
ENDBRANCH  16  20
ENDBRANCH  14  17
ENDBRANCH   1  14
TORSDOF 7
