REMARK  Name = ZINC00755735
REMARK  5 active torsions:
REMARK  status: ('A' for Active; 'I' for Inactive)
REMARK    1  A    between atoms: C_4  and  C_7
REMARK    2  A    between atoms: C_12  and  C_20
REMARK    3  A    between atoms: C_14  and  C_18
REMARK    4  A    between atoms: C_15  and  N_17
REMARK    5  A    between atoms: C_24  and  C_26
REMARK                            x       y       z     vdW  Elec       q    Type
REMARK                         _______ _______ _______ _____ _____    ______ ____
ROOT
ATOM      1  C   UNL     1      -1.753   7.366   3.418  0.00  0.00    +0.034 C 
ATOM      2  C   UNL     1      -2.764   6.743   2.454  0.00  0.00    +0.083 C 
ATOM      3  C   UNL     1      -2.052   6.262   1.211  0.00  0.00    +0.115 C 
ATOM      4  C   UNL     1      -0.778   5.832   1.272  0.00  0.00    +0.046 C 
ATOM      5  C   UNL     1      -0.070   5.347   0.030  0.00  0.00    +0.101 C 
ATOM      6  C   UNL     1      -0.784   5.842  -1.197  0.00  0.00    +0.098 C 
ATOM      7  C   UNL     1      -2.065   6.278  -1.115  0.00  0.00    +0.198 C 
ATOM      8  O   UNL     1      -2.731   6.277   0.049  0.00  0.00    -0.445 OA
ATOM      9  C   UNL     1      -0.067   5.820   2.488  0.00  0.00    +0.164 C 
ATOM     10  O   UNL     1       1.075   5.405   2.507  0.00  0.00    -0.292 OA
ATOM     11  C   UNL     1      -0.696   6.312   3.763  0.00  0.00    +0.088 C 
ENDROOT
BRANCH   1  15
ATOM     12  C   UNL     1      -3.751   8.615   6.982  0.00  0.00    +0.000 A 
ATOM     13  C   UNL     1      -3.079   9.540   6.206  0.00  0.00    +0.000 A 
ATOM     14  C   UNL     1      -2.433   9.137   5.052  0.00  0.00    +0.004 A 
ATOM     15  C   UNL     1      -2.457   7.807   4.676  0.00  0.00    -0.043 A 
ATOM     16  C   UNL     1      -3.134   6.882   5.449  0.00  0.00    +0.004 A 
ATOM     17  C   UNL     1      -3.776   7.285   6.605  0.00  0.00    +0.000 A 
ENDBRANCH   1  15
BRANCH   5  18
ATOM     18  C   UNL     1      -0.050   3.840   0.022  0.00  0.00    -0.034 A 
ATOM     19  C   UNL     1      -1.238   3.133   0.029  0.00  0.00    +0.004 A 
ATOM     20  C   UNL     1      -1.219   1.751   0.017  0.00  0.00    +0.001 A 
ATOM     21  C   UNL     1      -0.013   1.076   0.008  0.00  0.00    +0.012 A 
ATOM     22  C   UNL     1       1.175   1.783   0.000  0.00  0.00    +0.055 A 
ATOM     23  C   UNL     1       1.156   3.166   0.008  0.00  0.00    +0.017 A 
BRANCH  22  24
ATOM     24  C   UNL     1       2.490   1.047  -0.016  0.00  0.00    +0.417 C 
ATOM     25  F   UNL     1       2.253  -0.331  -0.020  0.00  0.00    -0.166 F 
ATOM     26  F   UNL     1       3.208   1.401  -1.163  0.00  0.00    -0.166 F 
ATOM     27  F   UNL     1       3.230   1.390   1.121  0.00  0.00    -0.166 F 
ENDBRANCH  22  24
ENDBRANCH   5  18
BRANCH   7  28
ATOM     28  N   UNL     1      -2.693   6.731  -2.249  0.00  0.00    -0.328 N 
ATOM     29  H   UNL     1      -3.610   7.045  -2.202  0.00  0.00    +0.145 HD
ATOM     30  H   UNL     1      -2.221   6.737  -3.096  0.00  0.00    +0.145 HD
ENDBRANCH   7  28
BRANCH   6  31
ATOM     31  C   UNL     1      -0.107   5.854  -2.458  0.00  0.00    +0.101 C 
ATOM     32  N   UNL     1       0.430   5.863  -3.459  0.00  0.00    -0.191 NA
ENDBRANCH   6  31
TORSDOF 5
