REMARK  Name = ZINC00940749
REMARK  4 active torsions:
REMARK  status: ('A' for Active; 'I' for Inactive)
REMARK    1  A    between atoms: C_1  and  C_2
REMARK    2  A    between atoms: C_3  and  C_24
REMARK    3  A    between atoms: C_4  and  C_17
REMARK    4  A    between atoms: C_10  and  C_12
REMARK                            x       y       z     vdW  Elec       q    Type
REMARK                         _______ _______ _______ _____ _____    ______ ____
ROOT
ATOM      1  C   UNL     1       0.638   1.236   0.151  0.00  0.00    +0.064 C 
ATOM      2  C   UNL     1       0.387  -0.247   0.058  0.00  0.00    +0.026 C 
ATOM      3  C   UNL     1      -0.884  -0.690  -0.181  0.00  0.00    +0.059 C 
ATOM      4  C   UNL     1      -1.090  -2.192  -0.268  0.00  0.00    +0.164 C 
ATOM      5  N   UNL     1       0.108  -3.020  -0.085  0.00  0.00    -0.209 N 
ATOM      6  C   UNL     1       1.315  -2.402   0.148  0.00  0.00    +0.215 C 
ATOM      7  N   UNL     1       1.405  -1.080   0.203  0.00  0.00    -0.330 N 
ATOM      8  N   UNL     1       2.241  -3.361   0.279  0.00  0.00    -0.197 NA
ATOM      9  C   UNL     1       1.689  -4.556   0.142  0.00  0.00    +0.153 C 
ATOM     10  N   UNL     1       0.344  -4.397  -0.089  0.00  0.00    -0.244 N 
ATOM     11  H   UNL     1       2.281  -0.696   0.367  0.00  0.00    +0.168 HD
ATOM     12  H   UNL     1      -0.310  -5.100  -0.227  0.00  0.00    +0.172 HD
ENDROOT
BRANCH   4  13
ATOM     13  C   UNL     1      -1.673  -2.509  -1.621  0.00  0.00    -0.021 A 
ATOM     14  C   UNL     1      -0.889  -2.396  -2.754  0.00  0.00    +0.007 A 
ATOM     15  C   UNL     1      -1.423  -2.687  -3.995  0.00  0.00    +0.015 A 
ATOM     16  C   UNL     1      -2.742  -3.091  -4.104  0.00  0.00    +0.018 A 
ATOM     17  C   UNL     1      -3.526  -3.203  -2.969  0.00  0.00    +0.015 A 
ATOM     18  C   UNL     1      -2.989  -2.917  -1.728  0.00  0.00    +0.007 A 
ATOM     19 BR   UNL     1      -3.473  -3.488  -5.802  0.00  0.00    -0.050 Br
ENDBRANCH   4  13
BRANCH   9  20
ATOM     20  C   UNL     1       2.394  -5.834   0.223  0.00  0.00    +0.053 A 
ATOM     21  C   UNL     1       3.742  -6.078   0.458  0.00  0.00    +0.019 A 
ATOM     22  C   UNL     1       4.114  -7.399   0.477  0.00  0.00    +0.008 A 
ATOM     23  C   UNL     1       3.171  -8.354   0.272  0.00  0.00    +0.046 A 
ATOM     24  S   UNL     1       1.748  -7.487   0.054  0.00  0.00    -0.094 S 
ENDBRANCH   9  20
BRANCH   3  25
ATOM     25  C   UNL     1      -1.955   0.207  -0.338  0.00  0.00    +0.241 C 
ATOM     26  O   UNL     1      -1.744   1.407  -0.379  0.00  0.00    -0.271 OA
ATOM     27  N   UNL     1      -3.215  -0.260  -0.445  0.00  0.00    -0.325 N 
ATOM     28  H   UNL     1      -3.392  -1.208  -0.336  0.00  0.00    +0.145 HD
ATOM     29  H   UNL     1      -3.945   0.351  -0.630  0.00  0.00    +0.145 HD
ENDBRANCH   3  25
TORSDOF 3
