REMARK  Name = ZINC20154715
REMARK  4 active torsions:
REMARK  status: ('A' for Active; 'I' for Inactive)
REMARK    1  A    between atoms: C_5  and  N_10
REMARK    2  A    between atoms: C_6  and  N_7
REMARK    3  A    between atoms: N_19  and  C_20
REMARK    4  A    between atoms: C_20  and  N_22
REMARK                            x       y       z     vdW  Elec       q    Type
REMARK                         _______ _______ _______ _____ _____    ______ ____
ROOT
ATOM      1  C   UNL     1      -0.016   1.356   0.009  0.00  0.00    +0.063 A 
ATOM      2  C   UNL     1       1.186   2.099   0.002  0.00  0.00    +0.083 A 
ATOM      3  C   UNL     1       2.385   1.351  -0.013  0.00  0.00    +0.043 A 
ATOM      4  C   UNL     1       2.401  -0.022  -0.021  0.00  0.00    +0.042 A 
ATOM      5  C   UNL     1       1.199  -0.717  -0.013  0.00  0.00    +0.061 A 
ATOM      6  C   UNL     1       0.002  -0.004   0.002  0.00  0.00    +0.149 A 
ATOM      7  S   UNL     1       3.626   2.623  -0.018  0.00  0.00    -0.052 S 
ATOM      8  C   UNL     1       2.514   4.022   0.001  0.00  0.00    +0.165 A 
ATOM      9  N   UNL     1       1.336   3.443   0.008  0.00  0.00    -0.225 NA
ATOM     10  N   UNL     1       2.818   5.373   0.006  0.00  0.00    -0.276 N 
ATOM     11  H   UNL     1       3.744   5.662  -0.000  0.00  0.00    +0.156 HD
ENDROOT
BRANCH   5  12
ATOM     12  N   UNL     1       1.190  -2.116  -0.021  0.00  0.00    -0.328 N 
ATOM     13  C   UNL     1       1.179  -2.859  -1.288  0.00  0.00    +0.105 C 
ATOM     14  C   UNL     1       2.340  -3.858  -1.285  0.00  0.00    +0.019 C 
ATOM     15  C   UNL     1       2.244  -4.741  -0.039  0.00  0.00    +0.003 C 
ATOM     16  C   UNL     1       2.352  -3.871   1.215  0.00  0.00    +0.019 C 
ATOM     17  C   UNL     1       1.197  -2.872   1.240  0.00  0.00    +0.105 C 
ENDBRANCH   5  12
BRANCH   6  18
ATOM     18  N   UNL     1      -1.280  -0.744   0.011  0.00  0.00    +0.058 N 
ATOM     19  O   UNL     1      -2.327  -0.140   0.025  0.00  0.00    -0.126 OA
ATOM     20  O   UNL     1      -1.280  -1.953   0.004  0.00  0.00    -0.126 OA
ENDBRANCH   6  18
BRANCH  10  21
ATOM     21  C   UNL     1       1.827   6.287   0.021  0.00  0.00    +0.133 C 
ATOM     22  S   UNL     1       0.193   5.777   0.032  0.00  0.00    -0.019 S 
BRANCH  21  23
ATOM     23  N   UNL     1       2.123   7.601   0.026  0.00  0.00    -0.340 N 
ATOM     24  H   UNL     1       3.049   7.890   0.020  0.00  0.00    +0.144 HD
ATOM     25  H   UNL     1       1.410   8.259   0.036  0.00  0.00    +0.144 HD
ENDBRANCH  21  23
ENDBRANCH  10  21
TORSDOF 4
