REMARK  Name = ZINC22985171
REMARK  6 active torsions:
REMARK  status: ('A' for Active; 'I' for Inactive)
REMARK    1  A    between atoms: C_1  and  C_2
REMARK    2  A    between atoms: C_5  and  N_9
REMARK    3  A    between atoms: C_6  and  C_8
REMARK    4  A    between atoms: C_13  and  C_15
REMARK    5  A    between atoms: C_15  and  N_16
REMARK    6  A    between atoms: C_27  and  C_31
REMARK                            x       y       z     vdW  Elec       q    Type
REMARK                         _______ _______ _______ _____ _____    ______ ____
ROOT
ATOM      1  N   UNL     1       5.523  -0.554  -3.233  0.00  0.00    -0.269 N 
ATOM      2  C   UNL     1       4.369   0.091  -2.973  0.00  0.00    +0.310 C 
ATOM      3  O   UNL     1       3.676   0.489  -3.889  0.00  0.00    -0.252 OA
ATOM      4  N   UNL     1       3.982   0.294  -1.698  0.00  0.00    -0.238 N 
ATOM      5  C   UNL     1       2.828   0.939  -1.438  0.00  0.00    +0.240 C 
ATOM      6  O   UNL     1       2.137   1.336  -2.351  0.00  0.00    -0.273 OA
ATOM      7  H   UNL     1       6.195  -0.833  -2.408  0.00  0.00    +0.156 HD
ATOM      8  H   UNL     1       4.610  -0.066  -0.869  0.00  0.00    +0.159 HD
ENDROOT
BRANCH   1  13
ATOM      9  C   UNL     1       6.917  -1.831  -8.582  0.00  0.00    +0.044 C 
ATOM     10  C   UNL     1       6.547  -1.493  -7.161  0.00  0.00    -0.050 A 
ATOM     11  C   UNL     1       5.219  -1.319  -6.816  0.00  0.00    +0.005 A 
ATOM     12  C   UNL     1       4.876  -1.008  -5.515  0.00  0.00    +0.024 A 
ATOM     13  C   UNL     1       5.867  -0.870  -4.552  0.00  0.00    +0.038 A 
ATOM     14  C   UNL     1       7.200  -1.039  -4.902  0.00  0.00    -0.029 A 
ATOM     15  C   UNL     1       7.536  -1.355  -6.204  0.00  0.00    +0.008 A 
ATOM     16  C   UNL     1       8.279  -0.883  -3.861  0.00  0.00    +0.045 C 
ENDBRANCH   1  13
BRANCH   5  17
ATOM     17  C   UNL     1       2.396   1.167  -0.012  0.00  0.00    +0.222 C 
BRANCH  17  18
ATOM     18  N   UNL     1       1.119   1.883   0.003  0.00  0.00    -0.290 N 
ATOM     19  C   UNL     1       1.118   3.241   0.021  0.00  0.00    +0.203 A 
ATOM     20  N   UNL     1      -0.001   3.916   0.034  0.00  0.00    -0.230 NA
ATOM     21  C   UNL     1      -1.175   3.293   0.031  0.00  0.00    +0.116 A 
ATOM     22  C   UNL     1      -1.276   1.893   0.009  0.00  0.00    +0.076 A 
ATOM     23  C   UNL     1      -0.031   1.182  -0.001  0.00  0.00    +0.263 A 
ATOM     24  O   UNL     1      -0.013  -0.037  -0.018  0.00  0.00    -0.267 OA
ATOM     25  C   UNL     1      -2.632   1.348   0.004  0.00  0.00    -0.023 A 
ATOM     26  C   UNL     1      -3.649   2.236   0.015  0.00  0.00    -0.004 A 
ATOM     27  S   UNL     1      -2.868   3.827   0.045  0.00  0.00    -0.073 S 
ATOM     28  C   UNL     1      -5.117   1.936   0.015  0.00  0.00    +0.046 C 
ATOM     29  C   UNL     1      -5.308   0.455   0.374  0.00  0.00    -0.009 C 
ATOM     30  C   UNL     1      -4.349  -0.384  -0.475  0.00  0.00    +0.008 C 
ATOM     31  C   UNL     1      -2.909  -0.153  -0.014  0.00  0.00    +0.037 C 
ATOM     32  C   UNL     1      -6.751   0.039   0.082  0.00  0.00    +0.008 C 
ENDBRANCH  17  18
ENDBRANCH   5  17
TORSDOF 3
