REMARK  Name = ZINC35577438
REMARK  3 active torsions:
REMARK  status: ('A' for Active; 'I' for Inactive)
REMARK    1  A    between atoms: C_3  and  C_16
REMARK    2  A    between atoms: N_7  and  S_8
REMARK    3  A    between atoms: S_8  and  C_11
REMARK                            x       y       z     vdW  Elec       q    Type
REMARK                         _______ _______ _______ _____ _____    ______ ____
ROOT
ATOM      1  C   UNL     1      -0.016   1.353   0.009  0.00  0.00    +0.018 A 
ATOM      2  C   UNL     1       1.165   2.092   0.002  0.00  0.00    +0.020 A 
ATOM      3  C   UNL     1       2.385   1.428  -0.138  0.00  0.00    +0.107 A 
ATOM      4  C   UNL     1       2.333  -0.035  -0.344  0.00  0.00    +0.167 A 
ATOM      5  N   UNL     1       1.183  -0.680   0.082  0.00  0.00    -0.344 N 
ATOM      6  C   UNL     1       0.002  -0.004   0.002  0.00  0.00    +0.084 A 
ATOM      7  N   UNL     1       3.323  -0.689  -0.901  0.00  0.00    -0.110 NA
ATOM      8  H   UNL     1       1.217  -1.587   0.426  0.00  0.00    +0.167 HD
ENDROOT
BRANCH   7   9
ATOM      9  S   UNL     1       3.220  -2.328  -1.111  0.00  0.00    +0.107 S 
ATOM     10  O   UNL     1       3.209  -2.904   0.188  0.00  0.00    -0.146 OA
ATOM     11  O   UNL     1       2.180  -2.552  -2.053  0.00  0.00    -0.146 OA
BRANCH   9  12
ATOM     12  C   UNL     1       4.717  -2.850  -1.880  0.00  0.00    +0.150 A 
ATOM     13  C   UNL     1       5.875  -3.257  -1.306  0.00  0.00    +0.037 A 
ATOM     14  C   UNL     1       6.932  -3.626  -2.116  0.00  0.00    +0.010 A 
ATOM     15  C   UNL     1       6.779  -3.570  -3.462  0.00  0.00    +0.047 A 
ATOM     16  S   UNL     1       5.099  -2.988  -3.619  0.00  0.00    -0.076 S 
ENDBRANCH   9  12
ENDBRANCH   7   9
BRANCH   3  17
ATOM     17  C   UNL     1       3.658   2.148  -0.085  0.00  0.00    +0.390 C 
ATOM     18  O   UNL     1       3.669   3.361   0.086  0.00  0.00    -0.240 OA
ATOM     19  O   UNL     1       4.712   1.538  -0.212  0.00  0.00    -0.240 OA
ENDBRANCH   3  17
TORSDOF 3
