REMARK  Name = ZINC13811305
REMARK  7 active torsions:
REMARK  status: ('A' for Active; 'I' for Inactive)
REMARK    1  A    between atoms: C_1  and  C_2
REMARK    2  A    between atoms: C_5  and  C_24
REMARK    3  A    between atoms: C_13  and  N_20
REMARK    4  A    between atoms: C_14  and  N_16
REMARK    5  A    between atoms: N_16  and  C_17
REMARK    6  A    between atoms: C_17  and  C_18
REMARK    7  A    between atoms: C_18  and  O_19
REMARK                            x       y       z     vdW  Elec       q    Type
REMARK                         _______ _______ _______ _____ _____    ______ ____
ROOT
ATOM      1  C   UNL     1       3.464  -3.985   2.363  0.00  0.00    +0.009 C 
ATOM      2  C   UNL     1       3.648  -2.664   3.112  0.00  0.00    +0.004 C 
ATOM      3  C   UNL     1       4.078  -2.949   4.554  0.00  0.00    +0.009 C 
ATOM      4  C   UNL     1       4.202  -1.625   5.313  0.00  0.00    +0.004 C 
ATOM      5  C   UNL     1       2.865  -0.884   5.259  0.00  0.00    +0.111 C 
ATOM      6  N   UNL     1       2.498  -0.634   3.859  0.00  0.00    -0.299 N 
ATOM      7  C   UNL     1       2.326  -1.893   3.122  0.00  0.00    +0.111 C 
ATOM      8  C   UNL     1       1.359   0.148   3.777  0.00  0.00    +0.221 A 
ATOM      9  N   UNL     1       0.772   0.552   4.893  0.00  0.00    -0.197 NA
ATOM     10  C   UNL     1      -0.324   1.305   4.853  0.00  0.00    +0.154 A 
ATOM     11  C   UNL     1      -0.849   1.672   3.617  0.00  0.00    +0.205 A 
ATOM     12  C   UNL     1      -0.208   1.223   2.466  0.00  0.00    +0.156 A 
ATOM     13  N   UNL     1       0.885   0.472   2.584  0.00  0.00    -0.197 NA
ATOM     14  N   UNL     1      -0.933   1.724   6.026  0.00  0.00    -0.341 N 
ATOM     15  C   UNL     1       4.574  -1.904   6.771  0.00  0.00    +0.009 C 
ATOM     16  H   UNL     1      -1.839   2.346   5.984  0.00  0.00    +0.144 HD
ATOM     17  H   UNL     1      -0.509   1.433   6.999  0.00  0.00    +0.144 HD
ENDROOT
BRANCH  11  18
ATOM     18  N   UNL     1      -2.063   2.514   3.529  0.00  0.00    +0.063 N 
ATOM     19  O   UNL     1      -3.164   1.994   3.495  0.00  0.00    -0.126 OA
ATOM     20  O   UNL     1      -1.962   3.727   3.490  0.00  0.00    -0.126 OA
ENDBRANCH  11  18
BRANCH  12  21
ATOM     21  N   UNL     1      -0.698   1.558   1.213  0.00  0.00    -0.325 N 
ATOM     22  H   UNL     1      -1.602   2.179   1.124  0.00  0.00    +0.148 HD
BRANCH  21  23
ATOM     23  C   UNL     1      -0.013   1.086   0.008  0.00  0.00    +0.130 C 
BRANCH  23  24
ATOM     24  C   UNL     1      -0.753   1.593  -1.232  0.00  0.00    +0.174 C 
BRANCH  24  25
ATOM     25  O   UNL     1      -0.672   3.018  -1.285  0.00  0.00    -0.393 OA
ATOM     26  H   UNL     1      -1.148   3.566  -2.111  0.00  0.00    +0.209 HD
ENDBRANCH  24  25
ENDBRANCH  23  24
ENDBRANCH  21  23
ENDBRANCH  12  21
TORSDOF 5
