REMARK  Name = ZINC48427632
REMARK  5 active torsions:
REMARK  status: ('A' for Active; 'I' for Inactive)
REMARK    1  A    between atoms: C_1  and  C_2
REMARK    2  A    between atoms: N_11  and  C_15
REMARK    3  A    between atoms: C_15  and  C_16
REMARK    4  A    between atoms: N_18  and  S_19
REMARK    5  A    between atoms: S_19  and  C_22
REMARK                            x       y       z     vdW  Elec       q    Type
REMARK                         _______ _______ _______ _____ _____    ______ ____
ROOT
ATOM      1  C   UNL     1      -0.019   1.526   0.010  0.00  0.00    +0.010 C 
ATOM      2  C   UNL     1       0.002  -0.004   0.002  0.00  0.00    +0.018 C 
ATOM      3  C   UNL     1      -1.434  -0.533   0.012  0.00  0.00    +0.006 C 
ATOM      4  C   UNL     1      -1.413  -2.063   0.024  0.00  0.00    +0.000 C 
ATOM      5  C   UNL     1      -0.690  -2.554   1.280  0.00  0.00    +0.003 C 
ATOM      6  C   UNL     1       0.749  -2.033   1.276  0.00  0.00    +0.035 C 
ATOM      7  C   UNL     1       0.741  -0.509   1.237  0.00  0.00    +0.115 C 
ATOM      8  C   UNL     1       0.111   0.049   2.493  0.00  0.00    +0.247 C 
ATOM      9  O   UNL     1      -1.023  -0.123   2.884  0.00  0.00    -0.273 OA
ATOM     10  N   UNL     1       1.078   0.778   3.087  0.00  0.00    -0.215 N 
ATOM     11  C   UNL     1       2.217   0.755   2.383  0.00  0.00    +0.310 C 
ATOM     12  O   UNL     1       3.230   1.337   2.717  0.00  0.00    -0.252 OA
ATOM     13  N   UNL     1       2.113   0.013   1.264  0.00  0.00    -0.285 N 
ATOM     14  H   UNL     1       2.808  -0.145   0.606  0.00  0.00    +0.151 HD
ENDROOT
BRANCH  10  15
ATOM     15  C   UNL     1       0.904   1.505   4.347  0.00  0.00    +0.220 C 
BRANCH  15  16
ATOM     16  C   UNL     1       1.267   0.606   5.501  0.00  0.00    +0.282 C 
ATOM     17  O   UNL     1       1.182   1.066   6.766  0.00  0.00    -0.268 OA
ATOM     18  N   UNL     1       1.658  -0.603   5.278  0.00  0.00    -0.089 NA
BRANCH  18  19
ATOM     19  S   UNL     1       2.057  -1.591   6.546  0.00  0.00    +0.108 S 
ATOM     20  O   UNL     1       3.218  -1.033   7.146  0.00  0.00    -0.146 OA
ATOM     21  O   UNL     1       0.858  -1.821   7.274  0.00  0.00    -0.146 OA
BRANCH  19  22
ATOM     22  C   UNL     1       2.538  -3.143   5.865  0.00  0.00    +0.150 A 
ATOM     23  C   UNL     1       3.769  -3.565   5.487  0.00  0.00    +0.037 A 
ATOM     24  C   UNL     1       3.913  -4.840   4.973  0.00  0.00    +0.010 A 
ATOM     25  C   UNL     1       2.818  -5.631   4.863  0.00  0.00    +0.047 A 
ATOM     26  S   UNL     1       1.531  -4.573   5.503  0.00  0.00    -0.076 S 
ENDBRANCH  19  22
ENDBRANCH  18  19
ENDBRANCH  15  16
ENDBRANCH  10  15
TORSDOF 4
