REMARK  Name = ZINC13064748
REMARK  14 active torsions:
REMARK  status: ('A' for Active; 'I' for Inactive)
REMARK    1  A    between atoms: C_1  and  C_2
REMARK    2  A    between atoms: C_2  and  C_3
REMARK    3  A    between atoms: C_3  and  C_5
REMARK    4  A    between atoms: C_3  and  N_14
REMARK    5  A    between atoms: N_9  and  C_10
REMARK    6  A    between atoms: C_10  and  C_11
REMARK    7  A    between atoms: C_11  and  O_12
REMARK    8  A    between atoms: O_12  and  C_13
REMARK    9  A    between atoms: N_14  and  C_15
REMARK   10  A    between atoms: N_14  and  C_30
REMARK   11  A    between atoms: C_15  and  C_16
REMARK   12  A    between atoms: C_20  and  C_29
REMARK   13  A    between atoms: C_21  and  C_28
REMARK   14  A    between atoms: C_30  and  C_31
REMARK                            x       y       z     vdW  Elec       q    Type
REMARK                         _______ _______ _______ _____ _____    ______ ____
ROOT
ATOM      1  N   UNL     1      -2.193  -0.120  -0.916  0.00  0.00    +0.391 N 
ATOM      2  H   UNL     1      -2.082  -0.414  -1.875  0.00  0.00    -0.080 HD
ENDROOT
BRANCH   1   3
ATOM      3  C   UNL     1      -1.170  -0.768  -0.085  0.00  0.00    +0.003 C 
BRANCH   3   4
ATOM      4  C   UNL     1      -1.376  -0.381   1.357  0.00  0.00    +0.138 A 
ATOM      5  N   UNL     1      -2.511  -0.378   2.012  0.00  0.00    -0.115 NA
ATOM      6  N   UNL     1      -2.274   0.013   3.217  0.00  0.00    -0.023 NA
ATOM      7  N   UNL     1      -1.017   0.258   3.347  0.00  0.00    -0.044 NA
ATOM      8  N   UNL     1      -0.428   0.022   2.224  0.00  0.00    -0.229 N 
BRANCH   8   9
ATOM      9  C   UNL     1       1.002   0.169   1.943  0.00  0.00    +0.175 C 
BRANCH   9  10
ATOM     10  C   UNL     1       1.281   1.589   1.447  0.00  0.00    +0.183 C 
BRANCH  10  11
ATOM     11  O   UNL     1       2.676   1.733   1.174  0.00  0.00    -0.381 OA
ATOM     12  C   UNL     1       3.046   3.030   0.702  0.00  0.00    +0.194 C 
ENDBRANCH  10  11
ENDBRANCH   9  10
ENDBRANCH   8   9
ENDBRANCH   3   4
BRANCH   3  14
ATOM     13  C   UNL     1      -0.988  -2.689  -1.673  0.00  0.00    +0.002 C 
ATOM     14  C   UNL     1      -1.285  -2.287  -0.227  0.00  0.00    -0.011 C 
ENDBRANCH   3  14
ENDBRANCH   1   3
BRANCH   1  15
ATOM     15  C   UNL     1      -3.528  -0.503  -0.438  0.00  0.00    -0.036 C 
BRANCH  15  16
ATOM     16  C   UNL     1      -4.572   0.020  -1.391  0.00  0.00    +0.001 A 
ATOM     17  C   UNL     1      -5.053  -0.782  -2.372  0.00  0.00    +0.017 A 
ATOM     18  C   UNL     1      -6.067  -0.243  -3.281  0.00  0.00    -0.001 A 
ATOM     19  C   UNL     1      -6.602  -1.023  -4.312  0.00  0.00    +0.013 A 
ATOM     20  C   UNL     1      -7.547  -0.491  -5.142  0.00  0.00    -0.047 A 
ATOM     21  C   UNL     1      -7.982   0.816  -4.973  0.00  0.00    -0.046 A 
ATOM     22  C   UNL     1      -7.469   1.603  -3.964  0.00  0.00    +0.030 A 
ATOM     23  C   UNL     1      -6.506   1.083  -3.105  0.00  0.00    +0.049 A 
ATOM     24  N   UNL     1      -5.976   1.846  -2.087  0.00  0.00    -0.322 N 
ATOM     25  H   UNL     1      -6.279   2.760  -1.968  0.00  0.00    +0.169 HD
ATOM     26  C   UNL     1      -5.049   1.342  -1.254  0.00  0.00    +0.251 A 
ATOM     27  O   UNL     1      -4.606   2.044  -0.362  0.00  0.00    -0.268 OA
ATOM     28  C   UNL     1      -9.025   1.382  -5.902  0.00  0.00    +0.044 C 
ATOM     29  C   UNL     1      -8.123  -1.331  -6.253  0.00  0.00    +0.044 C 
ENDBRANCH  15  16
ENDBRANCH   1  15
BRANCH   1  30
ATOM     30  C   UNL     1      -2.041   1.339  -0.831  0.00  0.00    -0.045 C 
BRANCH  30  31
ATOM     31  C   UNL     1      -0.720   1.753  -1.481  0.00  0.00    +0.102 C 
ATOM     32  C   UNL     1      -0.510   3.274  -1.317  0.00  0.00    +0.032 C 
ATOM     33  C   UNL     1       0.102   3.672  -2.687  0.00  0.00    +0.030 C 
ATOM     34  C   UNL     1      -0.633   2.690  -3.634  0.00  0.00    +0.160 C 
ATOM     35  O   UNL     1      -0.759   1.469  -2.885  0.00  0.00    -0.378 OA
ENDBRANCH  30  31
ENDBRANCH   1  30
TORSDOF 10
