REMARK  Name = ZINC43214033
REMARK  4 active torsions:
REMARK  status: ('A' for Active; 'I' for Inactive)
REMARK    1  A    between atoms: C_4  and  N_24
REMARK    2  A    between atoms: C_5  and  C_7
REMARK    3  A    between atoms: C_9  and  C_12
REMARK    4  A    between atoms: N_14  and  C_15
REMARK                            x       y       z     vdW  Elec       q    Type
REMARK                         _______ _______ _______ _____ _____    ______ ____
ROOT
ATOM      1  C   UNL     1       1.280  -2.159  -0.080  0.00  0.00    +0.230 A 
ATOM      2  N   UNL     1       0.241  -2.947  -0.199  0.00  0.00    -0.204 NA
ATOM      3  C   UNL     1       0.677  -4.234  -0.195  0.00  0.00    +0.164 A 
ATOM      4  C   UNL     1       2.032  -4.202  -0.068  0.00  0.00    +0.230 A 
ATOM      5  O   UNL     1       2.393  -2.910  -0.003  0.00  0.00    -0.443 OA
ENDROOT
BRANCH   1  10
ATOM      6  C   UNL     1       0.441   1.399  -0.937  0.00  0.00    +0.001 A 
ATOM      7  C   UNL     1       1.154   2.089   0.029  0.00  0.00    +0.002 A 
ATOM      8  C   UNL     1       1.909   1.406   0.961  0.00  0.00    +0.023 A 
ATOM      9  C   UNL     1       1.958   0.019   0.935  0.00  0.00    +0.037 A 
ATOM     10  C   UNL     1       1.237  -0.683  -0.042  0.00  0.00    +0.057 A 
ATOM     11  C   UNL     1       0.478   0.021  -0.978  0.00  0.00    +0.015 A 
BRANCH   9  12
ATOM     12  N   UNL     1       2.719  -0.673   1.874  0.00  0.00    -0.357 N 
ATOM     13  H   UNL     1       3.288  -0.186   2.490  0.00  0.00    +0.142 HD
ATOM     14  H   UNL     1       2.679  -1.641   1.913  0.00  0.00    +0.142 HD
ENDBRANCH   9  12
ENDBRANCH   1  10
BRANCH   3  15
ATOM     15  C   UNL     1      -0.162  -5.441  -0.308  0.00  0.00    +0.266 C 
ATOM     16  O   UNL     1       0.352  -6.543  -0.291  0.00  0.00    -0.268 OA
ATOM     17  N   UNL     1      -1.499  -5.324  -0.430  0.00  0.00    -0.299 N 
ATOM     18  H   UNL     1      -1.910  -4.445  -0.444  0.00  0.00    +0.150 HD
BRANCH  17  19
ATOM     19  C   UNL     1      -2.333  -6.524  -0.542  0.00  0.00    +0.159 C 
ATOM     20  C   UNL     1      -3.752  -6.210  -0.063  0.00  0.00    +0.032 C 
ATOM     21  C   UNL     1      -4.452  -7.472   0.406  0.00  0.00    +0.004 C 
ATOM     22  C   UNL     1      -4.730  -8.468  -0.705  0.00  0.00    +0.019 C 
ATOM     23  C   UNL     1      -3.426  -9.047  -1.256  0.00  0.00    +0.104 C 
ATOM     24  N   UNL     1      -2.919  -8.150  -2.307  0.00  0.00    -0.314 N 
ATOM     25  C   UNL     1      -2.396  -6.966  -1.989  0.00  0.00    +0.233 C 
ATOM     26  O   UNL     1      -1.974  -6.238  -2.862  0.00  0.00    -0.274 OA
ATOM     27  H   UNL     1      -2.963  -8.423  -3.237  0.00  0.00    +0.149 HD
ENDBRANCH  17  19
ENDBRANCH   3  15
TORSDOF 4
