REMARK  Name = ZINC39324879
REMARK  5 active torsions:
REMARK  status: ('A' for Active; 'I' for Inactive)
REMARK    1  A    between atoms: C_1  and  C_2
REMARK    2  A    between atoms: C_4  and  C_33
REMARK    3  A    between atoms: C_15  and  C_23
REMARK    4  A    between atoms: C_17  and  C_21
REMARK    5  A    between atoms: C_18  and  N_20
REMARK                            x       y       z     vdW  Elec       q    Type
REMARK                         _______ _______ _______ _____ _____    ______ ____
ROOT
ATOM      1  C   UNL     1      -0.018   1.503   0.010  0.00  0.00    +0.044 C 
ATOM      2  C   UNL     1       0.002  -0.004   0.002  0.00  0.00    -0.041 A 
ATOM      3  C   UNL     1      -0.096  -0.734  -1.179  0.00  0.00    +0.026 A 
ATOM      4  C   UNL     1      -0.078  -2.111  -1.180  0.00  0.00    +0.040 A 
ATOM      5  N   UNL     1       0.026  -2.811  -0.055  0.00  0.00    -0.245 NA
ATOM      6  C   UNL     1       0.117  -2.150   1.079  0.00  0.00    +0.103 A 
ATOM      7  C   UNL     1       0.127  -0.747   1.179  0.00  0.00    +0.009 A 
ATOM      8  C   UNL     1       0.287  -0.189   2.558  0.00  0.00    +0.127 C 
ATOM      9  C   UNL     1      -0.206  -1.200   3.621  0.00  0.00    +0.144 C 
ATOM     10  S   UNL     1       0.247  -2.759   2.741  0.00  0.00    -0.092 S 
ATOM     11  C   UNL     1      -1.712  -1.150   3.722  0.00  0.00    +0.132 C 
ATOM     12  C   UNL     1      -2.367   0.001   3.515  0.00  0.00    +0.066 C 
ATOM     13  C   UNL     1      -3.867   0.073   3.603  0.00  0.00    +0.103 C 
ATOM     14  C   UNL     1      -4.458  -1.307   3.526  0.00  0.00    +0.098 C 
ATOM     15  C   UNL     1      -3.684  -2.399   3.741  0.00  0.00    +0.198 C 
ATOM     16  O   UNL     1      -2.376  -2.283   4.026  0.00  0.00    -0.444 OA
ATOM     17  C   UNL     1      -1.606   1.214   3.205  0.00  0.00    +0.245 C 
ATOM     18  O   UNL     1      -2.102   2.311   3.383  0.00  0.00    -0.270 OA
ATOM     19  N   UNL     1      -0.391   1.086   2.716  0.00  0.00    -0.303 N 
ATOM     20  C   UNL     1      -0.180  -2.844  -2.493  0.00  0.00    +0.065 C 
ATOM     21  H   UNL     1       0.073   1.902   2.472  0.00  0.00    +0.150 HD
ENDROOT
BRANCH  13  22
ATOM     22  C   UNL     1      -4.261   0.710   4.911  0.00  0.00    -0.033 A 
ATOM     23  C   UNL     1      -3.878   0.128   6.106  0.00  0.00    +0.004 A 
ATOM     24  C   UNL     1      -4.238   0.711   7.306  0.00  0.00    +0.002 A 
ATOM     25  C   UNL     1      -4.983   1.876   7.312  0.00  0.00    +0.020 A 
ATOM     26  C   UNL     1      -5.366   2.459   6.118  0.00  0.00    +0.041 A 
ATOM     27  C   UNL     1      -5.000   1.878   4.917  0.00  0.00    +0.024 A 
ATOM     28 CL   UNL     1      -6.301   3.921   6.125  0.00  0.00    -0.084 Cl
ENDBRANCH  13  22
BRANCH  15  29
ATOM     29  N   UNL     1      -4.247  -3.649   3.666  0.00  0.00    -0.328 N 
ATOM     30  H   UNL     1      -5.191  -3.744   3.461  0.00  0.00    +0.145 HD
ATOM     31  H   UNL     1      -3.702  -4.436   3.818  0.00  0.00    +0.145 HD
ENDBRANCH  15  29
BRANCH  14  32
ATOM     32  C   UNL     1      -5.849  -1.470   3.223  0.00  0.00    +0.101 C 
ATOM     33  N   UNL     1      -6.952  -1.599   2.984  0.00  0.00    -0.191 NA
ENDBRANCH  14  32
TORSDOF 3
