REMARK  Name = ZINC64237017
REMARK  9 active torsions:
REMARK  status: ('A' for Active; 'I' for Inactive)
REMARK    1  A    between atoms: C_1  and  C_2
REMARK    2  A    between atoms: C_5  and  C_8
REMARK    3  A    between atoms: C_8  and  C_9
REMARK    4  A    between atoms: C_8  and  N_25
REMARK    5  A    between atoms: C_9  and  N_10
REMARK    6  A    between atoms: N_13  and  C_14
REMARK    7  A    between atoms: N_13  and  C_15
REMARK    8  A    between atoms: C_15  and  C_16
REMARK    9  A    between atoms: C_20  and  C_22
REMARK                            x       y       z     vdW  Elec       q    Type
REMARK                         _______ _______ _______ _____ _____    ______ ____
ROOT
ATOM      1  N   UNL     1      -1.243  -6.321   0.358  0.00  0.00    -0.300 N 
ATOM      2  C   UNL     1      -2.355  -7.052   0.573  0.00  0.00    +0.302 C 
ATOM      3  O   UNL     1      -3.417  -6.498   0.779  0.00  0.00    -0.253 OA
ATOM      4  N   UNL     1      -2.288  -8.398   0.560  0.00  0.00    -0.284 N 
ATOM      5  C   UNL     1      -1.008  -9.066   0.311  0.00  0.00    +0.134 C 
ATOM      6  H   UNL     1      -0.396  -6.763   0.193  0.00  0.00    +0.150 HD
ENDROOT
BRANCH   1   7
ATOM      7  C   UNL     1      -1.315  -4.857   0.372  0.00  0.00    +0.095 C 
BRANCH   7   8
ATOM      8  C   UNL     1       0.042  -4.276  -0.029  0.00  0.00    -0.020 C 
BRANCH   8  13
ATOM      9  C   UNL     1       1.181  -5.664  -5.521  0.00  0.00    +0.044 C 
ATOM     10  C   UNL     1       0.884  -5.302  -4.089  0.00  0.00    -0.050 A 
ATOM     11  C   UNL     1       1.460  -6.023  -3.060  0.00  0.00    +0.003 A 
ATOM     12  C   UNL     1       1.188  -5.691  -1.746  0.00  0.00    +0.002 A 
ATOM     13  C   UNL     1       0.340  -4.637  -1.461  0.00  0.00    -0.059 A 
ATOM     14  C   UNL     1      -0.235  -3.915  -2.490  0.00  0.00    +0.002 A 
ATOM     15  C   UNL     1       0.041  -4.245  -3.804  0.00  0.00    +0.003 A 
ENDBRANCH   8  13
BRANCH   8  16
ATOM     16  N   UNL     1       0.009  -2.814   0.111  0.00  0.00    +0.385 N 
ATOM     17  C   UNL     1      -0.207  -2.440   1.532  0.00  0.00    -0.078 C 
ATOM     18  C   UNL     1       0.334  -0.990   1.603  0.00  0.00    -0.020 C 
ATOM     19  C   UNL     1       1.563  -1.034   0.666  0.00  0.00    -0.020 C 
ATOM     20  C   UNL     1       1.317  -2.236  -0.264  0.00  0.00    -0.078 C 
ATOM     21  H   UNL     1      -0.722  -2.425  -0.467  0.00  0.00    -0.081 HD
ENDBRANCH   8  16
ENDBRANCH   7   8
ENDBRANCH   1   7
BRANCH   4  22
ATOM     22  C   UNL     1      -3.496  -9.193   0.794  0.00  0.00    +0.144 C 
BRANCH  22  23
ATOM     23  C   UNL     1      -4.181  -9.466  -0.521  0.00  0.00    -0.029 A 
ATOM     24  C   UNL     1      -5.130  -8.580  -1.001  0.00  0.00    +0.005 A 
ATOM     25  C   UNL     1      -5.763  -8.822  -2.207  0.00  0.00    +0.001 A 
ATOM     26  C   UNL     1      -5.452  -9.950  -2.939  0.00  0.00    +0.013 A 
ATOM     27  C   UNL     1      -4.496 -10.847  -2.460  0.00  0.00    +0.037 A 
ATOM     28  C   UNL     1      -3.857 -10.594  -1.245  0.00  0.00    +0.018 A 
BRANCH  27  29
ATOM     29  C   UNL     1      -4.158 -12.058  -3.238  0.00  0.00    +0.242 C 
ATOM     30  O   UNL     1      -3.325 -12.838  -2.818  0.00  0.00    -0.270 OA
ATOM     31  N   UNL     1      -4.773 -12.297  -4.413  0.00  0.00    -0.325 N 
ATOM     32  H   UNL     1      -5.438 -11.675  -4.748  0.00  0.00    +0.145 HD
ATOM     33  H   UNL     1      -4.551 -13.092  -4.924  0.00  0.00    +0.145 HD
ENDBRANCH  27  29
ENDBRANCH  22  23
ENDBRANCH   4  22
TORSDOF 7
