REMARK  Name = ZINC12330195
REMARK  5 active torsions:
REMARK  status: ('A' for Active; 'I' for Inactive)
REMARK    1  A    between atoms: C_6  and  C_7
REMARK    2  A    between atoms: C_7  and  C_9
REMARK    3  A    between atoms: C_7  and  O_27
REMARK    4  A    between atoms: C_9  and  N_57
REMARK    5  A    between atoms: C_16  and  O_26
REMARK                            x       y       z     vdW  Elec       q    Type
REMARK                         _______ _______ _______ _____ _____    ______ ____
ROOT
ATOM      1  C   UNL     1       5.203   4.501   0.544  0.00  0.00    -0.075 C 
ATOM      2  C   UNL     1       6.538   5.251   0.547  0.00  0.00    +0.029 C 
ATOM      3  C   UNL     1       6.825   5.765   1.959  0.00  0.00    +0.110 C 
ATOM      4  C   UNL     1       6.836   4.588   2.936  0.00  0.00    +0.029 C 
ATOM      5  C   UNL     1       5.493   3.858   2.863  0.00  0.00    -0.075 C 
ATOM      6  C   UNL     1       8.190   6.463   1.981  0.00  0.00    +0.084 C 
ATOM      7  C   UNL     1       8.497   6.872   3.424  0.00  0.00    +0.152 C 
ATOM      8  C   UNL     1       7.302   7.572   4.018  0.00  0.00    +0.025 A 
ATOM      9  C   UNL     1       7.481   8.348   5.152  0.00  0.00    +0.048 A 
ATOM     10  C   UNL     1       6.405   9.002   5.726  0.00  0.00    +0.124 A 
ATOM     11  C   UNL     1       5.144   8.880   5.168  0.00  0.00    +0.042 A 
ATOM     12  C   UNL     1       4.963   8.108   4.039  0.00  0.00    +0.049 A 
ATOM     13  C   UNL     1       6.043   7.451   3.458  0.00  0.00    +0.127 A 
ATOM     14  O   UNL     1       5.824   6.705   2.344  0.00  0.00    -0.485 OA
ATOM     15  F   UNL     1       6.586   9.758   6.831  0.00  0.00    -0.205 F 
ATOM     16  N   UNL     1       5.290   3.364   1.484  0.00  0.00    +0.382 N 
ATOM     17  H   UNL     1       6.089   2.774   1.221  0.00  0.00    -0.082 HD
ENDROOT
BRANCH   7  18
ATOM     18  O   UNL     1       9.622   7.754   3.439  0.00  0.00    -0.387 OA
ATOM     19  H   UNL     1       9.876   8.052   4.323  0.00  0.00    +0.210 HD
ENDBRANCH   7  18
BRANCH  16  20
ATOM     20  C   UNL     1       4.055   2.556   1.415  0.00  0.00    -0.042 C 
BRANCH  20  21
ATOM     21  C   UNL     1       4.262   1.269   2.216  0.00  0.00    +0.128 C 
BRANCH  21  27
ATOM     22  C   UNL     1       2.850  -0.438   1.050  0.00  0.00    +0.006 A 
ATOM     23  C   UNL     1       1.714  -1.220   0.967  0.00  0.00    +0.004 A 
ATOM     24  C   UNL     1       0.748  -1.152   1.957  0.00  0.00    -0.044 A 
ATOM     25  C   UNL     1       0.922  -0.298   3.030  0.00  0.00    -0.044 A 
ATOM     26  C   UNL     1       2.061   0.484   3.112  0.00  0.00    +0.010 A 
ATOM     27  C   UNL     1       3.024   0.415   2.124  0.00  0.00    -0.021 A 
ATOM     28  C   UNL     1      -0.263  -0.407   3.967  0.00  0.00    +0.036 C 
ATOM     29  C   UNL     1      -0.964  -1.726   3.580  0.00  0.00    +0.009 C 
ATOM     30  C   UNL     1      -0.565  -1.892   2.098  0.00  0.00    +0.036 C 
ENDBRANCH  21  27
BRANCH  21  31
ATOM     31  O   UNL     1       5.377   0.551   1.684  0.00  0.00    -0.389 OA
ATOM     32  H   UNL     1       5.274   0.296   0.757  0.00  0.00    +0.210 HD
ENDBRANCH  21  31
ENDBRANCH  20  21
ENDBRANCH  16  20
TORSDOF 5
