REMARK  Name = ZINC08688002
REMARK  12 active torsions:
REMARK  status: ('A' for Active; 'I' for Inactive)
REMARK    1  A    between atoms: C_1  and  N_2
REMARK    2  A    between atoms: N_2  and  C_3
REMARK    3  A    between atoms: N_2  and  S_4
REMARK    4  A    between atoms: S_4  and  C_7
REMARK    5  A    between atoms: C_11  and  N_13
REMARK    6  A    between atoms: N_15  and  N_16
REMARK    7  A    between atoms: C_17  and  C_18
REMARK    8  A    between atoms: C_20  and  O_27
REMARK    9  A    between atoms: C_21  and  O_26
REMARK   10  A    between atoms: C_22  and  O_24
REMARK   11  A    between atoms: O_24  and  C_25
REMARK   12  A    between atoms: O_27  and  C_28
REMARK                            x       y       z     vdW  Elec       q    Type
REMARK                         _______ _______ _______ _____ _____    ______ ____
ROOT
ATOM      1  N   UNL     1      -1.396  -3.588  -4.340  0.00  0.00    -0.294 N 
ATOM      2  C   UNL     1      -1.841  -3.838  -5.610  0.00  0.00    +0.163 C 
ATOM      3  N   UNL     1      -1.504  -5.007  -6.235  0.00  0.00    -0.258 N 
ATOM      4  S   UNL     1      -2.789  -2.723  -6.392  0.00  0.00    -0.014 SA
ATOM      5  H   UNL     1      -1.176  -4.325  -3.749  0.00  0.00    +0.154 HD
ATOM      6  H   UNL     1      -0.949  -5.659  -5.778  0.00  0.00    +0.191 HD
ENDROOT
BRANCH   1  11
ATOM      7  C   UNL     1      -1.370  -0.653  -2.126  0.00  0.00    +0.107 A 
ATOM      8  C   UNL     1      -0.987   0.339  -3.011  0.00  0.00    +0.028 A 
ATOM      9  C   UNL     1      -0.739   0.029  -4.336  0.00  0.00    +0.004 A 
ATOM     10  C   UNL     1      -0.874  -1.272  -4.780  0.00  0.00    +0.023 A 
ATOM     11  C   UNL     1      -1.258  -2.270  -3.894  0.00  0.00    +0.035 A 
ATOM     12  C   UNL     1      -1.500  -1.957  -2.562  0.00  0.00    +0.051 A 
BRANCH   7  13
ATOM     13  S   UNL     1      -1.684  -0.253  -0.439  0.00  0.00    +0.060 S 
ATOM     14  O   UNL     1      -2.549  -1.262   0.063  0.00  0.00    -0.153 OA
ATOM     15  O   UNL     1      -2.022   1.127  -0.405  0.00  0.00    -0.153 OA
BRANCH  13  17
ATOM     16  C   UNL     1       0.651   0.737   0.499  0.00  0.00    +0.131 C 
ATOM     17  N   UNL     1      -0.251  -0.410   0.376  0.00  0.00    -0.183 NA
ATOM     18  C   UNL     1       0.114  -1.696   0.975  0.00  0.00    +0.131 C 
ENDBRANCH  13  17
ENDBRANCH   7  13
ENDBRANCH   1  11
BRANCH   3  19
ATOM     19  N   UNL     1      -1.959  -5.263  -7.535  0.00  0.00    -0.180 NA
ATOM     20  C   UNL     1      -1.639  -6.372  -8.128  0.00  0.00    +0.140 C 
BRANCH  20  21
ATOM     21  C   UNL     1      -2.118  -6.641  -9.496  0.00  0.00    +0.002 A 
ATOM     22  C   UNL     1      -2.912  -5.701 -10.158  0.00  0.00    +0.059 A 
ATOM     23  C   UNL     1      -3.360  -5.956 -11.441  0.00  0.00    +0.166 A 
ATOM     24  C   UNL     1      -3.021  -7.148 -12.074  0.00  0.00    +0.201 A 
ATOM     25  C   UNL     1      -2.231  -8.087 -11.418  0.00  0.00    +0.166 A 
ATOM     26  C   UNL     1      -1.775  -7.835 -10.136  0.00  0.00    +0.059 A 
BRANCH  25  27
ATOM     27  O   UNL     1      -1.902  -9.251 -12.039  0.00  0.00    -0.491 OA
ATOM     28  C   UNL     1      -1.088 -10.169 -11.307  0.00  0.00    +0.277 C 
ENDBRANCH  25  27
BRANCH  24  29
ATOM     29  O   UNL     1      -3.463  -7.397 -13.336  0.00  0.00    -0.501 OA
ATOM     30  H   UNL     1      -2.865  -7.087 -14.030  0.00  0.00    +0.292 HD
ENDBRANCH  24  29
BRANCH  23  31
ATOM     31  O   UNL     1      -4.133  -5.041 -12.086  0.00  0.00    -0.491 OA
ATOM     32  C   UNL     1      -4.443  -3.840 -11.377  0.00  0.00    +0.277 C 
ENDBRANCH  23  31
ENDBRANCH  20  21
ENDBRANCH   3  19
TORSDOF 8
