REMARK  Name = ZINC06000024
REMARK  6 active torsions:
REMARK  status: ('A' for Active; 'I' for Inactive)
REMARK    1  A    between atoms: C_7  and  N_17
REMARK    2  A    between atoms: C_8  and  O_16
REMARK    3  A    between atoms: N_9  and  C_10
REMARK    4  A    between atoms: C_10  and  N_41
REMARK    5  A    between atoms: N_18  and  C_19
REMARK    6  A    between atoms: C_19  and  N_21
REMARK                            x       y       z     vdW  Elec       q    Type
REMARK                         _______ _______ _______ _____ _____    ______ ____
ROOT
ATOM      1  C   UNL     1       4.755   5.233   3.499  0.00  0.00    +0.001 A 
ATOM      2  C   UNL     1       3.442   4.824   3.680  0.00  0.00    +0.002 A 
ATOM      3  C   UNL     1       2.687   4.393   2.610  0.00  0.00    +0.026 A 
ATOM      4  C   UNL     1       3.241   4.366   1.335  0.00  0.00    +0.052 A 
ATOM      5  C   UNL     1       4.570   4.777   1.154  0.00  0.00    +0.031 A 
ATOM      6  C   UNL     1       5.324   5.205   2.243  0.00  0.00    +0.012 A 
ATOM      7  C   UNL     1       4.850   4.638  -0.289  0.00  0.00    +0.152 A 
ATOM      8  C   UNL     1       3.675   4.152  -0.866  0.00  0.00    +0.220 A 
ATOM      9  N   UNL     1       2.737   3.992   0.100  0.00  0.00    -0.327 N 
ENDROOT
BRANCH   8  10
ATOM     10  O   UNL     1       3.501   3.882  -2.178  0.00  0.00    -0.492 OA
ATOM     11  H   UNL     1       3.173   4.631  -2.693  0.00  0.00    +0.294 HD
ENDBRANCH   8  10
BRANCH   7  12
ATOM     12  N   UNL     1       5.997   4.922  -0.917  0.00  0.00    -0.152 NA
ATOM     13  N   UNL     1       6.095   4.750  -2.192  0.00  0.00    -0.095 NA
BRANCH  13  14
ATOM     14  C   UNL     1       7.250   5.036  -2.824  0.00  0.00    +0.172 C 
ATOM     15  S   UNL     1       8.589   5.627  -1.936  0.00  0.00    -0.015 S 
BRANCH  14  16
ATOM     16  N   UNL     1       7.352   4.856  -4.156  0.00  0.00    -0.338 N 
ATOM     17  H   UNL     1       6.593   4.521  -4.659  0.00  0.00    +0.144 HD
ATOM     18  H   UNL     1       8.183   5.061  -4.611  0.00  0.00    +0.144 HD
ENDBRANCH  14  16
ENDBRANCH  13  14
ENDBRANCH   7  12
BRANCH   9  19
ATOM     19  C   UNL     1       1.378   3.499  -0.132  0.00  0.00    +0.050 C 
BRANCH  19  25
ATOM     20  C   UNL     1      -0.019   1.526   0.010  0.00  0.00    -0.076 C 
ATOM     21  C   UNL     1       0.002  -0.004   0.002  0.00  0.00    -0.019 C 
ATOM     22  C   UNL     1       0.761  -0.506   1.233  0.00  0.00    -0.004 C 
ATOM     23  C   UNL     1       2.177   0.078   1.224  0.00  0.00    -0.019 C 
ATOM     24  C   UNL     1       2.093   1.605   1.197  0.00  0.00    -0.076 C 
ATOM     25  N   UNL     1       1.373   2.025  -0.024  0.00  0.00    +0.392 N 
ATOM     26  H   UNL     1       1.848   1.629  -0.844  0.00  0.00    -0.079 HD
ENDBRANCH  19  25
ENDBRANCH   9  19
TORSDOF 6
