REMARK  Name = ZINC22019503
REMARK  13 active torsions:
REMARK  status: ('A' for Active; 'I' for Inactive)
REMARK    1  A    between atoms: C_1  and  C_2
REMARK    2  A    between atoms: C_2  and  C_4
REMARK    3  A    between atoms: C_2  and  O_15
REMARK    4  A    between atoms: N_6  and  C_7
REMARK    5  A    between atoms: C_8  and  C_12
REMARK    6  A    between atoms: O_15  and  C_16
REMARK    7  A    between atoms: C_16  and  C_18
REMARK    8  A    between atoms: C_22  and  N_24
REMARK    9  A    between atoms: C_25  and  O_27
REMARK   10  A    between atoms: O_27  and  C_28
REMARK   11  A    between atoms: C_28  and  C_29
REMARK   12  A    between atoms: C_28  and  C_30
REMARK   13  A    between atoms: C_28  and  C_31
REMARK                            x       y       z     vdW  Elec       q    Type
REMARK                         _______ _______ _______ _____ _____    ______ ____
ROOT
ATOM      1  O   UNL     1      -3.472   1.913  -0.427  0.00  0.00    -0.449 OA
ENDROOT
BRANCH   1   3
ATOM      2  C   UNL     1      -2.296   0.114   0.718  0.00  0.00    +0.062 C 
ATOM      3  C   UNL     1      -2.299   1.060  -0.484  0.00  0.00    +0.259 C 
BRANCH   3   4
ATOM      4  C   UNL     1      -1.056   1.913  -0.456  0.00  0.00    +0.258 C 
ATOM      5  O   UNL     1      -1.148   3.113  -0.301  0.00  0.00    -0.271 OA
ATOM      6  N   UNL     1       0.156   1.343  -0.601  0.00  0.00    -0.276 N 
ATOM      7  H   UNL     1       0.239   0.254  -0.737  0.00  0.00    +0.155 HD
BRANCH   6   8
ATOM      8  C   UNL     1       1.299   2.128  -0.581  0.00  0.00    +0.084 A 
ATOM      9  C   UNL     1       2.623   1.729  -0.713  0.00  0.00    +0.065 A 
ATOM     10  C   UNL     1       3.623   2.768  -0.657  0.00  0.00    +0.022 A 
ATOM     11  C   UNL     1       3.190   4.028  -0.472  0.00  0.00    +0.048 A 
ATOM     12  S   UNL     1       1.422   3.843  -0.376  0.00  0.00    -0.081 S 
BRANCH   9  13
ATOM     13  C   UNL     1       2.987   0.321  -0.903  0.00  0.00    +0.244 C 
ATOM     14  O   UNL     1       2.119  -0.531  -0.949  0.00  0.00    -0.270 OA
ATOM     15  N   UNL     1       4.282  -0.030  -1.028  0.00  0.00    -0.325 N 
ATOM     16  H   UNL     1       4.555  -1.086  -1.170  0.00  0.00    +0.145 HD
ATOM     17  H   UNL     1       5.067   0.740  -0.986  0.00  0.00    +0.145 HD
ENDBRANCH   9  13
ENDBRANCH   6   8
ENDBRANCH   3   4
ENDBRANCH   1   3
BRANCH   1  18
ATOM     18  C   UNL     1      -4.586   1.463  -1.037  0.00  0.00    +0.340 C 
ATOM     19  O   UNL     1      -4.576   0.388  -1.603  0.00  0.00    -0.245 OA
BRANCH  18  20
ATOM     20  C   UNL     1      -5.818   2.278  -1.019  0.00  0.00    +0.061 A 
ATOM     21  C   UNL     1      -5.832   3.514  -0.370  0.00  0.00    +0.015 A 
ATOM     22  C   UNL     1      -6.984   4.273  -0.355  0.00  0.00    +0.003 A 
ATOM     23  C   UNL     1      -8.128   3.813  -0.982  0.00  0.00    +0.023 A 
ATOM     24  C   UNL     1      -8.125   2.585  -1.631  0.00  0.00    +0.037 A 
ATOM     25  C   UNL     1      -6.971   1.817  -1.656  0.00  0.00    +0.038 A 
BRANCH  24  26
ATOM     26  N   UNL     1      -9.285   2.126  -2.265  0.00  0.00    -0.251 N 
ATOM     27  C   UNL     1      -9.556   0.806  -2.300  0.00  0.00    +0.405 C 
ATOM     28  O   UNL     1      -8.846   0.024  -1.700  0.00  0.00    -0.226 OA
ATOM     29  H   UNL     1      -9.976   2.841  -2.735  0.00  0.00    +0.158 HD
BRANCH  27  30
ATOM     30  O   UNL     1     -10.614   0.354  -3.001  0.00  0.00    -0.444 OA
BRANCH  30  31
ATOM     31  C   UNL     1     -10.845  -1.079  -2.994  0.00  0.00    +0.107 C 
ATOM     32  C   UNL     1     -11.072  -1.553  -1.556  0.00  0.00    +0.055 C 
ATOM     33  C   UNL     1     -12.081  -1.400  -3.837  0.00  0.00    +0.055 C 
ATOM     34  C   UNL     1      -9.628  -1.796  -3.581  0.00  0.00    +0.055 C 
ENDBRANCH  30  31
ENDBRANCH  27  30
ENDBRANCH  24  26
ENDBRANCH  18  20
ENDBRANCH   1  18
TORSDOF 9
