REMARK  Name = ZINC39630869
REMARK  12 active torsions:
REMARK  status: ('A' for Active; 'I' for Inactive)
REMARK    1  A    between atoms: C_1  and  C_2
REMARK    2  A    between atoms: C_2  and  C_3
REMARK    3  A    between atoms: C_2  and  C_4
REMARK    4  A    between atoms: C_2  and  C_30
REMARK    5  A    between atoms: C_4  and  N_5
REMARK    6  A    between atoms: C_6  and  C_8
REMARK    7  A    between atoms: C_19  and  C_21
REMARK    8  A    between atoms: C_23  and  O_28
REMARK    9  A    between atoms: O_28  and  C_29
REMARK   10  A    between atoms: C_30  and  N_31
REMARK   11  A    between atoms: N_31  and  C_32
REMARK   12  A    between atoms: N_31  and  C_33
REMARK                            x       y       z     vdW  Elec       q    Type
REMARK                         _______ _______ _______ _____ _____    ______ ____
ROOT
ATOM      1  C   UNL     1      -5.593   1.103   2.077  0.00  0.00    +0.100 C 
ATOM      2  C   UNL     1      -5.040   0.417   3.346  0.00  0.00    +0.121 C 
ATOM      3  N   UNL     1      -6.228  -0.184   3.996  0.00  0.00    -0.296 N 
ATOM      4  C   UNL     1      -7.038  -0.709   2.870  0.00  0.00    +0.115 C 
ATOM      5  C   UNL     1      -6.904   0.361   1.767  0.00  0.00    -0.004 C 
ATOM      6  C   UNL     1      -6.824  -0.304   0.396  0.00  0.00    -0.010 C 
ATOM      7  C   UNL     1      -8.160  -0.986   0.086  0.00  0.00    -0.082 C 
ATOM      8  N   UNL     1      -9.237   0.011   0.107  0.00  0.00    +0.379 N 
ATOM      9  C   UNL     1      -9.368   0.578   1.454  0.00  0.00    -0.082 C 
ATOM     10  C   UNL     1      -8.084   1.327   1.823  0.00  0.00    -0.010 C 
ATOM     11  C   UNL     1      -6.510  -0.241   5.313  0.00  0.00    +0.248 C 
ATOM     12  O   UNL     1      -7.489  -0.849   5.699  0.00  0.00    -0.270 OA
ATOM     13  H   UNL     1      -9.024   0.749  -0.548  0.00  0.00    -0.086 HD
ATOM     14  H   UNL     1     -10.106  -0.428  -0.158  0.00  0.00    -0.086 HD
ENDROOT
BRANCH  11  15
ATOM     15  C   UNL     1      -5.628   0.436   6.287  0.00  0.00    +0.054 A 
ATOM     16  C   UNL     1      -4.243   0.409   6.115  0.00  0.00    +0.059 A 
ATOM     17  C   UNL     1      -3.424   1.046   7.031  0.00  0.00    +0.121 A 
ATOM     18  C   UNL     1      -3.979   1.709   8.118  0.00  0.00    +0.047 A 
ATOM     19  C   UNL     1      -5.350   1.737   8.290  0.00  0.00    +0.019 A 
ATOM     20  C   UNL     1      -6.178   1.109   7.380  0.00  0.00    +0.030 A 
ATOM     21 BR   UNL     1      -8.053   1.157   7.617  0.00  0.00    -0.050 Br
BRANCH  17  22
ATOM     22  O   UNL     1      -2.075   1.021   6.867  0.00  0.00    -0.495 OA
ATOM     23  C   UNL     1      -1.289   1.699   7.850  0.00  0.00    +0.277 C 
ENDBRANCH  17  22
ENDBRANCH  11  15
BRANCH   1  25
ATOM     24  N   UNL     1      -4.650   1.827  -0.091  0.00  0.00    -0.315 N 
ATOM     25  C   UNL     1      -4.623   0.953   0.934  0.00  0.00    +0.218 C 
ATOM     26  O   UNL     1      -3.818   0.046   0.937  0.00  0.00    -0.275 OA
ATOM     27  H   UNL     1      -5.294   2.552  -0.094  0.00  0.00    +0.149 HD
BRANCH  24  28
ATOM     28  C   UNL     1      -3.706   1.681  -1.203  0.00  0.00    +0.108 C 
BRANCH  28  30
ATOM     29  C   UNL     1      -5.379   2.697  -2.756  0.00  0.00    +0.010 C 
ATOM     30  C   UNL     1      -3.947   2.793  -2.225  0.00  0.00    -0.034 C 
ATOM     31  C   UNL     1      -3.742   4.154  -1.557  0.00  0.00    +0.010 C 
BRANCH  30  32
ATOM     32  C   UNL     1      -2.962   2.642  -3.386  0.00  0.00    -0.072 C 
BRANCH  32  33
ATOM     33  N   UNL     1      -3.109   3.778  -4.305  0.00  0.00    +0.376 N 
ATOM     34  C   UNL     1      -2.282   4.897  -3.836  0.00  0.00    -0.097 C 
ATOM     35  C   UNL     1      -2.675   3.379  -5.651  0.00  0.00    -0.097 C 
ATOM     36  H   UNL     1      -4.076   4.064  -4.335  0.00  0.00    -0.083 HD
ENDBRANCH  32  33
ENDBRANCH  30  32
ENDBRANCH  28  30
ENDBRANCH  24  28
ENDBRANCH   1  25
TORSDOF 7
