REMARK  Name = ZINC44680594
REMARK  5 active torsions:
REMARK  status: ('A' for Active; 'I' for Inactive)
REMARK    1  A    between atoms: C_3  and  S_9
REMARK    2  A    between atoms: N_7  and  N_8
REMARK    3  A    between atoms: S_9  and  N_12
REMARK    4  A    between atoms: N_12  and  C_13
REMARK    5  A    between atoms: N_17  and  C_19
REMARK                            x       y       z     vdW  Elec       q    Type
REMARK                         _______ _______ _______ _____ _____    ______ ____
ROOT
ATOM      1  S   UNL     1       3.741   2.211   0.090  0.00  0.00    +0.062 S 
ATOM      2  O   UNL     1       4.478   1.660  -0.993  0.00  0.00    -0.153 OA
ATOM      3  O   UNL     1       3.357   3.579   0.132  0.00  0.00    -0.153 OA
ENDROOT
BRANCH   1   6
ATOM      4  C   UNL     1       0.815  -0.471  -0.533  0.00  0.00    +0.022 A 
ATOM      5  C   UNL     1       1.996   0.246  -0.674  0.00  0.00    +0.033 A 
ATOM      6  C   UNL     1       2.258   1.268   0.221  0.00  0.00    +0.146 A 
ATOM      7  C   UNL     1       1.336   1.540   1.226  0.00  0.00    +0.159 A 
ATOM      8  N   UNL     1       0.221   0.833   1.327  0.00  0.00    -0.237 NA
ATOM      9  C   UNL     1      -0.055  -0.147   0.488  0.00  0.00    +0.113 A 
ATOM     10  N   UNL     1       1.587   2.563   2.133  0.00  0.00    -0.266 N 
ATOM     11  H   UNL     1       2.369   3.127   2.024  0.00  0.00    +0.167 HD
BRANCH  10  12
ATOM     12  N   UNL     1       0.732   2.776   3.177  0.00  0.00    -0.255 NA
ATOM     13  H   UNL     1       0.622   1.940   3.730  0.00  0.00    +0.140 HD
ATOM     14  H   UNL     1       1.043   3.549   3.747  0.00  0.00    +0.140 HD
ENDBRANCH  10  12
ENDBRANCH   1   6
BRANCH   1  15
ATOM     15  N   UNL     1       4.626   1.925   1.460  0.00  0.00    -0.189 NA
ATOM     16  H   UNL     1       4.821   2.651   2.072  0.00  0.00    +0.148 HD
BRANCH  15  17
ATOM     17  C   UNL     1       5.115   0.574   1.747  0.00  0.00    +0.058 C 
ATOM     18  C   UNL     1       6.624   0.453   1.406  0.00  0.00    -0.000 C 
ATOM     19  C   UNL     1       7.068  -0.688   2.355  0.00  0.00    -0.077 C 
ATOM     20  N   UNL     1       6.296  -0.469   3.596  0.00  0.00    +0.383 N 
ATOM     21  C   UNL     1       5.073   0.290   3.263  0.00  0.00    -0.058 C 
ATOM     22  H   UNL     1       6.854   0.054   4.255  0.00  0.00    -0.081 HD
BRANCH  20  23
ATOM     23  C   UNL     1       5.926  -1.764   4.183  0.00  0.00    -0.069 C 
ATOM     24  C   UNL     1       6.224  -1.978   5.668  0.00  0.00    -0.017 C 
ATOM     25  C   UNL     1       7.061  -2.697   4.609  0.00  0.00    -0.017 C 
ENDBRANCH  20  23
ENDBRANCH  15  17
ENDBRANCH   1  15
TORSDOF 5
