REMARK  Name = ZINC12114510
REMARK  6 active torsions:
REMARK  status: ('A' for Active; 'I' for Inactive)
REMARK    1  A    between atoms: C_1  and  C_2
REMARK    2  A    between atoms: C_5  and  N_8
REMARK    3  A    between atoms: C_9  and  C_11
REMARK    4  A    between atoms: C_11  and  N_55
REMARK    5  A    between atoms: C_19  and  C_21
REMARK    6  A    between atoms: C_19  and  O_26
REMARK                            x       y       z     vdW  Elec       q    Type
REMARK                         _______ _______ _______ _____ _____    ______ ____
ROOT
ATOM      1  C   UNL     1      -1.587   2.413   0.990  0.00  0.00    -0.064 C 
ATOM      2  C   UNL     1      -0.247   1.757   1.406  0.00  0.00    -0.017 C 
ATOM      3  C   UNL     1       0.340   1.197   0.093  0.00  0.00    -0.017 C 
ATOM      4  C   UNL     1      -0.695   1.566  -0.995  0.00  0.00    -0.064 C 
ATOM      5  C   UNL     1      -1.714   0.419  -1.082  0.00  0.00    +0.027 C 
ATOM      6  C   UNL     1      -2.179   0.074   0.348  0.00  0.00    +0.120 C 
ATOM      7  C   UNL     1      -2.680   1.335   1.058  0.00  0.00    +0.027 C 
ATOM      8  N   UNL     1      -1.392   2.721  -0.423  0.00  0.00    +0.389 N 
ATOM      9  H   UNL     1      -2.300   2.849  -0.884  0.00  0.00    -0.080 HD
ENDROOT
BRANCH   6  10
ATOM     10  C   UNL     1      -3.292  -0.939   0.279  0.00  0.00    +0.136 A 
ATOM     11  C   UNL     1      -3.141  -2.275   0.273  0.00  0.00    +0.047 A 
ATOM     12  C   UNL     1      -4.437  -2.834   0.199  0.00  0.00    +0.041 A 
ATOM     13  C   UNL     1      -5.303  -1.806   0.164  0.00  0.00    +0.195 A 
ATOM     14  O   UNL     1      -4.605  -0.660   0.219  0.00  0.00    -0.465 OA
ENDBRANCH   6  10
BRANCH   6  15
ATOM     15  O   UNL     1      -1.080  -0.476   1.077  0.00  0.00    -0.381 OA
ATOM     16  H   UNL     1      -0.710  -1.279   0.684  0.00  0.00    +0.211 HD
ENDBRANCH   6  15
BRANCH   8  17
ATOM     17  C   UNL     1      -0.574   3.966  -0.591  0.00  0.00    +0.019 C 
BRANCH  17  19
ATOM     18  N   UNL     1      -0.655   6.323   0.153  0.00  0.00    -0.314 N 
ATOM     19  C   UNL     1      -1.279   5.133   0.050  0.00  0.00    +0.197 C 
ATOM     20  O   UNL     1      -2.407   5.001   0.475  0.00  0.00    -0.278 OA
ATOM     21  H   UNL     1       0.247   6.429  -0.186  0.00  0.00    +0.149 HD
BRANCH  18  26
ATOM     22  C   UNL     1      -2.602  11.517   1.590  0.00  0.00    +0.007 C 
ATOM     23  C   UNL     1      -1.886  10.332   0.939  0.00  0.00    -0.014 C 
ATOM     24  C   UNL     1      -1.020   9.623   1.982  0.00  0.00    +0.005 C 
ATOM     25  C   UNL     1      -0.304   8.438   1.330  0.00  0.00    +0.022 C 
ATOM     26  C   UNL     1      -1.341   7.458   0.777  0.00  0.00    +0.073 C 
ATOM     27  C   UNL     1      -2.207   8.167  -0.267  0.00  0.00    +0.022 C 
ATOM     28  C   UNL     1      -2.922   9.352   0.385  0.00  0.00    +0.005 C 
ENDBRANCH  18  26
ENDBRANCH  17  19
ENDBRANCH   8  17
TORSDOF 5
