REMARK  Name = ZINC13616181
REMARK  5 active torsions:
REMARK  status: ('A' for Active; 'I' for Inactive)
REMARK    1  A    between atoms: C_1  and  C_2
REMARK    2  A    between atoms: C_4  and  C_15
REMARK    3  A    between atoms: C_5  and  C_14
REMARK    4  A    between atoms: N_6  and  C_7
REMARK    5  A    between atoms: N_21  and  C_24
REMARK                            x       y       z     vdW  Elec       q    Type
REMARK                         _______ _______ _______ _____ _____    ______ ____
ROOT
ATOM      1  C   UNL     1      -0.859  -3.706  -1.114  0.00  0.00    +0.028 C 
ATOM      2  C   UNL     1      -1.097  -3.548  -2.470  0.00  0.00    +0.102 C 
ATOM      3  C   UNL     1      -0.679  -4.570  -3.452  0.00  0.00    +0.276 C 
ATOM      4  N   UNL     1      -0.942  -4.352  -4.751  0.00  0.00    -0.123 NA
ATOM      5  C   UNL     1      -1.552  -3.269  -5.163  0.00  0.00    +0.340 C 
ATOM      6  O   UNL     1      -1.778  -3.130  -6.484  0.00  0.00    -0.250 OA
ATOM      7  N   UNL     1      -1.972  -2.277  -4.332  0.00  0.00    -0.188 N 
ATOM      8  C   UNL     1      -1.783  -2.357  -2.998  0.00  0.00    +0.264 C 
ATOM      9  O   UNL     1      -2.164  -1.470  -2.256  0.00  0.00    -0.269 OA
ATOM     10  O   UNL     1      -0.109  -5.586  -3.092  0.00  0.00    -0.268 OA
ENDROOT
BRANCH   1  14
ATOM     11  C   UNL     1      -0.911   0.911   0.927  0.00  0.00    +0.064 C 
ATOM     12  C   UNL     1      -1.102  -0.562   0.676  0.00  0.00    +0.022 A 
ATOM     13  C   UNL     1      -0.682  -1.226  -0.413  0.00  0.00    +0.031 A 
ATOM     14  C   UNL     1      -1.084  -2.628  -0.226  0.00  0.00    -0.003 A 
ATOM     15  C   UNL     1      -1.730  -2.676   1.001  0.00  0.00    +0.028 A 
ATOM     16  N   UNL     1      -1.724  -1.436   1.525  0.00  0.00    -0.317 N 
ATOM     17  C   UNL     1      -2.328  -3.903   1.639  0.00  0.00    +0.064 C 
BRANCH  16  18
ATOM     18  C   UNL     1      -2.281  -1.088   2.763  0.00  0.00    +0.047 A 
ATOM     19  C   UNL     1      -1.742  -1.600   3.936  0.00  0.00    +0.027 A 
ATOM     20  C   UNL     1      -2.293  -1.255   5.155  0.00  0.00    +0.022 A 
ATOM     21  C   UNL     1      -3.380  -0.401   5.208  0.00  0.00    +0.041 A 
ATOM     22  C   UNL     1      -3.919   0.110   4.040  0.00  0.00    +0.022 A 
ATOM     23  C   UNL     1      -3.369  -0.227   2.819  0.00  0.00    +0.027 A 
ATOM     24 CL   UNL     1      -4.070   0.030   6.742  0.00  0.00    -0.084 Cl
ENDBRANCH  16  18
ENDBRANCH   1  14
BRANCH   7  25
ATOM     25  C   UNL     1      -2.616  -1.155  -4.871  0.00  0.00    +0.046 A 
ATOM     26  C   UNL     1      -3.999  -1.141  -4.998  0.00  0.00    +0.025 A 
ATOM     27  C   UNL     1      -4.632  -0.034  -5.528  0.00  0.00    +0.022 A 
ATOM     28  C   UNL     1      -3.889   1.061  -5.933  0.00  0.00    +0.041 A 
ATOM     29  C   UNL     1      -2.511   1.049  -5.808  0.00  0.00    +0.022 A 
ATOM     30  C   UNL     1      -1.874  -0.053  -5.273  0.00  0.00    +0.025 A 
ATOM     31 CL   UNL     1      -4.687   2.451  -6.600  0.00  0.00    -0.084 Cl
ENDBRANCH   7  25
TORSDOF 3
