REMARK  Name = ZINC06220257
REMARK  4 active torsions:
REMARK  status: ('A' for Active; 'I' for Inactive)
REMARK    1  A    between atoms: C_4  and  N_24
REMARK    2  A    between atoms: C_6  and  C_7
REMARK    3  A    between atoms: C_19  and  N_23
REMARK    4  A    between atoms: C_20  and  C_21
REMARK                            x       y       z     vdW  Elec       q    Type
REMARK                         _______ _______ _______ _____ _____    ______ ____
ROOT
ATOM      1  C   UNL     1       2.358   0.008   0.800  0.00  0.00    +0.105 C 
ATOM      2  C   UNL     1       2.311   1.449   0.370  0.00  0.00    +0.091 A 
ATOM      3  C   UNL     1       3.495   2.210   0.347  0.00  0.00    +0.262 A 
ATOM      4  O   UNL     1       4.555   1.706   0.674  0.00  0.00    -0.267 OA
ATOM      5  N   UNL     1       3.448   3.501  -0.038  0.00  0.00    -0.273 N 
ATOM      6  H   UNL     1       4.368   4.102  -0.059  0.00  0.00    +0.173 HD
ATOM      7  C   UNL     1       2.279   4.061  -0.399  0.00  0.00    +0.352 A 
ATOM      8  O   UNL     1       2.254   5.226  -0.744  0.00  0.00    -0.245 OA
ATOM      9  N   UNL     1       1.136   3.351  -0.383  0.00  0.00    -0.157 NA
ATOM     10  C   UNL     1       1.140   2.031   0.002  0.00  0.00    +0.236 A 
ATOM     11  O   UNL     1      -0.016   1.341   0.009  0.00  0.00    -0.423 OA
ATOM     12  C   UNL     1       0.002  -0.004   0.002  0.00  0.00    +0.200 C 
ATOM     13  C   UNL     1       1.104  -0.702   0.368  0.00  0.00    +0.098 C 
ENDROOT
BRANCH   1  19
ATOM     14  C   UNL     1       1.492   0.488   3.099  0.00  0.00    +0.006 A 
ATOM     15  C   UNL     1       1.602   0.426   4.475  0.00  0.00    +0.022 A 
ATOM     16  C   UNL     1       2.700  -0.184   5.054  0.00  0.00    +0.071 A 
ATOM     17  C   UNL     1       3.688  -0.732   4.255  0.00  0.00    +0.145 A 
ATOM     18  C   UNL     1       3.574  -0.674   2.879  0.00  0.00    +0.038 A 
ATOM     19  C   UNL     1       2.479  -0.060   2.301  0.00  0.00    -0.032 A 
ATOM     20 CL   UNL     1       2.839  -0.262   6.783  0.00  0.00    -0.081 Cl
BRANCH  17  21
ATOM     21  N   UNL     1       4.864  -1.385   4.873  0.00  0.00    +0.058 N 
ATOM     22  O   UNL     1       5.733  -1.867   4.170  0.00  0.00    -0.126 OA
ATOM     23  O   UNL     1       4.962  -1.440   6.086  0.00  0.00    -0.126 OA
ENDBRANCH  17  21
ENDBRANCH   1  19
BRANCH  12  24
ATOM     24  N   UNL     1      -1.123  -0.687  -0.387  0.00  0.00    -0.328 N 
ATOM     25  H   UNL     1      -1.123  -1.786  -0.398  0.00  0.00    +0.145 HD
ATOM     26  H   UNL     1      -2.026  -0.134  -0.687  0.00  0.00    +0.145 HD
ENDBRANCH  12  24
BRANCH  13  27
ATOM     27  C   UNL     1       1.075  -2.133   0.344  0.00  0.00    +0.101 C 
ATOM     28  N   UNL     1       1.052  -3.269   0.324  0.00  0.00    -0.191 NA
ENDBRANCH  13  27
TORSDOF 4
