REMARK  Name = ZINC62876196
REMARK  6 active torsions:
REMARK  status: ('A' for Active; 'I' for Inactive)
REMARK    1  A    between atoms: C_1  and  C_2
REMARK    2  A    between atoms: C_2  and  C_17
REMARK    3  A    between atoms: N_10  and  C_11
REMARK    4  A    between atoms: C_11  and  C_12
REMARK    5  A    between atoms: C_11  and  C_13
REMARK    6  A    between atoms: C_11  and  C_14
REMARK                            x       y       z     vdW  Elec       q    Type
REMARK                         _______ _______ _______ _____ _____    ______ ____
ROOT
ATOM      1  C   UNL     1      -0.020   1.527   0.011  0.00  0.00    +0.024 C 
ATOM      2  C   UNL     1       0.001  -0.003   0.002  0.00  0.00    +0.085 C 
ATOM      3  C   UNL     1      -1.434  -0.534   0.017  0.00  0.00    +0.021 C 
ATOM      4  C   UNL     1      -2.159  -0.013   1.260  0.00  0.00    +0.020 C 
ATOM      5  C   UNL     1      -1.442  -0.522   2.515  0.00  0.00    +0.109 C 
ATOM      6  N   UNL     1      -0.026  -0.139   2.438  0.00  0.00    -0.285 N 
ATOM      7  C   UNL     1       0.743  -0.511   1.242  0.00  0.00    +0.127 C 
ATOM      8  C   UNL     1       0.557   0.541   3.445  0.00  0.00    +0.303 C 
ATOM      9  O   UNL     1       1.751   0.772   3.412  0.00  0.00    -0.253 OA
ATOM     10  N   UNL     1      -0.182   0.964   4.489  0.00  0.00    -0.286 N 
ATOM     11  H   UNL     1      -1.118   0.718   4.552  0.00  0.00    +0.151 HD
ENDROOT
BRANCH  10  12
ATOM     12  C   UNL     1       0.428   1.797   5.529  0.00  0.00    +0.106 C 
ATOM     13  C   UNL     1       1.584   1.034   6.180  0.00  0.00    +0.041 C 
ATOM     14  C   UNL     1       0.958   3.088   4.903  0.00  0.00    +0.041 C 
BRANCH  12  15
ATOM     15  C   UNL     1      -0.605   2.132   6.574  0.00  0.00    +0.233 C 
ATOM     16  O   UNL     1      -0.281   2.222   7.740  0.00  0.00    -0.274 OA
ATOM     17  N   UNL     1      -1.888   2.331   6.214  0.00  0.00    -0.328 N 
ATOM     18  H   UNL     1      -2.147   2.259   5.282  0.00  0.00    +0.145 HD
ATOM     19  H   UNL     1      -2.553   2.547   6.887  0.00  0.00    +0.145 HD
ENDBRANCH  12  15
ENDBRANCH  10  12
BRANCH   2  20
ATOM     20  C   UNL     1       0.705  -0.489  -1.239  0.00  0.00    +0.363 C 
ATOM     21  O   UNL     1       1.866  -0.177  -1.443  0.00  0.00    -0.246 OA
ATOM     22  O   UNL     1       0.113  -1.194  -2.039  0.00  0.00    -0.246 OA
ENDBRANCH   2  20
TORSDOF 3
