REMARK  Name = ZINC10401610
REMARK  8 active torsions:
REMARK  status: ('A' for Active; 'I' for Inactive)
REMARK    1  A    between atoms: C_5  and  N_7
REMARK    2  A    between atoms: C_8  and  C_10
REMARK    3  A    between atoms: C_10  and  C_11
REMARK    4  A    between atoms: C_11  and  C_12
REMARK    5  A    between atoms: N_14  and  N_15
REMARK    6  A    between atoms: C_16  and  C_18
REMARK    7  A    between atoms: C_19  and  C_20
REMARK    8  A    between atoms: C_24  and  N_26
REMARK                            x       y       z     vdW  Elec       q    Type
REMARK                         _______ _______ _______ _____ _____    ______ ____
ROOT
ATOM      1  C   UNL     1      -3.636  10.158   0.059  0.00  0.00    +0.230 C 
ATOM      2  O   UNL     1      -4.678   9.537   0.061  0.00  0.00    -0.274 OA
ATOM      3  N   UNL     1      -2.460   9.500   0.038  0.00  0.00    -0.234 N 
ATOM      4  H   UNL     1      -1.627   9.997   0.036  0.00  0.00    +0.173 HD
ENDROOT
BRANCH   3   5
ATOM      5  N   UNL     1      -2.441   8.100   0.018  0.00  0.00    -0.231 N 
ATOM      6  C   UNL     1      -1.264   7.442  -0.003  0.00  0.00    +0.253 C 
ATOM      7  O   UNL     1      -0.219   8.065  -0.005  0.00  0.00    -0.269 OA
ATOM      8  H   UNL     1      -3.274   7.603   0.020  0.00  0.00    +0.173 HD
BRANCH   6   9
ATOM      9  C   UNL     1      -1.244   5.978  -0.024  0.00  0.00    +0.069 C 
ATOM     10  C   UNL     1      -0.067   5.321  -0.045  0.00  0.00    +0.013 C 
BRANCH  10  11
ATOM     11  C   UNL     1      -0.047   3.849  -0.065  0.00  0.00    -0.023 A 
ATOM     12  C   UNL     1      -1.246   3.129  -0.062  0.00  0.00    +0.008 A 
ATOM     13  C   UNL     1      -1.219   1.751  -0.087  0.00  0.00    +0.003 A 
ATOM     14  C   UNL     1      -0.008   1.079  -0.103  0.00  0.00    +0.033 A 
ATOM     15  C   UNL     1       1.182   1.784  -0.106  0.00  0.00    +0.127 A 
ATOM     16  C   UNL     1       1.171   3.163  -0.087  0.00  0.00    +0.040 A 
BRANCH  15  17
ATOM     17  N   UNL     1       2.471   1.057  -0.130  0.00  0.00    +0.056 N 
ATOM     18  O   UNL     1       2.482  -0.161  -0.146  0.00  0.00    -0.126 OA
ATOM     19  O   UNL     1       3.520   1.676  -0.133  0.00  0.00    -0.126 OA
ENDBRANCH  15  17
ENDBRANCH  10  11
ENDBRANCH   6   9
ENDBRANCH   3   5
BRANCH   1  20
ATOM     20  C   UNL     1      -3.657  11.664   0.080  0.00  0.00    +0.106 C 
BRANCH  20  21
ATOM     21  C   UNL     1      -5.107  12.154   0.102  0.00  0.00    +0.105 C 
BRANCH  21  23
ATOM     22  N   UNL     1      -6.304  14.318   0.144  0.00  0.00    -0.284 N 
ATOM     23  C   UNL     1      -5.128  13.661   0.123  0.00  0.00    +0.218 C 
ATOM     24  O   UNL     1      -4.086  14.282   0.121  0.00  0.00    -0.275 OA
ATOM     25  H   UNL     1      -7.137  13.825   0.080  0.00  0.00    +0.155 HD
BRANCH  22  30
ATOM     26  C   UNL     1      -5.354  17.851  -0.228  0.00  0.00    +0.002 A 
ATOM     27  C   UNL     1      -6.364  18.471   0.484  0.00  0.00    +0.002 A 
ATOM     28  C   UNL     1      -7.355  17.716   1.084  0.00  0.00    +0.022 A 
ATOM     29  C   UNL     1      -7.339  16.339   0.973  0.00  0.00    +0.062 A 
ATOM     30  C   UNL     1      -6.324  15.713   0.259  0.00  0.00    +0.052 A 
ATOM     31  C   UNL     1      -5.328  16.475  -0.337  0.00  0.00    +0.025 A 
ATOM     32 CL   UNL     1      -8.583  15.391   1.726  0.00  0.00    -0.082 Cl
ENDBRANCH  22  30
ENDBRANCH  21  23
ENDBRANCH  20  21
ENDBRANCH   1  20
TORSDOF 8
