REMARK  Name = ZINC13041423
REMARK  6 active torsions:
REMARK  status: ('A' for Active; 'I' for Inactive)
REMARK    1  A    between atoms: C_1  and  C_2
REMARK    2  A    between atoms: C_7  and  C_13
REMARK    3  A    between atoms: C_13  and  N_40
REMARK    4  A    between atoms: C_14  and  C_16
REMARK    5  A    between atoms: C_14  and  C_17
REMARK    6  A    between atoms: C_14  and  N_40
REMARK                            x       y       z     vdW  Elec       q    Type
REMARK                         _______ _______ _______ _____ _____    ______ ____
ROOT
ATOM      1  C   UNL     1      -3.729   5.843   0.067  0.00  0.00    -0.025 C 
ENDROOT
BRANCH   1   8
ATOM      2  C   UNL     1       2.506   1.065  -0.015  0.00  0.00    +0.045 C 
ATOM      3  C   UNL     1       1.189   1.798   0.000  0.00  0.00    -0.034 A 
ATOM      4  C   UNL     1      -0.013   1.076   0.008  0.00  0.00    +0.008 A 
ATOM      5  C   UNL     1      -1.199   1.746   0.017  0.00  0.00    +0.047 A 
ATOM      6  C   UNL     1      -1.200   3.152   0.030  0.00  0.00    +0.140 A 
ATOM      7  N   UNL     1      -2.358   3.809   0.044  0.00  0.00    -0.236 NA
ATOM      8  C   UNL     1      -2.400   5.132   0.051  0.00  0.00    +0.032 A 
ATOM      9  C   UNL     1      -1.227   5.862   0.043  0.00  0.00    +0.092 A 
ATOM     10  C   UNL     1      -0.005   5.179   0.028  0.00  0.00    +0.258 A 
ATOM     11  O   UNL     1       1.049   5.794   0.021  0.00  0.00    -0.267 OA
ATOM     12  N   UNL     1      -0.011   3.828   0.022  0.00  0.00    -0.268 N 
ATOM     13  C   UNL     1       1.169   3.150   0.007  0.00  0.00    +0.099 A 
ENDBRANCH   1   8
BRANCH   1  14
ATOM     14  N   UNL     1      -4.444   5.558  -1.191  0.00  0.00    +0.387 N 
ATOM     15  H   UNL     1      -4.592   4.546  -1.275  0.00  0.00    -0.085 HD
ATOM     16  H   UNL     1      -3.882   5.889  -1.984  0.00  0.00    -0.085 HD
BRANCH  14  17
ATOM     17  C   UNL     1      -5.751   6.243  -1.203  0.00  0.00    -0.042 C 
ATOM     18  C   UNL     1      -6.789   5.375  -0.489  0.00  0.00    -0.009 C 
BRANCH  17  19
ATOM     19  C   UNL     1      -6.179   6.466  -2.631  0.00  0.00    -0.043 A 
ATOM     20  C   UNL     1      -5.698   5.645  -3.633  0.00  0.00    +0.005 A 
ATOM     21  C   UNL     1      -6.091   5.849  -4.942  0.00  0.00    +0.020 A 
ATOM     22  C   UNL     1      -6.965   6.876  -5.251  0.00  0.00    +0.042 A 
ATOM     23  C   UNL     1      -7.447   7.698  -4.248  0.00  0.00    +0.040 A 
ATOM     24  C   UNL     1      -7.059   7.489  -2.937  0.00  0.00    +0.044 A 
ATOM     25 CL   UNL     1      -7.669   8.515  -1.677  0.00  0.00    -0.083 Cl
ATOM     26 CL   UNL     1      -7.458   7.132  -6.896  0.00  0.00    -0.083 Cl
ENDBRANCH  17  19
ENDBRANCH  14  17
ENDBRANCH   1  14
TORSDOF 4
