REMARK  Name = ZINC04548210
REMARK  9 active torsions:
REMARK  status: ('A' for Active; 'I' for Inactive)
REMARK    1  A    between atoms: C_1  and  C_2
REMARK    2  A    between atoms: C_2  and  C_3
REMARK    3  A    between atoms: C_2  and  C_4
REMARK    4  A    between atoms: C_4  and  C_5
REMARK    5  A    between atoms: C_5  and  C_31
REMARK    6  A    between atoms: C_10  and  C_12
REMARK    7  A    between atoms: C_17  and  O_18
REMARK    8  A    between atoms: N_21  and  C_24
REMARK    9  A    between atoms: C_24  and  C_25
REMARK                            x       y       z     vdW  Elec       q    Type
REMARK                         _______ _______ _______ _____ _____    ______ ____
ROOT
ATOM      1  C   UNL     1       1.424   2.205  -4.949  0.00  0.00    +0.048 C 
ATOM      2  C   UNL     1       0.647   3.496  -4.616  0.00  0.00    +0.086 C 
ATOM      3  C   UNL     1       0.494   3.481  -3.071  0.00  0.00    +0.077 C 
ATOM      4  C   UNL     1       1.192   2.183  -2.616  0.00  0.00    -0.023 C 
ATOM      5  C   UNL     1       1.333   4.684  -2.641  0.00  0.00    +0.225 C 
ATOM      6  O   UNL     1       1.496   5.048  -1.496  0.00  0.00    -0.275 OA
ATOM      7  N   UNL     1       1.853   5.276  -3.722  0.00  0.00    -0.237 N 
ATOM      8  C   UNL     1       1.533   4.692  -4.883  0.00  0.00    +0.225 C 
ATOM      9  O   UNL     1       1.896   5.064  -5.978  0.00  0.00    -0.275 OA
ATOM     10  N   UNL     1       2.125   1.887  -3.704  0.00  0.00    +0.396 N 
ATOM     11  H   UNL     1       2.969   2.465  -3.615  0.00  0.00    -0.083 HD
ATOM     12  H   UNL     1       2.386   0.894  -3.688  0.00  0.00    -0.083 HD
ENDROOT
BRANCH   4  13
ATOM     13  C   UNL     1       1.918   2.405  -1.314  0.00  0.00    -0.019 A 
ATOM     14  C   UNL     1       3.244   2.791  -1.319  0.00  0.00    +0.005 A 
ATOM     15  C   UNL     1       3.910   2.996  -0.125  0.00  0.00    +0.000 A 
ATOM     16  C   UNL     1       3.251   2.815   1.077  0.00  0.00    +0.004 A 
ATOM     17  C   UNL     1       1.923   2.433   1.087  0.00  0.00    +0.045 A 
ATOM     18  C   UNL     1       1.254   2.222  -0.110  0.00  0.00    +0.118 A 
BRANCH  18  19
ATOM     19  O   UNL     1      -0.051   1.842  -0.103  0.00  0.00    -0.507 OA
ATOM     20  H   UNL     1      -0.181   0.884  -0.093  0.00  0.00    +0.292 HD
ENDBRANCH  18  19
ENDBRANCH   4  13
BRANCH   1  21
ATOM     21  C   UNL     1       0.469   1.095  -5.305  0.00  0.00    +0.346 C 
ATOM     22  O   UNL     1      -0.605   1.356  -5.793  0.00  0.00    -0.248 OA
ATOM     23  O   UNL     1       0.812  -0.183  -5.081  0.00  0.00    -0.248 OA
ENDBRANCH   1  21
BRANCH   1  24
ATOM     24  C   UNL     1       2.406   2.452  -6.096  0.00  0.00    +0.002 C 
BRANCH  24  26
ATOM     25  C   UNL     1       4.021   1.360  -7.658  0.00  0.00    +0.007 C 
ATOM     26  C   UNL     1       3.155   1.156  -6.413  0.00  0.00    -0.018 C 
ATOM     27  C   UNL     1       4.047   0.779  -5.228  0.00  0.00    +0.007 C 
ENDBRANCH  24  26
ENDBRANCH   1  24
BRANCH   7  28
ATOM     28  C   UNL     1       2.704   6.466  -3.642  0.00  0.00    +0.151 C 
BRANCH  28  29
ATOM     29  C   UNL     1       1.845   7.702  -3.713  0.00  0.00    -0.030 A 
ATOM     30  C   UNL     1       1.563   8.278  -4.938  0.00  0.00    +0.005 A 
ATOM     31  C   UNL     1       0.771   9.409  -5.004  0.00  0.00    +0.000 A 
ATOM     32  C   UNL     1       0.272   9.972  -3.844  0.00  0.00    +0.000 A 
ATOM     33  C   UNL     1       0.559   9.399  -2.619  0.00  0.00    +0.000 A 
ATOM     34  C   UNL     1       1.346   8.265  -2.554  0.00  0.00    +0.005 A 
ENDBRANCH  28  29
ENDBRANCH   7  28
TORSDOF 7
