REMARK  Name = ZINC49776650
REMARK  2 active torsions:
REMARK  status: ('A' for Active; 'I' for Inactive)
REMARK    1  A    between atoms: C_1  and  C_2
REMARK    2  A    between atoms: C_5  and  N_9
REMARK                            x       y       z     vdW  Elec       q    Type
REMARK                         _______ _______ _______ _____ _____    ______ ____
ROOT
ATOM      1  N   UNL     1      -1.238   1.460  -4.435  0.00  0.00    -0.272 NA
ATOM      2  C   UNL     1      -1.910   2.248  -5.476  0.00  0.00    +0.106 C 
ATOM      3  C   UNL     1      -1.116   2.146  -6.783  0.00  0.00    +0.122 C 
ATOM      4  N   UNL     1      -0.928   0.723  -7.104  0.00  0.00    -0.307 N 
ATOM      5  C   UNL     1      -0.385  -0.161  -6.061  0.00  0.00    +0.122 C 
ATOM      6  C   UNL     1      -1.208   0.033  -4.783  0.00  0.00    +0.106 C 
ATOM      7  C   UNL     1      -1.253   0.227  -8.357  0.00  0.00    +0.161 A 
ATOM      8  N   UNL     1      -1.739   0.878  -9.393  0.00  0.00    -0.233 NA
ATOM      9  C   UNL     1      -1.998   0.255 -10.529  0.00  0.00    +0.120 A 
ATOM     10  C   UNL     1      -1.742  -1.075 -10.575  0.00  0.00    +0.068 A 
ATOM     11  S   UNL     1      -1.117  -1.351  -8.926  0.00  0.00    -0.061 S 
ENDROOT
BRANCH   1  15
ATOM     12  C   UNL     1      -4.089  -0.876  -1.644  0.00  0.00    +0.085 C 
ATOM     13  C   UNL     1      -3.005   0.082  -2.066  0.00  0.00    +0.102 C 
ATOM     14  N   UNL     1      -3.142   0.929  -3.037  0.00  0.00    -0.245 NA
ATOM     15  C   UNL     1      -1.870   1.669  -3.126  0.00  0.00    +0.238 C 
ATOM     16  C   UNL     1      -1.036   1.052  -2.019  0.00  0.00    +0.111 C 
ATOM     17  N   UNL     1      -1.808   0.146  -1.473  0.00  0.00    -0.333 N 
ATOM     18  N   UNL     1       0.236   1.374  -1.665  0.00  0.00    -0.345 N 
ATOM     19  H   UNL     1       0.684   2.121  -2.093  0.00  0.00    +0.143 HD
ATOM     20  H   UNL     1       0.696   0.858  -0.986  0.00  0.00    +0.143 HD
ATOM     21  H   UNL     1      -1.542  -0.416  -0.728  0.00  0.00    +0.168 HD
ENDBRANCH   1  15
TORSDOF 1
