REMARK  Name = ZINC12507610
REMARK  7 active torsions:
REMARK  status: ('A' for Active; 'I' for Inactive)
REMARK    1  A    between atoms: C_1  and  O_2
REMARK    2  A    between atoms: O_2  and  C_3
REMARK    3  A    between atoms: C_5  and  C_13
REMARK    4  A    between atoms: C_6  and  O_11
REMARK    5  A    between atoms: C_8  and  O_9
REMARK    6  A    between atoms: O_9  and  C_10
REMARK    7  A    between atoms: O_11  and  C_12
REMARK                            x       y       z     vdW  Elec       q    Type
REMARK                         _______ _______ _______ _____ _____    ______ ____
ROOT
ATOM      1  C   UNL     1      -4.871   0.262   0.039  0.00  0.00    +0.212 C 
ATOM      2  N   UNL     1      -4.593   1.641   0.481  0.00  0.00    -0.294 N 
ATOM      3  C   UNL     1      -4.114   2.560  -0.414  0.00  0.00    +0.160 C 
ATOM      4  N   UNL     1      -4.415   2.493  -1.700  0.00  0.00    -0.302 N 
ATOM      5  C   UNL     1      -5.166   1.451  -2.131  0.00  0.00    +0.213 A 
ATOM      6  N   UNL     1      -5.416   0.358  -1.320  0.00  0.00    -0.286 N 
ATOM      7  C   UNL     1      -6.211  -0.517  -2.024  0.00  0.00    +0.076 A 
ATOM      8  C   UNL     1      -6.787  -1.748  -1.738  0.00  0.00    +0.077 A 
ATOM      9  C   UNL     1      -7.556  -2.386  -2.692  0.00  0.00    +0.164 A 
ATOM     10  C   UNL     1      -7.758  -1.804  -3.940  0.00  0.00    +0.164 A 
ATOM     11  C   UNL     1      -7.191  -0.583  -4.242  0.00  0.00    +0.079 A 
ATOM     12  C   UNL     1      -6.410   0.074  -3.286  0.00  0.00    +0.095 A 
ATOM     13  N   UNL     1      -5.738   1.264  -3.292  0.00  0.00    -0.212 NA
ATOM     14  O   UNL     1      -8.524  -2.450  -4.869  0.00  0.00    -0.488 OA
ATOM     15  C   UNL     1      -7.974  -3.655  -5.404  0.00  0.00    +0.232 C 
ATOM     16  C   UNL     1      -8.279  -4.836  -4.497  0.00  0.00    +0.082 C 
ATOM     17  C   UNL     1      -7.605  -4.712  -3.139  0.00  0.00    +0.232 C 
ATOM     18  O   UNL     1      -8.125  -3.596  -2.414  0.00  0.00    -0.488 OA
ATOM     19  N   UNL     1      -3.306   3.571   0.032  0.00  0.00    -0.332 N 
ATOM     20  H   UNL     1      -4.749   1.896   1.403  0.00  0.00    +0.151 HD
ATOM     21  H   UNL     1      -3.078   3.630   0.973  0.00  0.00    +0.145 HD
ATOM     22  H   UNL     1      -2.960   4.227  -0.593  0.00  0.00    +0.145 HD
ATOM     23  H   UNL     1      -4.106   3.173  -2.318  0.00  0.00    +0.171 HD
ENDROOT
BRANCH   1  26
ATOM     24  C   UNL     1      -1.202  -0.638   0.010  0.00  0.00    +0.162 A 
ATOM     25  C   UNL     1      -2.374   0.100   0.019  0.00  0.00    +0.060 A 
ATOM     26  C   UNL     1      -3.597  -0.543   0.028  0.00  0.00    +0.039 A 
ATOM     27  C   UNL     1      -3.654  -1.929   0.027  0.00  0.00    +0.131 A 
ATOM     28  C   UNL     1      -2.483  -2.672   0.017  0.00  0.00    +0.095 A 
ATOM     29  C   UNL     1      -1.256  -2.029   0.003  0.00  0.00    +0.165 A 
BRANCH  24  31
ATOM     30  C   UNL     1      -0.017   1.425   0.010  0.00  0.00    +0.277 C 
ATOM     31  O   UNL     1       0.002  -0.004   0.002  0.00  0.00    -0.491 OA
ENDBRANCH  24  31
BRANCH  29  32
ATOM     32  O   UNL     1      -0.107  -2.755  -0.012  0.00  0.00    -0.491 OA
ATOM     33  C   UNL     1      -0.238  -4.178  -0.019  0.00  0.00    +0.277 C 
ENDBRANCH  29  32
BRANCH  27  34
ATOM     34  O   UNL     1      -4.859  -2.560   0.035  0.00  0.00    -0.495 OA
ATOM     35  C   UNL     1      -4.843  -3.989   0.034  0.00  0.00    +0.277 C 
ENDBRANCH  27  34
ENDBRANCH   1  26
TORSDOF 4
