REMARK  Name = ZINC12447625
REMARK  6 active torsions:
REMARK  status: ('A' for Active; 'I' for Inactive)
REMARK    1  A    between atoms: C_1  and  C_2
REMARK    2  A    between atoms: C_5  and  C_8
REMARK    3  A    between atoms: N_10  and  C_11
REMARK    4  A    between atoms: C_11  and  C_29
REMARK    5  A    between atoms: N_17  and  C_22
REMARK    6  A    between atoms: C_22  and  C_23
REMARK                            x       y       z     vdW  Elec       q    Type
REMARK                         _______ _______ _______ _____ _____    ______ ____
ROOT
ATOM      1  C   UNL     1       0.093  -6.396   1.134  0.00  0.00    +0.242 C 
ATOM      2  C   UNL     1      -0.020  -6.941   2.539  0.00  0.00    +0.094 C 
ATOM      3  C   UNL     1       0.744  -6.839   3.657  0.00  0.00    +0.253 C 
ATOM      4  O   UNL     1       1.885  -6.118   3.639  0.00  0.00    -0.270 OA
ATOM      5  N   UNL     1       0.347  -7.474   4.806  0.00  0.00    -0.236 N 
ATOM      6  C   UNL     1      -0.790  -8.194   4.827  0.00  0.00    +0.314 C 
ATOM      7  N   UNL     1      -1.565  -8.312   3.735  0.00  0.00    -0.234 N 
ATOM      8  C   UNL     1      -1.206  -7.689   2.556  0.00  0.00    +0.133 C 
ATOM      9  N   UNL     1      -1.798  -7.658   1.366  0.00  0.00    -0.162 NA
ATOM     10  C   UNL     1      -1.149  -6.946   0.459  0.00  0.00    +0.275 C 
ATOM     11  O   UNL     1      -1.485  -6.767  -0.696  0.00  0.00    -0.271 OA
ATOM     12  O   UNL     1      -1.123  -8.749   5.856  0.00  0.00    -0.252 OA
ATOM     13  H   UNL     1       0.889  -7.405   5.608  0.00  0.00    +0.159 HD
ENDROOT
BRANCH   1  16
ATOM     14  C   UNL     1       0.059  -4.251  -0.021  0.00  0.00    +0.245 C 
ATOM     15  O   UNL     1       0.062  -4.853  -1.077  0.00  0.00    -0.270 OA
ATOM     16  N   UNL     1       0.074  -4.931   1.142  0.00  0.00    -0.287 N 
ATOM     17  H   UNL     1       0.072  -4.451   1.985  0.00  0.00    +0.151 HD
BRANCH  14  22
ATOM     18  C   UNL     1      -0.018   1.503   0.010  0.00  0.00    +0.044 C 
ATOM     19  C   UNL     1       0.002  -0.004   0.002  0.00  0.00    -0.050 A 
ATOM     20  C   UNL     1       0.006  -0.686  -1.202  0.00  0.00    +0.004 A 
ATOM     21  C   UNL     1       0.024  -2.066  -1.216  0.00  0.00    +0.013 A 
ATOM     22  C   UNL     1       0.040  -2.773  -0.013  0.00  0.00    +0.037 A 
ATOM     23  C   UNL     1       0.036  -2.079   1.198  0.00  0.00    +0.013 A 
ATOM     24  C   UNL     1       0.023  -0.699   1.198  0.00  0.00    +0.004 A 
ENDBRANCH  14  22
ENDBRANCH   1  16
BRANCH   1  25
ATOM     25  C   UNL     1       1.358  -6.916   0.448  0.00  0.00    +0.424 C 
ATOM     26  F   UNL     1       2.485  -6.465   1.143  0.00  0.00    -0.167 F 
ATOM     27  F   UNL     1       1.343  -8.315   0.440  0.00  0.00    -0.167 F 
ATOM     28  F   UNL     1       1.403  -6.442  -0.868  0.00  0.00    -0.167 F 
ENDBRANCH   1  25
BRANCH   7  29
ATOM     29  C   UNL     1      -2.796  -9.104   3.797  0.00  0.00    +0.190 C 
BRANCH  29  30
ATOM     30  C   UNL     1      -3.944  -8.217   4.208  0.00  0.00    +0.123 A 
ATOM     31  C   UNL     1      -4.745  -7.531   3.374  0.00  0.00    +0.046 A 
ATOM     32  C   UNL     1      -5.678  -6.838   4.180  0.00  0.00    +0.041 A 
ATOM     33  C   UNL     1      -5.391  -7.144   5.458  0.00  0.00    +0.195 A 
ATOM     34  O   UNL     1      -4.343  -7.984   5.469  0.00  0.00    -0.466 OA
ENDBRANCH  29  30
ENDBRANCH   7  29
TORSDOF 5
