REMARK  Name = ZINC44713797
REMARK  8 active torsions:
REMARK  status: ('A' for Active; 'I' for Inactive)
REMARK    1  A    between atoms: C_1  and  C_2
REMARK    2  A    between atoms: C_2  and  C_3
REMARK    3  A    between atoms: C_7  and  C_16
REMARK    4  A    between atoms: N_18  and  C_19
REMARK    5  A    between atoms: C_19  and  C_21
REMARK    6  A    between atoms: C_19  and  C_22
REMARK    7  A    between atoms: C_23  and  C_29
REMARK    8  A    between atoms: C_27  and  C_28
REMARK                            x       y       z     vdW  Elec       q    Type
REMARK                         _______ _______ _______ _____ _____    ______ ____
ROOT
ATOM      1  C   UNL     1       0.725  -0.500  -1.357  0.00  0.00    +0.215 C 
ATOM      2  O   UNL     1       1.171   0.284  -2.168  0.00  0.00    -0.276 OA
ATOM      3  N   UNL     1       0.861  -1.826  -1.556  0.00  0.00    -0.300 N 
ATOM      4  C   UNL     1       0.382  -2.928  -0.689  0.00  0.00    +0.121 C 
ATOM      5  C   UNL     1      -0.128  -4.005  -1.673  0.00  0.00    +0.100 C 
ATOM      6  C   UNL     1       0.627  -3.728  -2.984  0.00  0.00    -0.004 C 
ATOM      7  C   UNL     1       1.519  -2.512  -2.695  0.00  0.00    +0.115 C 
ATOM      8  C   UNL     1      -0.359  -3.397  -4.101  0.00  0.00    -0.010 C 
ATOM      9  C   UNL     1       0.411  -3.181  -5.407  0.00  0.00    -0.082 C 
ATOM     10  N   UNL     1       1.168  -4.395  -5.738  0.00  0.00    +0.379 N 
ATOM     11  C   UNL     1       2.177  -4.654  -4.703  0.00  0.00    -0.082 C 
ATOM     12  C   UNL     1       1.482  -4.932  -3.368  0.00  0.00    -0.010 C 
ATOM     13  H   UNL     1       0.535  -5.179  -5.792  0.00  0.00    -0.086 HD
ATOM     14  H   UNL     1       1.625  -4.272  -6.629  0.00  0.00    -0.086 HD
ENDROOT
BRANCH   5  15
ATOM     15  C   UNL     1       0.200  -5.383  -1.158  0.00  0.00    +0.219 C 
ATOM     16  O   UNL     1       1.229  -5.573  -0.545  0.00  0.00    -0.275 OA
ATOM     17  N   UNL     1      -0.651  -6.405  -1.379  0.00  0.00    -0.308 N 
ATOM     18  H   UNL     1      -1.474  -6.253  -1.869  0.00  0.00    +0.149 HD
BRANCH  17  19
ATOM     19  C   UNL     1      -0.333  -7.744  -0.879  0.00  0.00    +0.104 C 
ATOM     20  C   UNL     1       0.668  -8.416  -1.821  0.00  0.00    +0.033 C 
BRANCH  19  21
ATOM     21  C   UNL     1      -1.593  -8.569  -0.814  0.00  0.00    +0.015 A 
ATOM     22  C   UNL     1      -2.012  -9.299   0.245  0.00  0.00    +0.038 A 
ATOM     23  N   UNL     1      -3.179  -9.886  -0.096  0.00  0.00    -0.281 N 
ATOM     24  H   UNL     1      -3.711 -10.469   0.468  0.00  0.00    +0.189 HD
ATOM     25  N   UNL     1      -3.486  -9.503  -1.408  0.00  0.00    -0.179 NA
ATOM     26  C   UNL     1      -2.538  -8.709  -1.835  0.00  0.00    +0.065 A 
ATOM     27  C   UNL     1      -2.474  -8.061  -3.194  0.00  0.00    +0.068 C 
ATOM     28  C   UNL     1      -1.304  -9.434   1.569  0.00  0.00    +0.065 C 
ENDBRANCH  19  21
ENDBRANCH  17  19
ENDBRANCH   5  15
BRANCH   1  30
ATOM     29  C   UNL     1       0.003   1.539  -0.145  0.00  0.00    +0.013 C 
ATOM     30  C   UNL     1       0.019   0.009  -0.127  0.00  0.00    +0.092 C 
ENDBRANCH   1  30
TORSDOF 4
