REMARK  Name = ZINC27018249
REMARK  6 active torsions:
REMARK  status: ('A' for Active; 'I' for Inactive)
REMARK    1  A    between atoms: C_1  and  C_2
REMARK    2  A    between atoms: C_9  and  N_14
REMARK    3  A    between atoms: C_15  and  C_17
REMARK    4  A    between atoms: C_17  and  C_18
REMARK    5  A    between atoms: C_18  and  C_19
REMARK    6  A    between atoms: N_22  and  C_24
REMARK                            x       y       z     vdW  Elec       q    Type
REMARK                         _______ _______ _______ _____ _____    ______ ____
ROOT
ATOM      1  N   UNL     1       2.648  -4.008  -0.602  0.00  0.00    -0.285 N 
ATOM      2  C   UNL     1       3.854  -4.604  -0.674  0.00  0.00    +0.218 C 
ATOM      3  O   UNL     1       4.854  -3.989  -0.368  0.00  0.00    -0.275 OA
ATOM      4  H   UNL     1       1.734  -4.590  -0.795  0.00  0.00    +0.155 HD
ENDROOT
BRANCH   1  12
ATOM      5  C   UNL     1       3.277   3.558   0.892  0.00  0.00    +0.062 C 
ATOM      6  C   UNL     1       3.522   2.048   0.894  0.00  0.00    +0.256 C 
ATOM      7  C   UNL     1       4.500   1.697  -0.198  0.00  0.00    +0.258 C 
ATOM      8  O   UNL     1       5.334   2.504  -0.551  0.00  0.00    -0.271 OA
ATOM      9  N   UNL     1       4.447   0.478  -0.778  0.00  0.00    -0.279 N 
ATOM     10  C   UNL     1       3.455  -0.426  -0.371  0.00  0.00    +0.077 A 
ATOM     11  C   UNL     1       3.550  -1.769  -0.692  0.00  0.00    +0.050 A 
ATOM     12  C   UNL     1       2.556  -2.648  -0.281  0.00  0.00    +0.035 A 
ATOM     13  C   UNL     1       1.472  -2.179   0.449  0.00  0.00    +0.027 A 
ATOM     14  C   UNL     1       1.377  -0.837   0.769  0.00  0.00    +0.049 A 
ATOM     15  C   UNL     1       2.366   0.042   0.361  0.00  0.00    +0.143 A 
ATOM     16  O   UNL     1       2.286   1.365   0.670  0.00  0.00    -0.478 OA
ATOM     17  H   UNL     1       5.176   0.207  -1.556  0.00  0.00    +0.155 HD
ENDBRANCH   1  12
BRANCH   2  18
ATOM     18  C   UNL     1       3.962  -6.035  -1.135  0.00  0.00    +0.101 C 
BRANCH  18  19
ATOM     19  C   UNL     1       5.431  -6.464  -1.126  0.00  0.00    +0.047 C 
BRANCH  19  20
ATOM     20  C   UNL     1       5.538  -7.895  -1.587  0.00  0.00    -0.009 A 
ATOM     21  C   UNL     1       5.493  -9.029  -0.768  0.00  0.00    +0.138 A 
ATOM     22  N   UNL     1       5.615 -10.088  -1.528  0.00  0.00    -0.175 NA
ATOM     23  N   UNL     1       5.752  -9.661  -2.855  0.00  0.00    -0.240 N 
ATOM     24  C   UNL     1       5.701  -8.310  -2.864  0.00  0.00    +0.118 A 
BRANCH  23  25
ATOM     25  C   UNL     1       5.913 -10.488  -3.975  0.00  0.00    +0.065 A 
ATOM     26  C   UNL     1       6.032  -9.930  -5.241  0.00  0.00    +0.028 A 
ATOM     27  C   UNL     1       6.197 -10.747  -6.342  0.00  0.00    +0.002 A 
ATOM     28  C   UNL     1       6.231 -12.121  -6.186  0.00  0.00    +0.000 A 
ATOM     29  C   UNL     1       6.106 -12.680  -4.928  0.00  0.00    +0.002 A 
ATOM     30  C   UNL     1       5.947 -11.868  -3.822  0.00  0.00    +0.028 A 
ENDBRANCH  23  25
ENDBRANCH  19  20
ENDBRANCH  18  19
ENDBRANCH   2  18
TORSDOF 5
