REMARK  Name = ZINC43509611
REMARK  9 active torsions:
REMARK  status: ('A' for Active; 'I' for Inactive)
REMARK    1  A    between atoms: C_1  and  C_2
REMARK    2  A    between atoms: C_4  and  O_22
REMARK    3  A    between atoms: C_8  and  C_21
REMARK    4  A    between atoms: C_9  and  C_10
REMARK    5  A    between atoms: C_9  and  O_12
REMARK    6  A    between atoms: C_10  and  O_11
REMARK    7  A    between atoms: C_14  and  O_20
REMARK    8  A    between atoms: C_17  and  C_18
REMARK    9  A    between atoms: C_17  and  C_19
REMARK                            x       y       z     vdW  Elec       q    Type
REMARK                         _______ _______ _______ _____ _____    ______ ____
ROOT
ATOM      1  C   UNL     1       2.040   1.315   0.272  0.00  0.00    +0.042 C 
ATOM      2  C   UNL     1       1.355  -0.024   0.251  0.00  0.00    -0.040 C 
ATOM      3  C   UNL     1       0.736  -0.396  -0.817  0.00  0.00    +0.006 C 
ATOM      4  C   UNL     1       0.023  -1.698  -0.989  0.00  0.00    +0.142 C 
ATOM      5  C   UNL     1       0.062  -2.620   0.234  0.00  0.00    +0.036 C 
ATOM      6  C   UNL     1       1.298  -2.368   1.083  0.00  0.00    +0.011 C 
ATOM      7  C   UNL     1       1.402  -0.882   1.473  0.00  0.00    +0.115 C 
ATOM      8  C   UNL     1       2.569  -2.766   0.343  0.00  0.00    +0.041 C 
ATOM      9  C   UNL     1       2.521  -4.202  -0.156  0.00  0.00    +0.116 C 
ATOM     10  C   UNL     1       1.273  -4.478  -0.975  0.00  0.00    +0.038 C 
ATOM     11  C   UNL     1      -0.016  -4.062  -0.280  0.00  0.00    -0.026 C 
ATOM     12  C   UNL     1      -1.153  -4.165  -1.326  0.00  0.00    +0.011 C 
ATOM     13  C   UNL     1      -0.386  -5.061   0.819  0.00  0.00    +0.011 C 
ATOM     14  C   UNL     1       1.236  -3.107   2.431  0.00  0.00    +0.015 C 
ENDROOT
BRANCH   7  15
ATOM     15  O   UNL     1       2.643  -0.676   2.152  0.00  0.00    -0.381 OA
ATOM     16  H   UNL     1       2.788   0.237   2.438  0.00  0.00    +0.211 HD
ENDBRANCH   7  15
BRANCH   9  17
ATOM     17  O   UNL     1       2.655  -5.135   0.913  0.00  0.00    -0.392 OA
ATOM     18  H   UNL     1       2.629  -6.060   0.633  0.00  0.00    +0.210 HD
ENDBRANCH   9  17
BRANCH   4  19
ATOM     19  O   UNL     1      -1.348  -1.378  -1.286  0.00  0.00    -0.387 OA
ATOM     20  H   UNL     1      -1.464  -0.852  -2.089  0.00  0.00    +0.210 HD
ENDBRANCH   4  19
BRANCH   7  21
ATOM     21  C   UNL     1       0.252  -0.521   2.411  0.00  0.00    +0.195 C 
BRANCH  21  22
ATOM     22  O   UNL     1       0.297   0.876   2.704  0.00  0.00    -0.392 OA
ATOM     23  H   UNL     1      -0.406   1.177   3.296  0.00  0.00    +0.210 HD
ENDBRANCH  21  22
ENDBRANCH   7  21
TORSDOF 5
