REMARK  Name = ZINC04236776
REMARK  14 active torsions:
REMARK  status: ('A' for Active; 'I' for Inactive)
REMARK    1  A    between atoms: C_1  and  C_2
REMARK    2  A    between atoms: N_4  and  C_5
REMARK    3  A    between atoms: C_11  and  C_13
REMARK    4  A    between atoms: C_13  and  C_14
REMARK    5  A    between atoms: C_16  and  O_44
REMARK    6  A    between atoms: C_22  and  C_43
REMARK    7  A    between atoms: C_25  and  O_31
REMARK    8  A    between atoms: C_27  and  C_28
REMARK    9  A    between atoms: C_27  and  C_29
REMARK   10  A    between atoms: C_29  and  O_30
REMARK   11  A    between atoms: O_31  and  C_32
REMARK   12  A    between atoms: N_34  and  C_35
REMARK   13  A    between atoms: C_39  and  S_41
REMARK   14  A    between atoms: S_41  and  C_42
REMARK                            x       y       z     vdW  Elec       q    Type
REMARK                         _______ _______ _______ _____ _____    ______ ____
ROOT
ATOM      1  C   UNL     1      -0.380   1.303  -4.734  0.00  0.00    +0.032 C 
ATOM      2  C   UNL     1       1.053   1.833  -4.810  0.00  0.00    +0.119 C 
ATOM      3  C   UNL     1       1.655   1.481  -6.172  0.00  0.00    +0.032 C 
ATOM      4  C   UNL     1       0.816   2.119  -7.280  0.00  0.00    +0.007 C 
ATOM      5  C   UNL     1      -0.617   1.589  -7.205  0.00  0.00    +0.007 C 
ATOM      6  C   UNL     1      -1.219   1.941  -5.843  0.00  0.00    -0.023 C 
ATOM      7  C   UNL     1      -2.653   1.412  -5.767  0.00  0.00    +0.011 C 
ATOM      8  C   UNL     1      -3.492   2.050  -6.875  0.00  0.00    +0.046 C 
ATOM      9  C   UNL     1      -2.890   1.698  -8.237  0.00  0.00    +0.186 C 
ATOM     10  C   UNL     1      -1.456   2.228  -8.313  0.00  0.00    +0.031 C 
ATOM     11  C   UNL     1      -0.854   1.876  -9.675  0.00  0.00    +0.017 C 
ATOM     12  C   UNL     1      -1.227   3.461  -5.666  0.00  0.00    +0.012 C 
ENDROOT
BRANCH   2  13
ATOM     13  O   UNL     1       1.046   3.252  -4.644  0.00  0.00    -0.391 OA
ATOM     14  H   UNL     1       1.923   3.657  -4.682  0.00  0.00    +0.210 HD
ENDBRANCH   2  13
BRANCH   1  15
ATOM     15  C   UNL     1      -0.983   1.655  -3.372  0.00  0.00    +0.102 C 
BRANCH  15  21
ATOM     16  C   UNL     1      -0.665   0.937   1.426  0.00  0.00    +0.092 C 
ATOM     17  C   UNL     1      -1.310   2.270   0.956  0.00  0.00    +0.043 C 
ATOM     18  C   UNL     1      -1.688   1.937  -0.509  0.00  0.00    +0.109 C 
ATOM     19  N   UNL     1      -0.588   1.086  -0.997  0.00  0.00    -0.300 N 
ATOM     20  C   UNL     1       0.057   0.439   0.155  0.00  0.00    +0.130 C 
ATOM     21  C   UNL     1      -0.231   0.927  -2.287  0.00  0.00    +0.216 C 
ATOM     22  O   UNL     1       0.696   0.199  -2.575  0.00  0.00    -0.276 OA
BRANCH  16  26
ATOM     23  C   UNL     1       0.878   1.362   4.904  0.00  0.00    +0.109 C 
ATOM     24  C   UNL     1      -0.109   1.117   3.792  0.00  0.00    +0.210 C 
ATOM     25  O   UNL     1      -1.267   0.869   4.052  0.00  0.00    -0.276 OA
ATOM     26  N   UNL     1       0.295   1.175   2.507  0.00  0.00    -0.311 N 
ATOM     27  H   UNL     1       1.221   1.373   2.299  0.00  0.00    +0.149 HD
ENDBRANCH  16  26
ENDBRANCH  15  21
ENDBRANCH   1  15
BRANCH  10  28
ATOM     28  C   UNL     1      -1.464   3.748  -8.136  0.00  0.00    +0.166 C 
BRANCH  28  29
ATOM     29  O   UNL     1      -2.078   4.357  -9.274  0.00  0.00    -0.394 OA
ATOM     30  H   UNL     1      -2.117   5.322  -9.230  0.00  0.00    +0.209 HD
ENDBRANCH  28  29
ENDBRANCH  10  28
BRANCH   9  31
ATOM     31  O   UNL     1      -3.686   2.304  -9.290  0.00  0.00    -0.446 OA
BRANCH  31  32
ATOM     32  C   UNL     1      -4.706   1.575  -9.781  0.00  0.00    +0.405 C 
ATOM     33  O   UNL     1      -4.924   0.463  -9.343  0.00  0.00    -0.226 OA
ATOM     34  N   UNL     1      -5.484   2.079 -10.759  0.00  0.00    -0.251 N 
ATOM     35  H   UNL     1      -5.269   2.937 -11.156  0.00  0.00    +0.158 HD
BRANCH  34  36
ATOM     36  C   UNL     1      -6.603   1.363 -11.202  0.00  0.00    +0.037 A 
ATOM     37  C   UNL     1      -7.751   2.041 -11.593  0.00  0.00    +0.023 A 
ATOM     38  C   UNL     1      -8.856   1.336 -12.031  0.00  0.00    +0.003 A 
ATOM     39  C   UNL     1      -8.822  -0.044 -12.082  0.00  0.00    +0.015 A 
ATOM     40  C   UNL     1      -7.677  -0.728 -11.691  0.00  0.00    +0.009 A 
ATOM     41  C   UNL     1      -6.563  -0.022 -11.256  0.00  0.00    +0.038 A 
BRANCH  40  42
ATOM     42  S   UNL     1      -7.635  -2.489 -11.756  0.00  0.00    -0.129 S 
ATOM     43  C   UNL     1      -9.276  -2.944 -12.380  0.00  0.00    +0.090 C 
ENDBRANCH  40  42
ENDBRANCH  34  36
ENDBRANCH  31  32
ENDBRANCH   9  31
TORSDOF 10
