REMARK  Name = ZINC50953639
REMARK  7 active torsions:
REMARK  status: ('A' for Active; 'I' for Inactive)
REMARK    1  A    between atoms: C_1  and  C_2
REMARK    2  A    between atoms: C_2  and  C_3
REMARK    3  A    between atoms: C_2  and  C_4
REMARK    4  A    between atoms: C_2  and  C_5
REMARK    5  A    between atoms: N_13  and  C_14
REMARK    6  A    between atoms: C_14  and  C_15
REMARK    7  A    between atoms: C_15  and  C_16
REMARK                            x       y       z     vdW  Elec       q    Type
REMARK                         _______ _______ _______ _____ _____    ______ ____
ROOT
ATOM      1  C   UNL     1       0.707  -0.490  -1.238  0.00  0.00    +0.068 A 
ATOM      2  C   UNL     1       2.036  -0.472  -1.446  0.00  0.00    +0.139 A 
ATOM      3  N   UNL     1       2.274  -1.006  -2.706  0.00  0.00    -0.212 N 
ATOM      4  C   UNL     1       1.036  -1.321  -3.194  0.00  0.00    +0.197 A 
ATOM      5  N   UNL     1       0.118  -1.020  -2.320  0.00  0.00    -0.224 NA
ATOM      6  S   UNL     1       1.413  -1.993  -4.795  0.00  0.00    -0.013 S 
ATOM      7  C   UNL     1       3.188  -1.812  -4.716  0.00  0.00    +0.182 A 
ATOM      8  N   UNL     1       3.357  -1.280  -3.535  0.00  0.00    -0.142 NA
ATOM      9  N   UNL     1       4.141  -2.150  -5.663  0.00  0.00    -0.322 N 
ATOM     10  H   UNL     1       5.081  -1.994  -5.483  0.00  0.00    +0.148 HD
ENDROOT
BRANCH   1  12
ATOM     11  C   UNL     1      -0.019   1.526   0.010  0.00  0.00    +0.017 C 
ATOM     12  C   UNL     1       0.002  -0.004   0.002  0.00  0.00    +0.006 C 
ATOM     13  C   UNL     1       0.742  -0.511   1.242  0.00  0.00    +0.017 C 
ATOM     14  C   UNL     1      -1.433  -0.534   0.013  0.00  0.00    +0.017 C 
ENDBRANCH   1  12
BRANCH   9  15
ATOM     15  C   UNL     1       3.729  -2.743  -6.938  0.00  0.00    +0.110 C 
BRANCH  15  16
ATOM     16  C   UNL     1       4.966  -3.018  -7.796  0.00  0.00    +0.081 C 
BRANCH  16  17
ATOM     17  C   UNL     1       4.542  -3.628  -9.107  0.00  0.00    +0.080 A 
ATOM     18  N   UNL     1       4.242  -3.021 -10.228  0.00  0.00    -0.252 NA
ATOM     19  C   UNL     1       3.885  -3.698 -11.301  0.00  0.00    +0.119 A 
ATOM     20  C   UNL     1       3.843  -5.050 -11.190  0.00  0.00    +0.066 A 
ATOM     21  S   UNL     1       4.346  -5.256  -9.489  0.00  0.00    -0.081 S 
ENDBRANCH  16  17
ENDBRANCH  15  16
ENDBRANCH   9  15
TORSDOF 4
