REMARK  Name = ZINC01581670
REMARK  9 active torsions:
REMARK  status: ('A' for Active; 'I' for Inactive)
REMARK    1  A    between atoms: C_1  and  C_2
REMARK    2  A    between atoms: C_2  and  C_3
REMARK    3  A    between atoms: C_2  and  C_4
REMARK    4  A    between atoms: C_2  and  S_12
REMARK    5  A    between atoms: S_12  and  S_13
REMARK    6  A    between atoms: S_13  and  C_14
REMARK    7  A    between atoms: C_14  and  C_15
REMARK    8  A    between atoms: C_14  and  C_16
REMARK    9  A    between atoms: C_14  and  C_17
REMARK                            x       y       z     vdW  Elec       q    Type
REMARK                         _______ _______ _______ _____ _____    ______ ____
ROOT
ATOM      1  S   UNL     1       1.518   2.191  -0.056  0.00  0.00    -0.084 S 
ENDROOT
BRANCH   1   3
ATOM      2  C   UNL     1       3.005   2.377  -2.345  0.00  0.00    +0.025 C 
ATOM      3  C   UNL     1       1.684   1.810  -1.822  0.00  0.00    +0.048 C 
ATOM      4  C   UNL     1       0.520   2.438  -2.591  0.00  0.00    +0.025 C 
BRANCH   3   5
ATOM      5  C   UNL     1       1.667   0.293  -2.020  0.00  0.00    +0.177 C 
ATOM      6  C   UNL     1       0.346  -0.290  -1.558  0.00  0.00    +0.242 C 
ATOM      7  O   UNL     1      -0.119  -0.255  -0.439  0.00  0.00    -0.273 OA
ATOM      8  N   UNL     1      -0.205  -0.856  -2.650  0.00  0.00    -0.239 N 
ATOM      9  C   UNL     1       0.577  -0.713  -3.727  0.00  0.00    +0.307 C 
ATOM     10  O   UNL     1       0.293  -1.139  -4.829  0.00  0.00    -0.252 OA
ATOM     11  N   UNL     1       1.715  -0.043  -3.453  0.00  0.00    -0.286 N 
ATOM     12  H   UNL     1      -1.062  -1.310  -2.655  0.00  0.00    +0.159 HD
ATOM     13  H   UNL     1       2.426   0.175  -4.076  0.00  0.00    +0.151 HD
ENDBRANCH   3   5
ENDBRANCH   1   3
BRANCH   1  14
ATOM     14  S   UNL     1       1.611   4.238   0.020  0.00  0.00    -0.084 S 
BRANCH  14  15
ATOM     15  C   UNL     1       1.598   4.612   1.795  0.00  0.00    +0.048 C 
ATOM     16  C   UNL     1       0.296   4.101   2.415  0.00  0.00    +0.025 C 
ATOM     17  C   UNL     1       2.788   3.925   2.469  0.00  0.00    +0.025 C 
BRANCH  15  18
ATOM     18  C   UNL     1       1.700   6.125   1.998  0.00  0.00    +0.177 C 
ATOM     19  C   UNL     1       2.891   6.685   1.244  0.00  0.00    +0.242 C 
ATOM     20  O   UNL     1       4.059   6.407   1.410  0.00  0.00    -0.273 OA
ATOM     21  N   UNL     1       2.380   7.555   0.351  0.00  0.00    -0.239 N 
ATOM     22  C   UNL     1       1.046   7.622   0.435  0.00  0.00    +0.307 C 
ATOM     23  O   UNL     1       0.361   8.338  -0.268  0.00  0.00    -0.252 OA
ATOM     24  N   UNL     1       0.547   6.809   1.387  0.00  0.00    -0.286 N 
ATOM     25  H   UNL     1       2.913   8.069  -0.275  0.00  0.00    +0.159 HD
ATOM     26  H   UNL     1      -0.386   6.694   1.625  0.00  0.00    +0.151 HD
ENDBRANCH  15  18
ENDBRANCH  14  15
ENDBRANCH   1  14
TORSDOF 5
