REMARK  Name = ZINC54887534
REMARK  9 active torsions:
REMARK  status: ('A' for Active; 'I' for Inactive)
REMARK    1  A    between atoms: C_1  and  C_2
REMARK    2  A    between atoms: C_3  and  C_9
REMARK    3  A    between atoms: N_5  and  C_7
REMARK    4  A    between atoms: C_10  and  C_11
REMARK    5  A    between atoms: N_13  and  N_14
REMARK    6  A    between atoms: N_14  and  C_15
REMARK    7  A    between atoms: C_15  and  N_17
REMARK    8  A    between atoms: N_17  and  C_18
REMARK    9  A    between atoms: C_24  and  C_26
REMARK                            x       y       z     vdW  Elec       q    Type
REMARK                         _______ _______ _______ _____ _____    ______ ____
ROOT
ATOM      1  C   UNL     1       0.883  -0.439  -4.772  0.00  0.00    +0.253 C 
ATOM      2  O   UNL     1       0.062   0.382  -5.139  0.00  0.00    -0.269 OA
ATOM      3  N   UNL     1       1.780  -0.934  -5.648  0.00  0.00    -0.232 N 
ATOM      4  H   UNL     1       2.434  -1.588  -5.355  0.00  0.00    +0.173 HD
ENDROOT
BRANCH   1   6
ATOM      5  C   UNL     1      -0.004  -0.378  -2.545  0.00  0.00    +0.018 C 
ATOM      6  C   UNL     1       0.895  -0.874  -3.423  0.00  0.00    +0.069 C 
BRANCH   5   9
ATOM      7  C   UNL     1      -0.018   1.503   0.010  0.00  0.00    +0.068 C 
ATOM      8  C   UNL     1       0.002  -0.004   0.002  0.00  0.00    +0.069 A 
ATOM      9  C   UNL     1       0.008  -0.829  -1.147  0.00  0.00    +0.034 A 
ATOM     10  C   UNL     1       0.028  -2.142  -0.706  0.00  0.00    +0.134 A 
ATOM     11  N   UNL     1       0.034  -2.112   0.638  0.00  0.00    -0.255 N 
ATOM     12  N   UNL     1       0.023  -0.776   1.053  0.00  0.00    -0.175 NA
ATOM     13  C   UNL     1       0.053  -3.281   1.520  0.00  0.00    +0.174 C 
ATOM     14 CL   UNL     1       0.043  -3.562  -1.704  0.00  0.00    -0.062 Cl
ENDBRANCH   5   9
ENDBRANCH   1   6
BRANCH   3  15
ATOM     15  N   UNL     1       1.768  -0.504  -6.981  0.00  0.00    -0.246 N 
ATOM     16  H   UNL     1       1.114   0.150  -7.274  0.00  0.00    +0.172 HD
BRANCH  15  17
ATOM     17  C   UNL     1       2.665  -0.999  -7.857  0.00  0.00    +0.147 C 
ATOM     18  S   UNL     1       2.651  -0.473  -9.486  0.00  0.00    -0.017 S 
BRANCH  17  19
ATOM     19  N   UNL     1       3.574  -1.907  -7.450  0.00  0.00    -0.322 N 
ATOM     20  H   UNL     1       3.582  -2.205  -6.527  0.00  0.00    +0.148 HD
BRANCH  19  21
ATOM     21  C   UNL     1       4.548  -2.446  -8.402  0.00  0.00    +0.075 C 
ATOM     22  C   UNL     1       5.749  -1.502  -8.490  0.00  0.00    +0.022 C 
ATOM     23  C   UNL     1       6.400  -1.373  -7.112  0.00  0.00    +0.002 C 
ATOM     24  C   UNL     1       6.868  -2.751  -6.638  0.00  0.00    +0.000 C 
ATOM     25  C   UNL     1       5.667  -3.695  -6.550  0.00  0.00    +0.005 C 
ATOM     26  C   UNL     1       5.017  -3.823  -7.929  0.00  0.00    +0.006 C 
ATOM     27  C   UNL     1       3.816  -4.767  -7.840  0.00  0.00    +0.009 C 
ENDBRANCH  19  21
ENDBRANCH  17  19
ENDBRANCH  15  17
ENDBRANCH   3  15
TORSDOF 6
