REMARK  Name = ZINC39413094
REMARK  7 active torsions:
REMARK  status: ('A' for Active; 'I' for Inactive)
REMARK    1  A    between atoms: C_1  and  C_2
REMARK    2  A    between atoms: C_2  and  C_17
REMARK    3  A    between atoms: N_5  and  C_9
REMARK    4  A    between atoms: C_9  and  C_10
REMARK    5  A    between atoms: N_20  and  C_23
REMARK    6  A    between atoms: C_23  and  C_24
REMARK    7  A    between atoms: C_29  and  C_30
REMARK                            x       y       z     vdW  Elec       q    Type
REMARK                         _______ _______ _______ _____ _____    ______ ____
ROOT
ATOM      1  C   UNL     1       0.667  -0.525  -1.274  0.00  0.00    +0.018 C 
ATOM      2  C   UNL     1      -0.186  -0.145  -2.488  0.00  0.00    -0.013 C 
ATOM      3  C   UNL     1       0.524  -0.598  -3.765  0.00  0.00    -0.078 C 
ATOM      4  N   UNL     1       1.833   0.057  -3.861  0.00  0.00    +0.380 N 
ATOM      5  C   UNL     1       2.682  -0.359  -2.738  0.00  0.00    -0.078 C 
ATOM      6  C   UNL     1       2.056   0.104  -1.421  0.00  0.00    -0.013 C 
ATOM      7  H   UNL     1       1.710   1.058  -3.834  0.00  0.00    -0.082 HD
ENDROOT
BRANCH   1   9
ATOM      8  C   UNL     1      -0.019   1.526   0.010  0.00  0.00    +0.042 C 
ATOM      9  C   UNL     1       0.002  -0.004   0.002  0.00  0.00    +0.112 C 
ATOM     10  C   UNL     1      -1.403  -0.557   0.139  0.00  0.00    +0.247 C 
ATOM     11  O   UNL     1      -2.332  -0.392  -0.621  0.00  0.00    -0.273 OA
ATOM     12  N   UNL     1      -1.403  -1.272   1.282  0.00  0.00    -0.220 N 
ATOM     13  C   UNL     1      -0.206  -1.247   1.879  0.00  0.00    +0.310 C 
ATOM     14  O   UNL     1       0.040  -1.819   2.924  0.00  0.00    -0.252 OA
ATOM     15  N   UNL     1       0.695  -0.520   1.195  0.00  0.00    -0.285 N 
ATOM     16  H   UNL     1       1.621  -0.365   1.440  0.00  0.00    +0.151 HD
BRANCH  12  17
ATOM     17  C   UNL     1      -2.569  -1.986   1.805  0.00  0.00    +0.153 C 
BRANCH  17  18
ATOM     18  C   UNL     1      -2.585  -3.391   1.260  0.00  0.00    -0.029 A 
ATOM     19  C   UNL     1      -3.234  -3.663   0.070  0.00  0.00    +0.008 A 
ATOM     20  C   UNL     1      -3.248  -4.951  -0.431  0.00  0.00    +0.038 A 
ATOM     21  C   UNL     1      -2.612  -5.969   0.258  0.00  0.00    +0.123 A 
ATOM     22  C   UNL     1      -1.961  -5.695   1.450  0.00  0.00    +0.038 A 
ATOM     23  C   UNL     1      -1.944  -4.406   1.946  0.00  0.00    +0.008 A 
ATOM     24  F   UNL     1      -2.625  -7.228  -0.231  0.00  0.00    -0.205 F 
ENDBRANCH  17  18
ENDBRANCH  12  17
ENDBRANCH   1   9
BRANCH   4  25
ATOM     25  C   UNL     1       2.478  -0.321  -5.126  0.00  0.00    -0.063 C 
BRANCH  25  26
ATOM     26  C   UNL     1       3.785   0.458  -5.285  0.00  0.00    +0.066 C 
ATOM     27  C   UNL     1       3.506   1.931  -5.508  0.00  0.00    +0.115 C 
ATOM     28  N   UNL     1       3.992   2.216  -6.673  0.00  0.00    -0.161 NA
ATOM     29  N   UNL     1       4.577   1.115  -7.289  0.00  0.00    -0.153 NA
ATOM     30  C   UNL     1       4.506   0.038  -6.551  0.00  0.00    +0.077 C 
BRANCH  30  31
ATOM     31  C   UNL     1       5.018  -1.303  -6.877  0.00  0.00    -0.001 A 
ATOM     32  C   UNL     1       4.855  -2.357  -5.973  0.00  0.00    +0.010 A 
ATOM     33  C   UNL     1       5.338  -3.610  -6.287  0.00  0.00    +0.001 A 
ATOM     34  C   UNL     1       5.983  -3.826  -7.492  0.00  0.00    +0.000 A 
ATOM     35  C   UNL     1       6.149  -2.787  -8.392  0.00  0.00    +0.001 A 
ATOM     36  C   UNL     1       5.666  -1.530  -8.096  0.00  0.00    +0.010 A 
ENDBRANCH  30  31
ENDBRANCH  25  26
ENDBRANCH   4  25
TORSDOF 6
