REMARK  Name = ZINC52094402
REMARK  3 active torsions:
REMARK  status: ('A' for Active; 'I' for Inactive)
REMARK    1  A    between atoms: C_5  and  C_7
REMARK    2  A    between atoms: C_7  and  C_9
REMARK    3  A    between atoms: C_7  and  N_22
REMARK                            x       y       z     vdW  Elec       q    Type
REMARK                         _______ _______ _______ _____ _____    ______ ____
ROOT
ATOM      1  C   UNL     1       1.345  -2.679  -1.441  0.00  0.00    -0.042 A 
ATOM      2  C   UNL     1       1.206  -1.791  -2.491  0.00  0.00    +0.031 A 
ATOM      3  C   UNL     1       1.314  -2.244  -3.797  0.00  0.00    +0.067 A 
ATOM      4  C   UNL     1       1.561  -3.596  -4.046  0.00  0.00    +0.068 A 
ATOM      5  C   UNL     1       1.699  -4.480  -2.987  0.00  0.00    +0.043 A 
ATOM      6  C   UNL     1       1.596  -4.018  -1.688  0.00  0.00    +0.022 A 
ATOM      7 BR   UNL     1       1.792  -5.221  -0.243  0.00  0.00    -0.050 Br
ATOM      8  N   UNL     1       1.616  -3.747  -5.430  0.00  0.00    -0.306 N 
ATOM      9  H   UNL     1       1.774  -4.578  -5.904  0.00  0.00    +0.170 HD
ATOM     10  C   UNL     1       1.411  -2.542  -5.996  0.00  0.00    +0.325 A 
ATOM     11  O   UNL     1       1.395  -2.325  -7.193  0.00  0.00    -0.247 OA
ATOM     12  N   UNL     1       1.226  -1.616  -5.037  0.00  0.00    -0.306 N 
ATOM     13  H   UNL     1       1.058  -0.672  -5.184  0.00  0.00    +0.170 HD
ENDROOT
BRANCH   1  14
ATOM     14  C   UNL     1       1.228  -2.186  -0.022  0.00  0.00    -0.009 C 
BRANCH  14  19
ATOM     15  C   UNL     1       0.397   1.497  -0.010  0.00  0.00    +0.000 A 
ATOM     16  C   UNL     1       1.656   2.065   0.050  0.00  0.00    +0.003 A 
ATOM     17  C   UNL     1       2.778   1.259   0.086  0.00  0.00    +0.038 A 
ATOM     18  C   UNL     1       2.640  -0.119   0.063  0.00  0.00    +0.125 A 
ATOM     19  C   UNL     1       1.379  -0.687   0.004  0.00  0.00    -0.022 A 
ATOM     20  C   UNL     1       0.259   0.121  -0.033  0.00  0.00    +0.005 A 
ATOM     21  F   UNL     1       3.736  -0.908   0.098  0.00  0.00    -0.205 F 
ENDBRANCH  14  19
BRANCH  14  22
ATOM     22  N   UNL     1      -0.087  -2.555   0.518  0.00  0.00    +0.385 N 
ATOM     23  H   UNL     1      -0.812  -2.134  -0.045  0.00  0.00    -0.089 HD
ATOM     24  H   UNL     1      -0.189  -3.559   0.501  0.00  0.00    -0.089 HD
ATOM     25  H   UNL     1      -0.166  -2.225   1.468  0.00  0.00    -0.089 HD
ENDBRANCH  14  22
ENDBRANCH   1  14
TORSDOF 3
