REMARK  Name = ZINC39667141
REMARK  9 active torsions:
REMARK  status: ('A' for Active; 'I' for Inactive)
REMARK    1  A    between atoms: C_1  and  C_2
REMARK    2  A    between atoms: C_5  and  C_9
REMARK    3  A    between atoms: C_6  and  C_8
REMARK    4  A    between atoms: C_9  and  C_10
REMARK    5  A    between atoms: C_10  and  N_11
REMARK    6  A    between atoms: C_12  and  C_14
REMARK    7  A    between atoms: C_25  and  C_27
REMARK    8  A    between atoms: C_29  and  C_36
REMARK    9  A    between atoms: C_31  and  C_32
REMARK                            x       y       z     vdW  Elec       q    Type
REMARK                         _______ _______ _______ _____ _____    ______ ____
ROOT
ATOM      1  C   UNL     1      -2.479  -8.393   0.210  0.00  0.00    +0.100 C 
ATOM      2  C   UNL     1      -1.612  -8.986   1.342  0.00  0.00    +0.121 C 
ATOM      3  N   UNL     1      -2.562  -9.232   2.452  0.00  0.00    -0.296 N 
ATOM      4  C   UNL     1      -3.785  -9.737   1.785  0.00  0.00    +0.115 C 
ATOM      5  C   UNL     1      -3.905  -8.891   0.502  0.00  0.00    -0.004 C 
ATOM      6  C   UNL     1      -4.840  -7.709   0.736  0.00  0.00    -0.010 C 
ATOM      7  C   UNL     1      -6.262  -8.227   0.968  0.00  0.00    -0.082 C 
ATOM      8  N   UNL     1      -6.700  -8.999  -0.201  0.00  0.00    +0.379 N 
ATOM      9  C   UNL     1      -5.851 -10.186  -0.365  0.00  0.00    -0.082 C 
ATOM     10  C   UNL     1      -4.411  -9.750  -0.653  0.00  0.00    -0.010 C 
ATOM     11  C   UNL     1      -2.360  -9.040   3.771  0.00  0.00    +0.250 C 
ATOM     12  O   UNL     1      -1.337  -8.509   4.158  0.00  0.00    -0.270 OA
ATOM     13  H   UNL     1      -7.658  -9.289  -0.072  0.00  0.00    -0.086 HD
ATOM     14  H   UNL     1      -6.633  -8.424  -1.027  0.00  0.00    -0.086 HD
ENDROOT
BRANCH  11  15
ATOM     15  C   UNL     1      -3.379  -9.474   4.743  0.00  0.00    +0.087 A 
ATOM     16  C   UNL     1      -4.593 -10.255   4.469  0.00  0.00    +0.058 A 
ATOM     17  C   UNL     1      -5.208 -10.409   5.652  0.00  0.00    +0.103 A 
ATOM     18  O   UNL     1      -4.486  -9.799   6.605  0.00  0.00    -0.455 OA
ATOM     19  C   UNL     1      -3.388  -9.240   6.087  0.00  0.00    +0.220 A 
ATOM     20  C   UNL     1      -6.503 -11.147   5.874  0.00  0.00    +0.086 C 
BRANCH  19  21
ATOM     21  C   UNL     1      -2.341  -8.477   6.857  0.00  0.00    +0.451 C 
ATOM     22  F   UNL     1      -2.685  -7.122   6.895  0.00  0.00    -0.163 F 
ATOM     23  F   UNL     1      -2.265  -8.976   8.162  0.00  0.00    -0.163 F 
ATOM     24  F   UNL     1      -1.100  -8.626   6.228  0.00  0.00    -0.163 F 
ENDBRANCH  19  21
ENDBRANCH  11  15
BRANCH   1  26
ATOM     25  N   UNL     1      -2.558  -6.181  -0.894  0.00  0.00    -0.315 N 
ATOM     26  C   UNL     1      -2.432  -6.887   0.246  0.00  0.00    +0.218 C 
ATOM     27  O   UNL     1      -2.280  -6.311   1.303  0.00  0.00    -0.275 OA
ATOM     28  H   UNL     1      -2.680  -6.641  -1.739  0.00  0.00    +0.149 HD
BRANCH  25  29
ATOM     29  C   UNL     1      -2.513  -4.717  -0.859  0.00  0.00    +0.109 C 
BRANCH  29  30
ATOM     30  C   UNL     1      -2.679  -4.167  -2.277  0.00  0.00    +0.054 C 
BRANCH  30  35
ATOM     31  C   UNL     1      -2.498   1.608  -2.132  0.00  0.00    +0.044 C 
ATOM     32  C   UNL     1      -2.545   0.102  -2.170  0.00  0.00    -0.050 A 
ATOM     33  C   UNL     1      -3.763  -0.553  -2.140  0.00  0.00    +0.003 A 
ATOM     34  C   UNL     1      -3.806  -1.934  -2.175  0.00  0.00    +0.004 A 
ATOM     35  C   UNL     1      -2.632  -2.661  -2.240  0.00  0.00    -0.043 A 
ATOM     36  C   UNL     1      -1.415  -2.006  -2.271  0.00  0.00    -0.047 A 
ATOM     37  C   UNL     1      -1.371  -0.625  -2.241  0.00  0.00    +0.007 A 
ATOM     38  C   UNL     1      -0.135  -2.799  -2.342  0.00  0.00    +0.044 C 
ENDBRANCH  30  35
ENDBRANCH  29  30
ENDBRANCH  25  29
ENDBRANCH   1  26
TORSDOF 6
