REMARK  Name = ZINC00112760
REMARK  2 active torsions:
REMARK  status: ('A' for Active; 'I' for Inactive)
REMARK    1  A    between atoms: C_17  and  C_19
REMARK    2  A    between atoms: C_22  and  N_25
REMARK                            x       y       z     vdW  Elec       q    Type
REMARK                         _______ _______ _______ _____ _____    ______ ____
ROOT
ATOM      1  C   UNL     1      -1.597   3.138  -3.522  0.00  0.00    +0.020 A 
ATOM      2  C   UNL     1      -0.837   2.643  -2.440  0.00  0.00    +0.022 A 
ATOM      3  C   UNL     1      -1.651   2.578  -1.372  0.00  0.00    +0.014 A 
ATOM      4  N   UNL     1      -2.886   3.022  -1.759  0.00  0.00    -0.318 N 
ATOM      5  C   UNL     1      -2.853   3.359  -3.069  0.00  0.00    +0.091 A 
ATOM      6  C   UNL     1      -3.941   3.077  -0.830  0.00  0.00    +0.093 A 
ATOM      7  C   UNL     1      -3.651   3.596   0.429  0.00  0.00    -0.037 A 
ATOM      8  C   UNL     1      -4.621   3.586   1.411  0.00  0.00    +0.007 A 
ATOM      9  C   UNL     1      -5.886   3.104   1.127  0.00  0.00    +0.050 A 
ATOM     10  C   UNL     1      -6.191   2.630  -0.139  0.00  0.00    +0.168 A 
ATOM     11  C   UNL     1      -5.211   2.621  -1.130  0.00  0.00    +0.190 A 
ATOM     12  O   UNL     1      -5.752   2.101  -2.271  0.00  0.00    -0.451 OA
ATOM     13  C   UNL     1      -7.178   2.182  -2.093  0.00  0.00    +0.466 C 
ATOM     14  O   UNL     1      -7.347   2.130  -0.664  0.00  0.00    -0.453 OA
ATOM     15  C   UNL     1      -2.314   4.232   0.660  0.00  0.00    -0.043 C 
ATOM     16  N   UNL     1      -1.240   3.263   0.939  0.00  0.00    +0.390 N 
ATOM     17  C   UNL     1      -1.332   2.114   0.020  0.00  0.00    +0.008 C 
ATOM     18  H   UNL     1      -0.262   3.750   0.805  0.00  0.00    -0.084 HD
ATOM     19  H   UNL     1      -1.331   2.901   1.974  0.00  0.00    -0.084 HD
ENDROOT
BRANCH  17  20
ATOM     20  C   UNL     1      -0.017   1.378   0.010  0.00  0.00    -0.056 A 
ATOM     21  C   UNL     1       1.171   2.086   0.002  0.00  0.00    +0.004 A 
ATOM     22  C   UNL     1       2.377   1.411  -0.014  0.00  0.00    +0.033 A 
ATOM     23  C   UNL     1       2.396   0.029  -0.022  0.00  0.00    +0.126 A 
ATOM     24  C   UNL     1       1.208  -0.679  -0.014  0.00  0.00    +0.033 A 
ATOM     25  C   UNL     1       0.002  -0.004   0.002  0.00  0.00    +0.004 A 
BRANCH  23  26
ATOM     26  N   UNL     1       3.688  -0.694  -0.038  0.00  0.00    +0.056 N 
ATOM     27  O   UNL     1       3.704  -1.912  -0.045  0.00  0.00    -0.126 OA
ATOM     28  O   UNL     1       4.734  -0.071  -0.045  0.00  0.00    -0.126 OA
ENDBRANCH  23  26
ENDBRANCH  17  20
TORSDOF 2
