REMARK  Name = ZINC41092257
REMARK  2 active torsions:
REMARK  status: ('A' for Active; 'I' for Inactive)
REMARK    1  A    between atoms: C_6  and  N_7
REMARK    2  A    between atoms: N_7  and  C_8
REMARK                            x       y       z     vdW  Elec       q    Type
REMARK                         _______ _______ _______ _____ _____    ______ ____
ROOT
ATOM      1  C   UNL     1      -0.017   1.384   0.010  0.00  0.00    +0.026 A 
ATOM      2  C   UNL     1       1.169   2.096   0.002  0.00  0.00    +0.049 A 
ATOM      3  C   UNL     1       2.378   1.424  -0.013  0.00  0.00    +0.142 A 
ATOM      4  C   UNL     1       2.401   0.029  -0.021  0.00  0.00    +0.077 A 
ATOM      5  C   UNL     1       1.214  -0.683  -0.013  0.00  0.00    +0.050 A 
ATOM      6  C   UNL     1       0.002  -0.004   0.002  0.00  0.00    +0.029 A 
ATOM      7  N   UNL     1       3.635  -0.636  -0.038  0.00  0.00    -0.280 N 
ATOM      8  C   UNL     1       4.755   0.053   0.270  0.00  0.00    +0.255 C 
ATOM      9  O   UNL     1       5.836  -0.495   0.232  0.00  0.00    -0.272 OA
ATOM     10  C   UNL     1       4.656   1.505   0.660  0.00  0.00    +0.325 C 
ATOM     11  O   UNL     1       3.553   2.111  -0.019  0.00  0.00    -0.481 OA
ATOM     12  H   UNL     1       3.683  -1.578  -0.267  0.00  0.00    +0.155 HD
ENDROOT
BRANCH   6  13
ATOM     13  N   UNL     1      -1.200  -0.720   0.010  0.00  0.00    -0.341 N 
ATOM     14  H   UNL     1      -1.188  -1.690   0.005  0.00  0.00    +0.146 HD
BRANCH  13  15
ATOM     15  C   UNL     1      -2.479  -0.004   0.026  0.00  0.00    +0.074 C 
ATOM     16  C   UNL     1      -2.910   0.295   1.480  0.00  0.00    +0.026 C 
ATOM     17  C   UNL     1      -4.266  -0.456   1.651  0.00  0.00    -0.009 C 
ATOM     18  C   UNL     1      -5.275   0.359   0.785  0.00  0.00    +0.004 C 
ATOM     19  C   UNL     1      -4.854   0.077  -0.675  0.00  0.00    +0.005 C 
ATOM     20  C   UNL     1      -3.614  -0.906  -0.547  0.00  0.00    +0.009 C 
ATOM     21  C   UNL     1      -4.020  -1.711   0.741  0.00  0.00    +0.009 C 
ENDBRANCH  13  15
ENDBRANCH   6  13
TORSDOF 2
