REMARK  Name = ZINC40329323
REMARK  9 active torsions:
REMARK  status: ('A' for Active; 'I' for Inactive)
REMARK    1  A    between atoms: C_1  and  C_2
REMARK    2  A    between atoms: C_3  and  C_9
REMARK    3  A    between atoms: C_5  and  N_8
REMARK    4  A    between atoms: N_11  and  C_12
REMARK    5  A    between atoms: N_11  and  C_16
REMARK    6  A    between atoms: C_12  and  C_13
REMARK    7  A    between atoms: C_13  and  C_14
REMARK    8  A    between atoms: C_13  and  C_15
REMARK    9  A    between atoms: C_16  and  C_17
REMARK                            x       y       z     vdW  Elec       q    Type
REMARK                         _______ _______ _______ _____ _____    ______ ____
ROOT
ATOM      1  C   UNL     1      -0.147  -0.107  -2.578  0.00  0.00    +0.249 C 
ATOM      2  O   UNL     1      -0.067   1.102  -2.663  0.00  0.00    -0.270 OA
ATOM      3  N   UNL     1      -0.294  -0.853  -3.691  0.00  0.00    -0.288 N 
ENDROOT
BRANCH   1   6
ATOM      4  C   UNL     1      -1.947   0.726  -0.474  0.00  0.00    +0.066 C 
ATOM      5  C   UNL     1      -0.944  -0.371  -0.228  0.00  0.00    +0.050 A 
ATOM      6  C   UNL     1      -0.082  -0.762  -1.254  0.00  0.00    +0.060 A 
ATOM      7  C   UNL     1       0.844  -1.781  -1.010  0.00  0.00    +0.039 A 
ATOM      8  C   UNL     1       0.863  -2.364   0.253  0.00  0.00    +0.044 A 
ATOM      9  C   UNL     1      -0.030  -1.916   1.219  0.00  0.00    +0.133 A 
ATOM     10  N   UNL     1      -0.886  -0.948   0.955  0.00  0.00    -0.258 NA
BRANCH   8  11
ATOM     11  N   UNL     1       1.769  -3.386   0.547  0.00  0.00    -0.357 N 
ATOM     12  H   UNL     1       2.389  -3.695  -0.132  0.00  0.00    +0.142 HD
ATOM     13  H   UNL     1       1.777  -3.788   1.430  0.00  0.00    +0.142 HD
ENDBRANCH   8  11
ENDBRANCH   1   6
BRANCH   3  14
ATOM     14  C   UNL     1      -0.518  -2.297  -3.582  0.00  0.00    +0.111 C 
BRANCH  14  15
ATOM     15  C   UNL     1      -2.006  -2.566  -3.349  0.00  0.00    +0.000 C 
ATOM     16  C   UNL     1      -2.803  -2.125  -4.579  0.00  0.00    +0.009 C 
ATOM     17  C   UNL     1      -2.222  -4.062  -3.111  0.00  0.00    +0.009 C 
ENDBRANCH  14  15
ENDBRANCH   3  14
BRANCH   3  18
ATOM     18  C   UNL     1      -0.231  -0.219  -5.011  0.00  0.00    +0.203 C 
BRANCH  18  19
ATOM     19  C   UNL     1       1.194  -0.223  -5.502  0.00  0.00    +0.228 C 
ATOM     20  O   UNL     1       2.070  -0.706  -4.816  0.00  0.00    -0.274 OA
ATOM     21  N   UNL     1       1.495   0.312  -6.702  0.00  0.00    -0.328 N 
ATOM     22  H   UNL     1       0.794   0.699  -7.249  0.00  0.00    +0.145 HD
ATOM     23  H   UNL     1       2.412   0.310  -7.017  0.00  0.00    +0.145 HD
ENDBRANCH  18  19
ENDBRANCH   3  18
TORSDOF 6
