REMARK  Name = ZINC39335357
REMARK  10 active torsions:
REMARK  status: ('A' for Active; 'I' for Inactive)
REMARK    1  A    between atoms: C_1  and  C_2
REMARK    2  A    between atoms: C_4  and  N_11
REMARK    3  A    between atoms: C_5  and  O_9
REMARK    4  A    between atoms: O_9  and  C_10
REMARK    5  A    between atoms: C_12  and  C_14
REMARK    6  A    between atoms: C_14  and  S_15
REMARK    7  A    between atoms: S_15  and  C_16
REMARK    8  A    between atoms: C_17  and  C_30
REMARK    9  A    between atoms: C_24  and  C_28
REMARK   10  A    between atoms: C_25  and  N_27
REMARK                            x       y       z     vdW  Elec       q    Type
REMARK                         _______ _______ _______ _____ _____    ______ ____
ROOT
ATOM      1  C   UNL     1      -0.461  -2.687  -7.690  0.00  0.00    +0.081 C 
ATOM      2  C   UNL     1      -0.577  -2.114  -8.917  0.00  0.00    +0.068 C 
ATOM      3  C   UNL     1      -0.670  -2.942 -10.168  0.00  0.00    +0.045 C 
ATOM      4  C   UNL     1      -1.756  -2.361 -11.079  0.00  0.00    +0.018 C 
ATOM      5  C   UNL     1      -1.852  -3.201 -12.355  0.00  0.00    +0.001 C 
ATOM      6  C   UNL     1      -0.509  -3.171 -13.088  0.00  0.00    +0.000 C 
ATOM      7  C   UNL     1       0.581  -3.741 -12.178  0.00  0.00    +0.001 C 
ATOM      8  C   UNL     1       0.674  -2.902 -10.903  0.00  0.00    +0.018 C 
ATOM      9  C   UNL     1      -1.012  -4.368  -9.836  0.00  0.00    +0.076 C 
ATOM     10  C   UNL     1      -0.880  -4.858  -8.578  0.00  0.00    +0.100 C 
ATOM     11  N   UNL     1      -0.428  -4.056  -7.554  0.00  0.00    -0.296 N 
ATOM     12  H   UNL     1      -0.091  -4.455  -6.736  0.00  0.00    +0.154 HD
ENDROOT
BRANCH  10  13
ATOM     13  N   UNL     1      -1.196  -6.171  -8.324  0.00  0.00    -0.346 N 
ATOM     14  H   UNL     1      -1.512  -6.742  -9.042  0.00  0.00    +0.143 HD
ATOM     15  H   UNL     1      -1.105  -6.527  -7.426  0.00  0.00    +0.143 HD
ENDBRANCH  10  13
BRANCH   9  16
ATOM     16  C   UNL     1      -1.489  -5.231 -10.875  0.00  0.00    +0.099 C 
ATOM     17  N   UNL     1      -1.868  -5.916 -11.699  0.00  0.00    -0.191 NA
ENDBRANCH   9  16
BRANCH   2  18
ATOM     18  C   UNL     1      -0.612  -0.686  -9.020  0.00  0.00    +0.098 C 
ATOM     19  N   UNL     1      -0.640   0.447  -9.102  0.00  0.00    -0.191 NA
ENDBRANCH   2  18
BRANCH   1  20
ATOM     20  S   UNL     1      -0.343  -1.666  -6.259  0.00  0.00    -0.100 S 
BRANCH  20  21
ATOM     21  C   UNL     1      -0.199  -2.845  -4.889  0.00  0.00    +0.171 C 
BRANCH  21  23
ATOM     22  N   UNL     1       0.028  -2.768  -2.427  0.00  0.00    -0.282 N 
ATOM     23  C   UNL     1      -0.089  -2.093  -3.588  0.00  0.00    +0.228 C 
ATOM     24  O   UNL     1      -0.106  -0.880  -3.585  0.00  0.00    -0.275 OA
ATOM     25  H   UNL     1       0.123  -3.733  -2.434  0.00  0.00    +0.155 HD
BRANCH  22  29
ATOM     26  C   UNL     1      -1.301   1.185   0.178  0.00  0.00    +0.045 C 
ATOM     27  C   UNL     1      -0.624  -0.157   0.083  0.00  0.00    -0.030 A 
ATOM     28  C   UNL     1      -0.610  -0.839  -1.119  0.00  0.00    +0.031 A 
ATOM     29  C   UNL     1       0.014  -2.075  -1.209  0.00  0.00    +0.076 A 
ATOM     30  C   UNL     1       0.626  -2.626  -0.085  0.00  0.00    +0.143 A 
ATOM     31  C   UNL     1       0.608  -1.937   1.117  0.00  0.00    +0.067 A 
ATOM     32  C   UNL     1      -0.012  -0.702   1.198  0.00  0.00    +0.047 A 
ATOM     33 CL   UNL     1      -0.026   0.163   2.703  0.00  0.00    -0.083 Cl
BRANCH  30  34
ATOM     34  O   UNL     1       1.238  -3.837  -0.167  0.00  0.00    -0.493 OA
ATOM     35  C   UNL     1       1.844  -4.339   1.026  0.00  0.00    +0.277 C 
ENDBRANCH  30  34
ENDBRANCH  22  29
ENDBRANCH  21  23
ENDBRANCH  20  21
ENDBRANCH   1  20
TORSDOF 8
