REMARK  Name = ZINC39454748
REMARK  5 active torsions:
REMARK  status: ('A' for Active; 'I' for Inactive)
REMARK    1  A    between atoms: C_1  and  C_2
REMARK    2  A    between atoms: C_10  and  C_15
REMARK    3  A    between atoms: C_12  and  C_14
REMARK    4  A    between atoms: N_17  and  C_18
REMARK    5  A    between atoms: C_18  and  C_19
REMARK                            x       y       z     vdW  Elec       q    Type
REMARK                         _______ _______ _______ _____ _____    ______ ____
ROOT
ATOM      1  C   UNL     1      -0.250  -5.576  -2.167  0.00  0.00    +0.254 C 
ATOM      2  O   UNL     1      -1.107  -6.141  -1.521  0.00  0.00    -0.272 OA
ATOM      3  N   UNL     1       0.069  -6.021  -3.398  0.00  0.00    -0.310 N 
ATOM      4  H   UNL     1       0.754  -5.569  -3.915  0.00  0.00    +0.149 HD
ENDROOT
BRANCH   1  14
ATOM      5  C   UNL     1      -0.018   1.503   0.010  0.00  0.00    +0.044 C 
ATOM      6  C   UNL     1       0.002  -0.004   0.002  0.00  0.00    -0.049 A 
ATOM      7  C   UNL     1       0.006  -0.692  -1.199  0.00  0.00    +0.011 A 
ATOM      8  C   UNL     1       0.023  -2.069  -1.204  0.00  0.00    +0.003 A 
ATOM      9  C   UNL     1       0.030  -2.784  -0.013  0.00  0.00    +0.143 A 
ATOM     10  C   UNL     1       0.032  -2.085   1.192  0.00  0.00    +0.083 A 
ATOM     11  C   UNL     1       0.023  -0.704   1.194  0.00  0.00    +0.027 A 
ATOM     12 CL   UNL     1       0.051  -2.952   2.696  0.00  0.00    -0.080 Cl
ATOM     13  O   UNL     1       0.024  -4.126  -0.244  0.00  0.00    -0.477 OA
ATOM     14  C   UNL     1       0.458  -4.376  -1.592  0.00  0.00    +0.266 C 
ATOM     15  C   UNL     1       0.041  -3.083  -2.331  0.00  0.00    +0.069 C 
ATOM     16  C   UNL     1      -1.348  -3.232  -2.955  0.00  0.00    +0.017 C 
ENDBRANCH   1  14
BRANCH   3  17
ATOM     17  C   UNL     1      -0.619  -7.187  -3.957  0.00  0.00    +0.137 C 
BRANCH  17  18
ATOM     18  C   UNL     1      -0.073  -7.480  -5.356  0.00  0.00    +0.173 C 
ATOM     19  C   UNL     1      -0.630  -8.784  -5.887  0.00  0.00    -0.019 C 
ATOM     20  C   UNL     1       0.437  -9.561  -6.066  0.00  0.00    +0.065 C 
ATOM     21  C   UNL     1       0.005 -10.914  -6.603  0.00  0.00    +0.057 C 
ATOM     22  C   UNL     1      -1.511 -10.994  -6.320  0.00  0.00    +0.011 C 
ATOM     23  C   UNL     1      -1.900  -9.499  -6.272  0.00  0.00    +0.035 C 
ATOM     24  N   UNL     1       1.564  -8.889  -5.707  0.00  0.00    -0.158 NA
ATOM     25  N   UNL     1       1.377  -7.735  -5.307  0.00  0.00    -0.178 NA
ENDBRANCH  17  18
ENDBRANCH   3  17
TORSDOF 3
