REMARK  Name = ZINC50322400
REMARK  7 active torsions:
REMARK  status: ('A' for Active; 'I' for Inactive)
REMARK    1  A    between atoms: C_1  and  C_2
REMARK    2  A    between atoms: C_2  and  C_3
REMARK    3  A    between atoms: C_3  and  C_4
REMARK    4  A    between atoms: C_5  and  N_21
REMARK    5  A    between atoms: C_6  and  C_10
REMARK    6  A    between atoms: N_12  and  C_13
REMARK    7  A    between atoms: N_12  and  C_14
REMARK                            x       y       z     vdW  Elec       q    Type
REMARK                         _______ _______ _______ _____ _____    ______ ____
ROOT
ATOM      1  C   UNL     1       0.329  -2.147  -0.364  0.00  0.00    +0.057 A 
ATOM      2  C   UNL     1      -0.563  -2.933  -1.024  0.00  0.00    +0.078 A 
ATOM      3  C   UNL     1       0.022  -4.226  -1.052  0.00  0.00    +0.168 A 
ATOM      4  N   UNL     1       1.184  -4.138  -0.433  0.00  0.00    -0.167 NA
ATOM      5  N   UNL     1       1.384  -2.935  -0.029  0.00  0.00    -0.279 N 
ATOM      6  H   UNL     1       2.172  -2.634   0.448  0.00  0.00    +0.189 HD
ENDROOT
BRANCH   3   7
ATOM      7  C   UNL     1      -0.559  -5.438  -1.659  0.00  0.00    +0.269 C 
ATOM      8  O   UNL     1      -1.683  -5.407  -2.123  0.00  0.00    -0.268 OA
ATOM      9  N   UNL     1       0.156  -6.579  -1.701  0.00  0.00    -0.296 N 
ATOM     10  C   UNL     1       1.487  -6.633  -1.090  0.00  0.00    +0.132 C 
BRANCH   9  11
ATOM     11  C   UNL     1      -0.397  -7.767  -2.357  0.00  0.00    +0.076 C 
ATOM     12  C   UNL     1       0.515  -8.199  -3.473  0.00  0.00    +0.022 C 
ATOM     13  C   UNL     1      -0.256  -8.800  -4.664  0.00  0.00    +0.002 C 
ATOM     14  C   UNL     1      -1.401  -9.733  -4.226  0.00  0.00    +0.000 C 
ATOM     15  C   UNL     1      -1.008 -10.627  -3.080  0.00  0.00    +0.000 C 
ATOM     16  C   UNL     1      -1.439  -9.951  -1.762  0.00  0.00    +0.002 C 
ATOM     17  C   UNL     1      -0.504  -8.919  -1.337  0.00  0.00    +0.022 C 
ENDBRANCH   9  11
ENDBRANCH   3   7
BRANCH   2  18
ATOM     18  N   UNL     1      -1.800  -2.549  -1.561  0.00  0.00    -0.355 N 
ATOM     19  H   UNL     1      -2.099  -1.630  -1.481  0.00  0.00    +0.142 HD
ATOM     20  H   UNL     1      -2.356  -3.202  -2.014  0.00  0.00    +0.142 HD
ENDBRANCH   2  18
BRANCH   1  21
ATOM     21  C   UNL     1       0.179  -0.677  -0.068  0.00  0.00    +0.056 C 
BRANCH  21  23
ATOM     22  C   UNL     1      -0.771   0.995   1.527  0.00  0.00    +0.004 C 
ATOM     23  C   UNL     1      -0.619  -0.497   1.226  0.00  0.00    +0.003 C 
ENDBRANCH  21  23
ENDBRANCH   1  21
TORSDOF 5
