REMARK  Name = ZINC42844377
REMARK  8 active torsions:
REMARK  status: ('A' for Active; 'I' for Inactive)
REMARK    1  A    between atoms: C_1  and  C_2
REMARK    2  A    between atoms: C_2  and  C_3
REMARK    3  A    between atoms: C_3  and  C_5
REMARK    4  A    between atoms: C_3  and  N_6
REMARK    5  A    between atoms: N_9  and  N_10
REMARK    6  A    between atoms: C_11  and  C_13
REMARK    7  A    between atoms: C_17  and  S_19
REMARK    8  A    between atoms: S_19  and  N_22
REMARK                            x       y       z     vdW  Elec       q    Type
REMARK                         _______ _______ _______ _____ _____    ______ ____
ROOT
ATOM      1  N   UNL     1       4.737   0.666  -1.075  0.00  0.00    -0.229 N 
ATOM      2  C   UNL     1       6.031   1.040  -1.032  0.00  0.00    +0.260 C 
ATOM      3  O   UNL     1       6.661   1.168  -2.063  0.00  0.00    -0.269 OA
ATOM      4  H   UNL     1       4.234   0.563  -0.252  0.00  0.00    +0.173 HD
ENDROOT
BRANCH   1   8
ATOM      5  N   UNL     1       2.125  -0.091  -1.209  0.00  0.00    -0.296 N 
ATOM      6  C   UNL     1       2.824   0.051  -2.353  0.00  0.00    +0.316 C 
ATOM      7  O   UNL     1       2.287  -0.157  -3.424  0.00  0.00    -0.251 OA
ATOM      8  N   UNL     1       4.118   0.425  -2.309  0.00  0.00    -0.218 N 
ATOM      9  H   UNL     1       2.553   0.075  -0.355  0.00  0.00    +0.151 HD
ATOM     10  H   UNL     1       4.621   0.528  -3.132  0.00  0.00    +0.174 HD
BRANCH   5  11
ATOM     11  C   UNL     1       0.718  -0.497  -1.257  0.00  0.00    +0.071 C 
ATOM     12  C   UNL     1       0.630  -2.023  -1.329  0.00  0.00    +0.028 C 
BRANCH  11  14
ATOM     13  C   UNL     1      -0.019   1.526   0.010  0.00  0.00    +0.005 C 
ATOM     14  C   UNL     1       0.002  -0.004   0.002  0.00  0.00    +0.019 C 
ENDBRANCH  11  14
ENDBRANCH   5  11
ENDBRANCH   1   8
BRANCH   2  15
ATOM     15  C   UNL     1       6.684   1.294   0.271  0.00  0.00    +0.040 A 
ATOM     16  C   UNL     1       5.964   1.141   1.457  0.00  0.00    +0.013 A 
ATOM     17  C   UNL     1       6.579   1.379   2.668  0.00  0.00    +0.003 A 
ATOM     18  C   UNL     1       7.906   1.768   2.709  0.00  0.00    +0.028 A 
ATOM     19  C   UNL     1       8.625   1.921   1.538  0.00  0.00    +0.106 A 
ATOM     20  C   UNL     1       8.023   1.681   0.319  0.00  0.00    +0.041 A 
BRANCH  19  21
ATOM     21  S   UNL     1      10.314   2.419   1.601  0.00  0.00    +0.061 S 
ATOM     22  O   UNL     1      10.608   3.018   0.347  0.00  0.00    -0.153 OA
ATOM     23  O   UNL     1      10.489   3.104   2.833  0.00  0.00    -0.153 OA
BRANCH  21  24
ATOM     24  N   UNL     1      11.227   1.040   1.692  0.00  0.00    -0.177 NA
ATOM     25  C   UNL     1      11.637   0.365   2.932  0.00  0.00    +0.109 C 
ATOM     26  C   UNL     1      12.492  -0.855   2.528  0.00  0.00    +0.018 C 
ATOM     27  C   UNL     1      12.987  -0.477   1.107  0.00  0.00    +0.018 C 
ATOM     28  C   UNL     1      11.758   0.284   0.544  0.00  0.00    +0.109 C 
ENDBRANCH  21  24
ENDBRANCH  19  21
ENDBRANCH   2  15
TORSDOF 6
