REMARK  Name = ZINC56608836
REMARK  7 active torsions:
REMARK  status: ('A' for Active; 'I' for Inactive)
REMARK    1  A    between atoms: C_4  and  N_23
REMARK    2  A    between atoms: C_5  and  C_7
REMARK    3  A    between atoms: C_7  and  N_8
REMARK    4  A    between atoms: N_11  and  C_12
REMARK    5  A    between atoms: C_15  and  O_18
REMARK    6  A    between atoms: O_18  and  C_19
REMARK    7  A    between atoms: C_19  and  C_20
REMARK                            x       y       z     vdW  Elec       q    Type
REMARK                         _______ _______ _______ _____ _____    ______ ____
ROOT
ATOM      1  N   UNL     1       1.491  -2.679   1.332  0.00  0.00    -0.295 N 
ATOM      2  C   UNL     1       1.546  -4.005   1.568  0.00  0.00    +0.304 C 
ATOM      3  O   UNL     1       1.378  -4.792   0.656  0.00  0.00    -0.252 OA
ATOM      4  N   UNL     1       1.786  -4.459   2.814  0.00  0.00    -0.269 N 
ATOM      5  H   UNL     1       1.625  -2.052   2.060  0.00  0.00    +0.151 HD
ATOM      6  H   UNL     1       1.986  -3.833   3.528  0.00  0.00    +0.156 HD
ENDROOT
BRANCH   4   7
ATOM      7  C   UNL     1       1.747  -5.835   3.079  0.00  0.00    +0.035 A 
ATOM      8  C   UNL     1       1.267  -6.294   4.298  0.00  0.00    +0.027 A 
ATOM      9  C   UNL     1       1.229  -7.650   4.558  0.00  0.00    +0.047 A 
ATOM     10  C   UNL     1       1.669  -8.552   3.602  0.00  0.00    +0.121 A 
ATOM     11  C   UNL     1       2.149  -8.094   2.383  0.00  0.00    +0.047 A 
ATOM     12  C   UNL     1       2.183  -6.739   2.120  0.00  0.00    +0.027 A 
BRANCH  10  13
ATOM     13  O   UNL     1       1.631  -9.887   3.858  0.00  0.00    -0.483 OA
BRANCH  13  14
ATOM     14  C   UNL     1       2.100 -10.760   2.828  0.00  0.00    +0.324 C 
BRANCH  14  15
ATOM     15  C   UNL     1       1.982 -12.190   3.289  0.00  0.00    +0.248 C 
ATOM     16  O   UNL     1       1.540 -12.437   4.391  0.00  0.00    -0.272 OA
ATOM     17  N   UNL     1       2.369 -13.193   2.476  0.00  0.00    -0.327 N 
ATOM     18  H   UNL     1       2.722 -12.995   1.595  0.00  0.00    +0.145 HD
ATOM     19  H   UNL     1       2.293 -14.114   2.773  0.00  0.00    +0.145 HD
ENDBRANCH  14  15
ENDBRANCH  13  14
ENDBRANCH  10  13
ENDBRANCH   4   7
BRANCH   1  20
ATOM     20  C   UNL     1       1.230  -2.186  -0.022  0.00  0.00    +0.143 C 
BRANCH  20  25
ATOM     21  C   UNL     1       0.010   1.387   0.010  0.00  0.00    +0.000 A 
ATOM     22  C   UNL     1       1.201   2.090  -0.003  0.00  0.00    +0.002 A 
ATOM     23  C   UNL     1       2.404   1.413  -0.022  0.00  0.00    +0.023 A 
ATOM     24  C   UNL     1       2.418   0.024  -0.028  0.00  0.00    +0.034 A 
ATOM     25  C   UNL     1       1.220  -0.679  -0.015  0.00  0.00    -0.009 A 
ATOM     26  C   UNL     1       0.020   0.004   0.004  0.00  0.00    +0.007 A 
BRANCH  24  27
ATOM     27  N   UNL     1       3.633  -0.664  -0.048  0.00  0.00    -0.330 N 
ATOM     28  C   UNL     1       4.366  -1.076  -1.254  0.00  0.00    +0.105 C 
ATOM     29  C   UNL     1       5.632  -1.824  -0.788  0.00  0.00    +0.020 C 
ATOM     30  C   UNL     1       5.256  -2.287   0.644  0.00  0.00    +0.020 C 
ATOM     31  C   UNL     1       4.397  -1.093   1.138  0.00  0.00    +0.105 C 
ENDBRANCH  24  27
ENDBRANCH  20  25
ENDBRANCH   1  20
TORSDOF 7
