REMARK  Name = ZINC21318918
REMARK  11 active torsions:
REMARK  status: ('A' for Active; 'I' for Inactive)
REMARK    1  A    between atoms: C_1  and  O_2
REMARK    2  A    between atoms: O_2  and  C_3
REMARK    3  A    between atoms: C_6  and  C_9
REMARK    4  A    between atoms: C_9  and  S_10
REMARK    5  A    between atoms: S_10  and  C_11
REMARK    6  A    between atoms: N_15  and  N_16
REMARK    7  A    between atoms: N_17  and  N_18
REMARK    8  A    between atoms: C_19  and  C_20
REMARK    9  A    between atoms: C_24  and  O_27
REMARK   10  A    between atoms: C_25  and  O_26
REMARK   11  A    between atoms: O_27  and  C_28
REMARK                            x       y       z     vdW  Elec       q    Type
REMARK                         _______ _______ _______ _____ _____    ______ ____
ROOT
ATOM      1  C   UNL     1      -0.809   3.844   1.366  0.00  0.00    +0.210 A 
ATOM      2  N   UNL     1      -0.263   4.523   0.386  0.00  0.00    -0.119 NA
ATOM      3  N   UNL     1      -0.431   5.887   0.658  0.00  0.00    -0.109 NA
ATOM      4  C   UNL     1      -1.074   5.997   1.795  0.00  0.00    +0.254 A 
ATOM      5  N   UNL     1      -1.329   4.736   2.260  0.00  0.00    -0.211 N 
ATOM      6  N   UNL     1      -1.437   7.183   2.415  0.00  0.00    -0.204 N 
ATOM      7  H   UNL     1      -1.977   7.160   3.373  0.00  0.00    +0.177 HD
ENDROOT
BRANCH   5   8
ATOM      8  N   UNL     1      -1.986   4.425   3.416  0.00  0.00    -0.294 N 
ATOM      9  H   UNL     1      -2.366   5.226   4.066  0.00  0.00    +0.163 HD
ATOM     10  H   UNL     1      -2.135   3.372   3.697  0.00  0.00    +0.163 HD
ENDBRANCH   5   8
BRANCH   6  11
ATOM     11  N   UNL     1      -1.115   8.411   1.821  0.00  0.00    -0.187 NA
ATOM     12  C   UNL     1      -1.455   9.522   2.402  0.00  0.00    +0.142 C 
BRANCH  12  13
ATOM     13  C   UNL     1      -1.117  10.813   1.777  0.00  0.00    +0.040 A 
ATOM     14  C   UNL     1      -1.481  12.011   2.399  0.00  0.00    +0.013 A 
ATOM     15  C   UNL     1      -1.163  13.217   1.812  0.00  0.00    +0.004 A 
ATOM     16  C   UNL     1      -0.483  13.249   0.606  0.00  0.00    +0.049 A 
ATOM     17  C   UNL     1      -0.116  12.069  -0.022  0.00  0.00    +0.162 A 
ATOM     18  C   UNL     1      -0.425  10.846   0.561  0.00  0.00    +0.167 A 
BRANCH  18  19
ATOM     19  O   UNL     1      -0.061   9.687  -0.050  0.00  0.00    -0.503 OA
ATOM     20  H   UNL     1       0.482   9.716  -1.006  0.00  0.00    +0.292 HD
ENDBRANCH  18  19
BRANCH  17  21
ATOM     21  O   UNL     1       0.552  12.108  -1.206  0.00  0.00    -0.491 OA
ATOM     22  C   UNL     1       0.843  13.400  -1.745  0.00  0.00    +0.277 C 
ENDBRANCH  17  21
ENDBRANCH  12  13
ENDBRANCH   6  11
BRANCH   1  23
ATOM     23  S   UNL     1      -0.867   2.088   1.503  0.00  0.00    -0.080 S 
BRANCH  23  24
ATOM     24  C   UNL     1      -0.018   1.503   0.010  0.00  0.00    +0.112 C 
BRANCH  24  28
ATOM     25  C   UNL     1       0.040  -2.770  -0.013  0.00  0.00    +0.120 A 
ATOM     26  C   UNL     1      -1.015  -2.086  -0.600  0.00  0.00    +0.046 A 
ATOM     27  C   UNL     1      -1.032  -0.705  -0.591  0.00  0.00    +0.008 A 
ATOM     28  C   UNL     1       0.002  -0.004   0.002  0.00  0.00    -0.037 A 
ATOM     29  C   UNL     1       1.057  -0.683   0.582  0.00  0.00    +0.008 A 
ATOM     30  C   UNL     1       1.076  -2.064   0.581  0.00  0.00    +0.046 A 
BRANCH  25  32
ATOM     31  C   UNL     1       1.175  -4.766   0.602  0.00  0.00    +0.277 C 
ATOM     32  O   UNL     1       0.058  -4.129  -0.020  0.00  0.00    -0.495 OA
ENDBRANCH  25  32
ENDBRANCH  24  28
ENDBRANCH  23  24
ENDBRANCH   1  23
TORSDOF 9
