REMARK  Name = ZINC39731088
REMARK  7 active torsions:
REMARK  status: ('A' for Active; 'I' for Inactive)
REMARK    1  A    between atoms: C_1  and  N_2
REMARK    2  A    between atoms: N_2  and  C_3
REMARK    3  A    between atoms: N_2  and  C_4
REMARK    4  A    between atoms: C_7  and  C_10
REMARK    5  A    between atoms: C_16  and  S_20
REMARK    6  A    between atoms: S_20  and  C_21
REMARK    7  A    between atoms: C_21  and  C_22
REMARK                            x       y       z     vdW  Elec       q    Type
REMARK                         _______ _______ _______ _____ _____    ______ ____
ROOT
ATOM      1  C   UNL     1      -4.870  -2.906   0.033  0.00  0.00    +0.073 C 
ATOM      2  C   UNL     1      -5.694  -2.540  -1.197  0.00  0.00    +0.156 C 
ATOM      3  C   UNL     1      -7.090  -3.080  -1.048  0.00  0.00    +0.145 C 
ATOM      4  N   UNL     1      -7.686  -3.684  -2.055  0.00  0.00    -0.208 NA
ATOM      5  C   UNL     1      -7.054  -3.943  -3.199  0.00  0.00    +0.182 C 
ATOM      6  N   UNL     1      -5.769  -3.664  -3.380  0.00  0.00    -0.154 NA
ATOM      7  C   UNL     1      -5.067  -3.040  -2.460  0.00  0.00    +0.250 C 
ATOM      8  O   UNL     1      -3.880  -2.860  -2.651  0.00  0.00    -0.273 OA
ATOM      9  N   UNL     1      -7.699  -3.000   0.132  0.00  0.00    -0.236 NA
ATOM     10  C   UNL     1      -7.068  -2.636   1.231  0.00  0.00    +0.050 C 
ATOM     11  C   UNL     1      -5.671  -2.546   1.266  0.00  0.00    +0.025 C 
ATOM     12  C   UNL     1      -5.016  -2.142   2.378  0.00  0.00    +0.162 C 
ATOM     13  O   UNL     1      -3.675  -2.045   2.346  0.00  0.00    -0.292 OA
ATOM     14  C   UNL     1      -5.742  -1.797   3.648  0.00  0.00    +0.080 C 
ATOM     15  C   UNL     1      -7.155  -1.309   3.320  0.00  0.00    +0.014 C 
ATOM     16  C   UNL     1      -7.867  -2.378   2.486  0.00  0.00    +0.056 C 
ENDROOT
BRANCH   1  20
ATOM     17  C   UNL     1      -1.198  -0.719   0.010  0.00  0.00    +0.029 A 
ATOM     18  C   UNL     1      -1.181  -2.108   0.008  0.00  0.00    +0.023 A 
ATOM     19  C   UNL     1      -2.369  -2.812   0.016  0.00  0.00    +0.006 A 
ATOM     20  C   UNL     1      -3.575  -2.135   0.025  0.00  0.00    -0.039 A 
ATOM     21  C   UNL     1      -3.596  -0.752   0.027  0.00  0.00    +0.006 A 
ATOM     22  C   UNL     1      -2.411  -0.042   0.025  0.00  0.00    +0.023 A 
BRANCH  17  24
ATOM     23  C   UNL     1      -0.018   1.461   0.010  0.00  0.00    +0.129 C 
ATOM     24  N   UNL     1       0.002  -0.004   0.002  0.00  0.00    -0.336 N 
ATOM     25  C   UNL     1       1.281  -0.719  -0.014  0.00  0.00    +0.129 C 
ENDBRANCH  17  24
ENDBRANCH   1  20
BRANCH   5  26
ATOM     26  S   UNL     1      -7.957  -4.684  -4.519  0.00  0.00    -0.084 S 
BRANCH  26  27
ATOM     27  C   UNL     1      -6.733  -4.852  -5.847  0.00  0.00    +0.112 C 
BRANCH  27  28
ATOM     28  C   UNL     1      -7.383  -5.481  -7.052  0.00  0.00    -0.037 A 
ATOM     29  C   UNL     1      -7.393  -6.856  -7.194  0.00  0.00    +0.004 A 
ATOM     30  C   UNL     1      -7.989  -7.433  -8.300  0.00  0.00    +0.000 A 
ATOM     31  C   UNL     1      -8.577  -6.635  -9.263  0.00  0.00    +0.000 A 
ATOM     32  C   UNL     1      -8.568  -5.260  -9.121  0.00  0.00    +0.000 A 
ATOM     33  C   UNL     1      -7.975  -4.683  -8.014  0.00  0.00    +0.004 A 
ENDBRANCH  27  28
ENDBRANCH  26  27
ENDBRANCH   5  26
TORSDOF 5
