REMARK  Name = ZINC47877683
REMARK  10 active torsions:
REMARK  status: ('A' for Active; 'I' for Inactive)
REMARK    1  A    between atoms: C_1  and  C_2
REMARK    2  A    between atoms: C_2  and  C_3
REMARK    3  A    between atoms: C_2  and  C_4
REMARK    4  A    between atoms: C_4  and  C_6
REMARK    5  A    between atoms: C_4  and  N_13
REMARK    6  A    between atoms: N_16  and  C_17
REMARK    7  A    between atoms: C_22  and  O_23
REMARK    8  A    between atoms: O_23  and  C_24
REMARK    9  A    between atoms: C_24  and  C_25
REMARK   10  A    between atoms: C_25  and  C_26
REMARK                            x       y       z     vdW  Elec       q    Type
REMARK                         _______ _______ _______ _____ _____    ______ ____
ROOT
ATOM      1  N   UNL     1      -1.432  -1.998   0.007  0.00  0.00    -0.292 N 
ATOM      2  C   UNL     1      -1.299  -2.677   1.164  0.00  0.00    +0.304 C 
ATOM      3  O   UNL     1      -1.202  -2.074   2.216  0.00  0.00    -0.252 OA
ATOM      4  N   UNL     1      -1.273  -4.025   1.155  0.00  0.00    -0.266 N 
ATOM      5  H   UNL     1      -1.509  -2.479  -0.831  0.00  0.00    +0.151 HD
ATOM      6  H   UNL     1      -1.415  -4.507   0.326  0.00  0.00    +0.156 HD
ENDROOT
BRANCH   4   7
ATOM      7  C   UNL     1      -1.042  -4.729   2.345  0.00  0.00    +0.077 A 
ATOM      8  C   UNL     1      -1.525  -4.239   3.549  0.00  0.00    +0.027 A 
ATOM      9  C   UNL     1      -1.295  -4.935   4.721  0.00  0.00    +0.002 A 
ATOM     10  C   UNL     1      -0.584  -6.120   4.696  0.00  0.00    +0.004 A 
ATOM     11  C   UNL     1      -0.099  -6.615   3.500  0.00  0.00    +0.047 A 
ATOM     12  C   UNL     1      -0.330  -5.926   2.320  0.00  0.00    +0.142 A 
BRANCH  12  13
ATOM     13  O   UNL     1       0.141  -6.415   1.142  0.00  0.00    -0.490 OA
BRANCH  13  14
ATOM     14  C   UNL     1       0.862  -7.648   1.193  0.00  0.00    +0.238 C 
BRANCH  14  15
ATOM     15  C   UNL     1       1.310  -8.036  -0.218  0.00  0.00    +0.136 C 
BRANCH  15  16
ATOM     16  C   UNL     1       2.070  -9.336  -0.164  0.00  0.00    +0.214 C 
ATOM     17  O   UNL     1       2.237  -9.897   0.898  0.00  0.00    -0.276 OA
ATOM     18  N   UNL     1       2.564  -9.875  -1.296  0.00  0.00    -0.329 N 
ATOM     19  H   UNL     1       2.430  -9.426  -2.146  0.00  0.00    +0.145 HD
ATOM     20  H   UNL     1       3.053 -10.712  -1.262  0.00  0.00    +0.145 HD
ENDBRANCH  15  16
ENDBRANCH  14  15
ENDBRANCH  13  14
ENDBRANCH  12  13
ENDBRANCH   4   7
BRANCH   1  21
ATOM     21  C   UNL     1      -1.459  -0.534   0.017  0.00  0.00    +0.107 C 
BRANCH  21  22
ATOM     22  C   UNL     1      -2.199  -0.037  -1.199  0.00  0.00    -0.027 A 
ATOM     23  C   UNL     1      -2.022  -0.664  -2.418  0.00  0.00    +0.007 A 
ATOM     24  C   UNL     1      -2.700  -0.209  -3.534  0.00  0.00    +0.020 A 
ATOM     25  C   UNL     1      -3.555   0.874  -3.429  0.00  0.00    +0.041 A 
ATOM     26  C   UNL     1      -3.731   1.500  -2.209  0.00  0.00    +0.020 A 
ATOM     27  C   UNL     1      -3.057   1.041  -1.093  0.00  0.00    +0.007 A 
ATOM     28 CL   UNL     1      -4.406   1.446  -4.830  0.00  0.00    -0.084 Cl
ENDBRANCH  21  22
BRANCH  21  30
ATOM     29  C   UNL     1      -0.056   1.533   0.007  0.00  0.00    +0.009 C 
ATOM     30  C   UNL     1      -0.027   0.004  -0.003  0.00  0.00    +0.008 C 
ATOM     31  C   UNL     1       0.724  -0.500   1.232  0.00  0.00    +0.009 C 
ENDBRANCH  21  30
ENDBRANCH   1  21
TORSDOF 8
