REMARK  Name = ZINC16208971
REMARK  6 active torsions:
REMARK  status: ('A' for Active; 'I' for Inactive)
REMARK    1  A    between atoms: C_1  and  C_2
REMARK    2  A    between atoms: C_2  and  C_4
REMARK    3  A    between atoms: C_2  and  O_12
REMARK    4  A    between atoms: O_12  and  C_13
REMARK    5  A    between atoms: C_13  and  C_15
REMARK    6  A    between atoms: C_20  and  N_21
REMARK                            x       y       z     vdW  Elec       q    Type
REMARK                         _______ _______ _______ _____ _____    ______ ____
ROOT
ATOM      1  C   UNL     1      -1.526  -1.677  -0.749  0.00  0.00    +0.342 C 
ATOM      2  O   UNL     1      -0.561  -2.280  -1.174  0.00  0.00    -0.245 OA
ENDROOT
BRANCH   1   3
ATOM      3  C   UNL     1      -2.874  -2.254  -0.887  0.00  0.00    +0.082 A 
ATOM      4  C   UNL     1      -3.973  -1.625  -0.292  0.00  0.00    +0.037 A 
ATOM      5  C   UNL     1      -5.231  -2.170  -0.424  0.00  0.00    +0.043 A 
ATOM      6  C   UNL     1      -5.416  -3.341  -1.146  0.00  0.00    +0.042 A 
ATOM      7  C   UNL     1      -4.342  -3.973  -1.738  0.00  0.00    +0.064 A 
ATOM      8  C   UNL     1      -3.065  -3.435  -1.621  0.00  0.00    +0.057 A 
ATOM      9 CL   UNL     1      -4.586  -5.438  -2.638  0.00  0.00    -0.082 Cl
ATOM     10 CL   UNL     1      -6.593  -1.388   0.315  0.00  0.00    -0.083 Cl
BRANCH   8  11
ATOM     11  N   UNL     1      -1.983  -4.066  -2.222  0.00  0.00    -0.356 N 
ATOM     12  H   UNL     1      -1.083  -3.737  -2.069  0.00  0.00    +0.142 HD
ATOM     13  H   UNL     1      -2.127  -4.836  -2.794  0.00  0.00    +0.142 HD
ENDBRANCH   8  11
ENDBRANCH   1   3
BRANCH   1  14
ATOM     14  O   UNL     1      -1.363  -0.480  -0.151  0.00  0.00    -0.449 OA
BRANCH  14  16
ATOM     15  C   UNL     1       0.621  -0.451   1.260  0.00  0.00    +0.062 C 
ATOM     16  C   UNL     1      -0.007   0.028  -0.051  0.00  0.00    +0.259 C 
BRANCH  16  17
ATOM     17  C   UNL     1      -0.031   1.534  -0.075  0.00  0.00    +0.256 C 
ATOM     18  O   UNL     1      -1.091   2.124  -0.082  0.00  0.00    -0.272 OA
ATOM     19  N   UNL     1       1.125   2.227  -0.095  0.00  0.00    -0.294 N 
ATOM     20  C   UNL     1       2.423   1.533  -0.087  0.00  0.00    +0.136 C 
ATOM     21  C   UNL     1       3.277   2.103  -1.232  0.00  0.00    +0.179 C 
ATOM     22  O   UNL     1       3.318   3.527  -1.122  0.00  0.00    -0.377 OA
ATOM     23  C   UNL     1       2.044   4.162  -1.257  0.00  0.00    +0.179 C 
ATOM     24  C   UNL     1       1.127   3.698  -0.119  0.00  0.00    +0.136 C 
ENDBRANCH  16  17
ENDBRANCH  14  16
ENDBRANCH   1  14
TORSDOF 5
