REMARK  Name = ZINC05595945
REMARK  2 active torsions:
REMARK  status: ('A' for Active; 'I' for Inactive)
REMARK    1  A    between atoms: C_5  and  N_7
REMARK    2  A    between atoms: C_8  and  C_10
REMARK                            x       y       z     vdW  Elec       q    Type
REMARK                         _______ _______ _______ _____ _____    ______ ____
ROOT
ATOM      1  C   UNL     1       2.346   1.474  -0.009  0.00  0.00    +0.148 A 
ATOM      2  C   UNL     1       2.355   0.075  -0.049  0.00  0.00    +0.201 A 
ATOM      3  C   UNL     1       1.131  -0.628  -0.042  0.00  0.00    +0.019 A 
ATOM      4  C   UNL     1      -0.032   0.052   0.009  0.00  0.00    +0.026 A 
ATOM      5  N   UNL     1      -0.036   1.418   0.044  0.00  0.00    -0.325 N 
ATOM      6  H   UNL     1      -0.991   1.964   0.080  0.00  0.00    +0.169 HD
ATOM      7  C   UNL     1       1.096   2.138   0.037  0.00  0.00    +0.265 A 
ATOM      8  O   UNL     1       1.049   3.355   0.069  0.00  0.00    -0.267 OA
ATOM      9  C   UNL     1      -1.374  -0.635   0.040  0.00  0.00    +0.054 C 
ATOM     10  C   UNL     1      -1.254  -2.080  -0.437  0.00  0.00    +0.006 C 
ATOM     11  C   UNL     1      -0.121  -2.752   0.349  0.00  0.00    +0.005 C 
ATOM     12  C   UNL     1       1.201  -2.132  -0.097  0.00  0.00    +0.041 C 
ATOM     13  O   UNL     1       3.526  -0.598  -0.095  0.00  0.00    -0.287 OA
ENDROOT
BRANCH   1  15
ATOM     14  N   UNL     1       4.218   2.509  -1.179  0.00  0.00    -0.280 N 
ATOM     15  C   UNL     1       3.601   2.234  -0.013  0.00  0.00    +0.257 C 
ATOM     16  O   UNL     1       4.085   2.617   1.036  0.00  0.00    -0.270 OA
ATOM     17  H   UNL     1       3.748   2.222  -2.131  0.00  0.00    +0.155 HD
BRANCH  14  22
ATOM     18  C   UNL     1       6.965   4.754  -0.213  0.00  0.00    +0.002 A 
ATOM     19  C   UNL     1       7.907   4.447  -1.178  0.00  0.00    +0.001 A 
ATOM     20  C   UNL     1       7.627   3.497  -2.144  0.00  0.00    +0.017 A 
ATOM     21  C   UNL     1       6.405   2.852  -2.147  0.00  0.00    +0.039 A 
ATOM     22  C   UNL     1       5.457   3.159  -1.179  0.00  0.00    +0.048 A 
ATOM     23  C   UNL     1       5.739   4.118  -0.214  0.00  0.00    +0.024 A 
ATOM     24 BR   UNL     1       6.023   1.554  -3.469  0.00  0.00    -0.048 Br
ENDBRANCH  14  22
ENDBRANCH   1  15
TORSDOF 2
