REMARK  Name = ZINC53491811
REMARK  12 active torsions:
REMARK  status: ('A' for Active; 'I' for Inactive)
REMARK    1  A    between atoms: C_1  and  C_2
REMARK    2  A    between atoms: C_2  and  C_3
REMARK    3  A    between atoms: C_2  and  C_4
REMARK    4  A    between atoms: C_2  and  O_5
REMARK    5  A    between atoms: O_5  and  C_6
REMARK    6  A    between atoms: N_8  and  N_9
REMARK    7  A    between atoms: N_12  and  C_13
REMARK    8  A    between atoms: C_13  and  C_14
REMARK    9  A    between atoms: C_14  and  C_16
REMARK   10  A    between atoms: C_14  and  N_24
REMARK   11  A    between atoms: C_19  and  O_22
REMARK   12  A    between atoms: O_22  and  C_23
REMARK                            x       y       z     vdW  Elec       q    Type
REMARK                         _______ _______ _______ _____ _____    ______ ____
ROOT
ATOM      1  C   UNL     1       4.742  -1.755  -5.797  0.00  0.00    +0.095 C 
ENDROOT
BRANCH   1   5
ATOM      2  N   UNL     1       3.746  -5.279  -6.129  0.00  0.00    -0.216 N 
ATOM      3  C   UNL     1       3.680  -3.938  -6.006  0.00  0.00    +0.316 C 
ATOM      4  O   UNL     1       2.599  -3.384  -5.964  0.00  0.00    -0.251 OA
ATOM      5  N   UNL     1       4.813  -3.212  -5.931  0.00  0.00    -0.299 N 
ATOM      6  H   UNL     1       2.930  -5.801  -6.184  0.00  0.00    +0.174 HD
ATOM      7  H   UNL     1       5.676  -3.654  -5.965  0.00  0.00    +0.150 HD
BRANCH   2  10
ATOM      8  C   UNL     1       5.058  -7.258  -6.301  0.00  0.00    +0.417 C 
ATOM      9  O   UNL     1       6.138  -7.812  -6.344  0.00  0.00    -0.225 OA
ATOM     10  N   UNL     1       4.992  -5.917  -6.178  0.00  0.00    -0.198 N 
ATOM     11  H   UNL     1       5.807  -5.395  -6.124  0.00  0.00    +0.176 HD
BRANCH   8  12
ATOM     12  O   UNL     1       3.926  -7.983  -6.377  0.00  0.00    -0.444 OA
BRANCH  12  14
ATOM     13  C   UNL     1       4.830  -9.947  -5.296  0.00  0.00    +0.055 C 
ATOM     14  C   UNL     1       4.070  -9.399  -6.506  0.00  0.00    +0.107 C 
ATOM     15  C   UNL     1       4.849  -9.718  -7.784  0.00  0.00    +0.055 C 
ATOM     16  C   UNL     1       2.687 -10.048  -6.576  0.00  0.00    +0.055 C 
ENDBRANCH  12  14
ENDBRANCH   8  12
ENDBRANCH   2  10
ENDBRANCH   1   5
BRANCH   1  17
ATOM     17  C   UNL     1       6.153  -1.188  -5.633  0.00  0.00    -0.020 C 
BRANCH  17  18
ATOM     18  C   UNL     1       6.938  -1.420  -6.898  0.00  0.00    -0.059 A 
ATOM     19  C   UNL     1       6.768  -0.577  -7.981  0.00  0.00    +0.005 A 
ATOM     20  C   UNL     1       7.487  -0.788  -9.142  0.00  0.00    +0.046 A 
ATOM     21  C   UNL     1       8.379  -1.847  -9.221  0.00  0.00    +0.120 A 
ATOM     22  C   UNL     1       8.549  -2.692  -8.133  0.00  0.00    +0.046 A 
ATOM     23  C   UNL     1       7.832  -2.473  -6.972  0.00  0.00    +0.005 A 
BRANCH  21  24
ATOM     24  O   UNL     1       9.087  -2.057 -10.362  0.00  0.00    -0.495 OA
ATOM     25  C   UNL     1       9.988  -3.166 -10.372  0.00  0.00    +0.277 C 
ENDBRANCH  21  24
ENDBRANCH  17  18
BRANCH  17  26
ATOM     26  N   UNL     1       6.074   0.254  -5.364  0.00  0.00    +0.385 N 
ATOM     27  C   UNL     1       7.436   0.821  -5.284  0.00  0.00    -0.078 C 
ATOM     28  C   UNL     1       7.349   1.908  -4.183  0.00  0.00    -0.020 C 
ATOM     29  C   UNL     1       6.379   1.248  -3.168  0.00  0.00    -0.020 C 
ATOM     30  C   UNL     1       5.394   0.482  -4.076  0.00  0.00    -0.078 C 
ATOM     31  H   UNL     1       5.561   0.711  -6.104  0.00  0.00    -0.081 HD
ENDBRANCH  17  26
ENDBRANCH   1  17
TORSDOF 8
