REMARK  Name = ZINC40626730
REMARK  5 active torsions:
REMARK  status: ('A' for Active; 'I' for Inactive)
REMARK    1  A    between atoms: C_1  and  C_2
REMARK    2  A    between atoms: C_9  and  N_12
REMARK    3  A    between atoms: C_14  and  N_21
REMARK    4  A    between atoms: C_15  and  N_19
REMARK    5  A    between atoms: N_19  and  N_20
REMARK                            x       y       z     vdW  Elec       q    Type
REMARK                         _______ _______ _______ _____ _____    ______ ____
ROOT
ATOM      1  N   UNL     1       0.045  -1.962   3.622  0.00  0.00    -0.296 N 
ATOM      2  C   UNL     1       0.566  -2.539   4.771  0.00  0.00    +0.159 A 
ATOM      3  C   UNL     1       0.468  -1.886   5.996  0.00  0.00    +0.207 A 
ATOM      4  C   UNL     1       1.006  -2.507   7.119  0.00  0.00    +0.168 A 
ATOM      5  N   UNL     1       1.592  -3.695   6.982  0.00  0.00    -0.217 NA
ATOM      6  C   UNL     1       1.665  -4.281   5.804  0.00  0.00    +0.225 A 
ATOM      7  N   UNL     1       1.163  -3.728   4.719  0.00  0.00    -0.218 NA
ATOM      8  H   UNL     1      -0.314  -1.061   3.651  0.00  0.00    +0.154 HD
ENDROOT
BRANCH   1  17
ATOM      9  C   UNL     1      -0.020   1.487  -0.005  0.00  0.00    +0.065 C 
ATOM     10  C   UNL     1      -0.010  -0.020  -0.007  0.00  0.00    +0.039 A 
ATOM     11  C   UNL     1      -0.020  -0.698  -1.224  0.00  0.00    +0.023 A 
ATOM     12  C   UNL     1      -0.011  -2.063  -1.244  0.00  0.00    +0.012 A 
ATOM     13  C   UNL     1       0.009  -2.746  -0.013  0.00  0.00    +0.002 A 
ATOM     14  C   UNL     1       0.020  -4.149   0.044  0.00  0.00    +0.010 A 
ATOM     15  C   UNL     1       0.040  -4.780   1.250  0.00  0.00    +0.003 A 
ATOM     16  C   UNL     1       0.048  -4.055   2.438  0.00  0.00    +0.025 A 
ATOM     17  C   UNL     1       0.037  -2.677   2.424  0.00  0.00    +0.059 A 
ATOM     18  C   UNL     1       0.018  -1.994   1.188  0.00  0.00    +0.092 A 
ATOM     19  N   UNL     1       0.013  -0.660   1.138  0.00  0.00    -0.250 NA
ENDBRANCH   1  17
BRANCH   3  20
ATOM     20  N   UNL     1      -0.192  -0.565   6.102  0.00  0.00    +0.063 N 
ATOM     21  O   UNL     1      -1.379  -0.498   6.323  0.00  0.00    -0.126 OA
ATOM     22  O   UNL     1       0.455   0.447   5.967  0.00  0.00    -0.126 OA
ENDBRANCH   3  20
BRANCH   4  23
ATOM     23  N   UNL     1       0.934  -1.897   8.362  0.00  0.00    -0.266 N 
ATOM     24  H   UNL     1       0.506  -1.032   8.454  0.00  0.00    +0.168 HD
BRANCH  23  25
ATOM     25  N   UNL     1       1.466  -2.516   9.458  0.00  0.00    -0.255 NA
ATOM     26  H   UNL     1       2.441  -2.731   9.313  0.00  0.00    +0.140 HD
ATOM     27  H   UNL     1       1.339  -1.955  10.287  0.00  0.00    +0.140 HD
ENDBRANCH  23  25
ENDBRANCH   4  23
TORSDOF 4
