REMARK  Name = ZINC45922512
REMARK  4 active torsions:
REMARK  status: ('A' for Active; 'I' for Inactive)
REMARK    1  A    between atoms: C_1  and  C_2
REMARK    2  A    between atoms: C_5  and  N_13
REMARK    3  A    between atoms: C_7  and  N_8
REMARK    4  A    between atoms: N_11  and  N_12
REMARK                            x       y       z     vdW  Elec       q    Type
REMARK                         _______ _______ _______ _____ _____    ______ ____
ROOT
ATOM      1  C   UNL     1      -0.009   1.492   0.004  0.00  0.00    +0.045 C 
ATOM      2  C   UNL     1       0.016  -0.014   0.002  0.00  0.00    -0.029 A 
ATOM      3  C   UNL     1       0.028  -0.704  -1.195  0.00  0.00    +0.007 A 
ATOM      4  C   UNL     1       0.051  -2.087  -1.197  0.00  0.00    +0.033 A 
ATOM      5  C   UNL     1       0.062  -2.783  -0.002  0.00  0.00    +0.128 A 
ATOM      6  C   UNL     1       0.049  -2.099   1.197  0.00  0.00    +0.056 A 
ATOM      7  C   UNL     1       0.032  -0.711   1.203  0.00  0.00    +0.040 A 
ENDROOT
BRANCH   7   8
ATOM      8  N   UNL     1       0.025  -0.015   2.417  0.00  0.00    -0.268 N 
ATOM      9  C   UNL     1      -0.632  -0.520   3.480  0.00  0.00    +0.317 C 
ATOM     10  O   UNL     1      -1.149  -1.618   3.409  0.00  0.00    -0.251 OA
ATOM     11  N   UNL     1      -0.715   0.192   4.622  0.00  0.00    -0.237 N 
ATOM     12  H   UNL     1       0.493   0.832   2.494  0.00  0.00    +0.156 HD
ATOM     13  H   UNL     1      -1.188  -0.172   5.386  0.00  0.00    +0.170 HD
BRANCH  11  14
ATOM     14  N   UNL     1      -0.134   1.426   4.701  0.00  0.00    -0.253 NA
ATOM     15  H   UNL     1      -0.278   1.835   5.612  0.00  0.00    +0.141 HD
ATOM     16  H   UNL     1       0.849   1.377   4.478  0.00  0.00    +0.141 HD
ENDBRANCH  11  14
ENDBRANCH   7   8
BRANCH   5  17
ATOM     17  N   UNL     1       0.086  -4.263  -0.009  0.00  0.00    +0.056 N 
ATOM     18  O   UNL     1       0.097  -4.862  -1.059  0.00  0.00    -0.126 OA
ATOM     19  O   UNL     1       0.096  -4.873   1.035  0.00  0.00    -0.126 OA
ENDBRANCH   5  17
TORSDOF 3
