REMARK  Name = ZINC52818931
REMARK  5 active torsions:
REMARK  status: ('A' for Active; 'I' for Inactive)
REMARK    1  A    between atoms: C_1  and  C_2
REMARK    2  A    between atoms: C_4  and  C_7
REMARK    3  A    between atoms: N_9  and  N_10
REMARK    4  A    between atoms: C_11  and  C_13
REMARK    5  A    between atoms: C_22  and  O_23
REMARK                            x       y       z     vdW  Elec       q    Type
REMARK                         _______ _______ _______ _____ _____    ______ ____
ROOT
ATOM      1  N   UNL     1       0.069  -5.671  -1.888  0.00  0.00    -0.230 N 
ATOM      2  C   UNL     1       0.088  -6.904  -1.345  0.00  0.00    +0.264 C 
ATOM      3  O   UNL     1       0.096  -7.036  -0.136  0.00  0.00    -0.269 OA
ATOM      4  H   UNL     1       0.063  -5.565  -2.852  0.00  0.00    +0.173 HD
ENDROOT
BRANCH   2   5
ATOM      5  C   UNL     1       0.100  -8.094  -2.218  0.00  0.00    +0.080 A 
ATOM      6  C   UNL     1       0.096  -7.938  -3.594  0.00  0.00    +0.025 A 
ATOM      7  C   UNL     1       0.107  -9.073  -4.418  0.00  0.00    -0.017 A 
ATOM      8  C   UNL     1       0.105  -8.952  -5.820  0.00  0.00    +0.008 A 
ATOM      9  C   UNL     1       0.117 -10.071  -6.593  0.00  0.00    +0.001 A 
ATOM     10  C   UNL     1       0.131 -11.341  -6.017  0.00  0.00    +0.001 A 
ATOM     11  C   UNL     1       0.133 -11.497  -4.665  0.00  0.00    +0.008 A 
ATOM     12  C   UNL     1       0.122 -10.365  -3.832  0.00  0.00    -0.014 A 
ATOM     13  C   UNL     1       0.124 -10.496  -2.433  0.00  0.00    +0.054 A 
ATOM     14  C   UNL     1       0.120  -9.383  -1.645  0.00  0.00    +0.130 A 
BRANCH  14  15
ATOM     15  O   UNL     1       0.129  -9.518  -0.294  0.00  0.00    -0.506 OA
ATOM     16  H   UNL     1      -0.751  -9.568   0.102  0.00  0.00    +0.292 HD
ENDBRANCH  14  15
ENDBRANCH   2   5
BRANCH   1  19
ATOM     17  C   UNL     1       0.039  -3.307  -1.602  0.00  0.00    +0.298 C 
ATOM     18  O   UNL     1       0.031  -3.175  -2.811  0.00  0.00    -0.265 OA
ATOM     19  N   UNL     1       0.058  -4.541  -1.060  0.00  0.00    -0.228 N 
ATOM     20  H   UNL     1       0.065  -4.646  -0.095  0.00  0.00    +0.173 HD
BRANCH  17  24
ATOM     21  C   UNL     1      -0.018   1.503   0.010  0.00  0.00    +0.069 C 
ATOM     22  C   UNL     1       0.002  -0.004   0.002  0.00  0.00    +0.081 A 
ATOM     23  C   UNL     1       0.008  -0.821  -1.141  0.00  0.00    +0.080 A 
ATOM     24  C   UNL     1       0.028  -2.118  -0.730  0.00  0.00    +0.223 A 
ATOM     25  O   UNL     1       0.034  -2.120   0.617  0.00  0.00    -0.350 OA
ATOM     26  N   UNL     1       0.023  -0.772   1.053  0.00  0.00    -0.083 NA
ENDBRANCH  17  24
ENDBRANCH   1  19
TORSDOF 4
