REMARK  Name = ZINC12507020
REMARK  2 active torsions:
REMARK  status: ('A' for Active; 'I' for Inactive)
REMARK    1  A    between atoms: C_6  and  C_10
REMARK    2  A    between atoms: C_10  and  N_11
REMARK                            x       y       z     vdW  Elec       q    Type
REMARK                         _______ _______ _______ _____ _____    ______ ____
ROOT
ATOM      1  N   UNL     1      -1.137   1.941   0.018  0.00  0.00    -0.218 N 
ATOM      2  C   UNL     1      -0.869   3.265   0.028  0.00  0.00    +0.247 C 
ATOM      3  O   UNL     1      -1.668   4.177   0.040  0.00  0.00    -0.273 OA
ATOM      4  C   UNL     1       0.635   3.366   0.014  0.00  0.00    +0.113 C 
ATOM      5  C   UNL     1       1.124   4.123  -1.228  0.00  0.00    +0.035 C 
ATOM      6  C   UNL     1       1.382   5.563  -0.711  0.00  0.00    +0.003 C 
ATOM      7  C   UNL     1       1.956   5.322   0.708  0.00  0.00    +0.003 C 
ATOM      8  C   UNL     1       1.152   4.117   1.243  0.00  0.00    +0.035 C 
ATOM      9  N   UNL     1       1.096   1.976   0.002  0.00  0.00    -0.285 N 
ATOM     10  C   UNL     1      -0.014   1.211   0.009  0.00  0.00    +0.310 C 
ATOM     11  O   UNL     1       0.002  -0.004   0.002  0.00  0.00    -0.252 OA
ATOM     12  H   UNL     1       2.015   1.668  -0.008  0.00  0.00    +0.151 HD
ENDROOT
BRANCH   1  13
ATOM     13  C   UNL     1      -2.488   1.374   0.021  0.00  0.00    +0.175 C 
BRANCH  13  19
ATOM     14  C   UNL     1      -3.939  -0.100   5.648  0.00  0.00    +0.005 A 
ATOM     15  C   UNL     1      -4.588   1.145   5.620  0.00  0.00    +0.018 A 
ATOM     16  C   UNL     1      -4.551   1.907   4.507  0.00  0.00    +0.092 A 
ATOM     17  N   UNL     1      -3.884   1.482   3.395  0.00  0.00    -0.306 N 
ATOM     18  C   UNL     1      -3.691   2.041   2.161  0.00  0.00    +0.117 A 
ATOM     19  C   UNL     1      -2.945   1.173   1.442  0.00  0.00    +0.078 A 
ATOM     20  N   UNL     1      -2.686   0.104   2.200  0.00  0.00    -0.231 NA
ATOM     21  C   UNL     1      -3.241   0.271   3.392  0.00  0.00    +0.138 A 
ATOM     22  C   UNL     1      -3.271  -0.537   4.546  0.00  0.00    +0.047 A 
ENDBRANCH  13  19
ENDBRANCH   1  13
TORSDOF 2
