REMARK  Name = ZINC35781026
REMARK  14 active torsions:
REMARK  status: ('A' for Active; 'I' for Inactive)
REMARK    1  A    between atoms: C_1  and  C_2
REMARK    2  A    between atoms: C_2  and  C_3
REMARK    3  A    between atoms: C_2  and  C_4
REMARK    4  A    between atoms: C_11  and  C_15
REMARK    5  A    between atoms: C_15  and  N_16
REMARK    6  A    between atoms: N_16  and  C_17
REMARK    7  A    between atoms: N_16  and  C_24
REMARK    8  A    between atoms: C_17  and  C_18
REMARK    9  A    between atoms: C_18  and  C_20
REMARK   10  A    between atoms: C_18  and  O_23
REMARK   11  A    between atoms: C_20  and  C_21
REMARK   12  A    between atoms: C_20  and  C_22
REMARK   13  A    between atoms: C_24  and  C_25
REMARK   14  A    between atoms: C_24  and  C_26
REMARK                            x       y       z     vdW  Elec       q    Type
REMARK                         _______ _______ _______ _____ _____    ______ ____
ROOT
ATOM      1  C   UNL     1      -3.764   2.004  -2.176  0.00  0.00    -0.005 A 
ATOM      2  C   UNL     1      -4.296   0.985  -2.870  0.00  0.00    +0.027 A 
ATOM      3  C   UNL     1      -5.211   0.076  -2.204  0.00  0.00    +0.072 A 
ATOM      4  C   UNL     1      -5.896  -1.068  -2.727  0.00  0.00    +0.260 A 
ATOM      5  O   UNL     1      -5.749  -1.400  -3.891  0.00  0.00    -0.267 OA
ATOM      6  N   UNL     1      -6.705  -1.771  -1.913  0.00  0.00    -0.312 N 
ATOM      7  H   UNL     1      -7.172  -2.547  -2.261  0.00  0.00    +0.170 HD
ATOM      8  C   UNL     1      -6.881  -1.417  -0.614  0.00  0.00    +0.094 A 
ATOM      9  N   UNL     1      -6.271  -0.379  -0.108  0.00  0.00    -0.229 NA
ATOM     10  C   UNL     1      -5.455   0.365  -0.850  0.00  0.00    +0.116 A 
ATOM     11  S   UNL     1      -4.462   1.804  -0.548  0.00  0.00    -0.073 S 
ENDROOT
BRANCH   1  13
ATOM     12  C   UNL     1      -3.434   4.442  -2.485  0.00  0.00    +0.013 C 
ATOM     13  C   UNL     1      -2.802   3.060  -2.657  0.00  0.00    +0.020 C 
ATOM     14  C   UNL     1      -1.511   2.984  -1.839  0.00  0.00    +0.013 C 
ENDBRANCH   1  13
BRANCH   8  15
ATOM     15  C   UNL     1      -7.797  -2.235   0.259  0.00  0.00    -0.003 C 
BRANCH  15  16
ATOM     16  N   UNL     1      -7.688  -1.775   1.650  0.00  0.00    +0.388 N 
ATOM     17  H   UNL     1      -7.558  -0.774   1.664  0.00  0.00    -0.081 HD
BRANCH  16  18
ATOM     18  C   UNL     1      -6.539  -2.427   2.293  0.00  0.00    -0.074 C 
ATOM     19  C   UNL     1      -6.731  -3.944   2.264  0.00  0.00    -0.014 C 
ATOM     20  C   UNL     1      -5.258  -2.060   1.541  0.00  0.00    -0.014 C 
ENDBRANCH  16  18
BRANCH  16  21
ATOM     21  C   UNL     1      -8.917  -2.119   2.377  0.00  0.00    -0.046 C 
BRANCH  21  22
ATOM     22  C   UNL     1      -8.865  -1.514   3.781  0.00  0.00    +0.101 C 
BRANCH  22  23
ATOM     23  C   UNL     1     -10.142  -1.879   4.542  0.00  0.00    +0.010 C 
ATOM     24  C   UNL     1     -10.255  -3.401   4.647  0.00  0.00    +0.010 C 
ATOM     25  C   UNL     1     -10.090  -1.273   5.946  0.00  0.00    +0.010 C 
ENDBRANCH  22  23
BRANCH  22  26
ATOM     26  O   UNL     1      -8.759  -0.092   3.683  0.00  0.00    -0.393 OA
ATOM     27  H   UNL     1      -9.497   0.326   3.219  0.00  0.00    +0.210 HD
ENDBRANCH  22  26
ENDBRANCH  21  22
ENDBRANCH  16  21
ENDBRANCH  15  16
ENDBRANCH   8  15
TORSDOF 8
