REMARK  Name = ZINC26129839
REMARK  10 active torsions:
REMARK  status: ('A' for Active; 'I' for Inactive)
REMARK    1  A    between atoms: C_1  and  C_2
REMARK    2  A    between atoms: C_2  and  C_4
REMARK    3  A    between atoms: C_2  and  N_12
REMARK    4  A    between atoms: C_7  and  C_10
REMARK    5  A    between atoms: C_13  and  C_15
REMARK    6  A    between atoms: C_21  and  O_23
REMARK    7  A    between atoms: O_23  and  C_24
REMARK    8  A    between atoms: C_24  and  C_25
REMARK    9  A    between atoms: C_24  and  C_26
REMARK   10  A    between atoms: C_24  and  C_27
REMARK                            x       y       z     vdW  Elec       q    Type
REMARK                         _______ _______ _______ _____ _____    ______ ____
ROOT
ATOM      1  N   UNL     1       0.714   1.106   3.118  0.00  0.00    -0.307 N 
ATOM      2  C   UNL     1       0.161   2.034   2.311  0.00  0.00    +0.234 C 
ATOM      3  O   UNL     1       0.436   3.206   2.458  0.00  0.00    -0.274 OA
ATOM      4  H   UNL     1       0.464   0.043   2.985  0.00  0.00    +0.149 HD
ENDROOT
BRANCH   2   5
ATOM      5  C   UNL     1      -0.798   1.615   1.227  0.00  0.00    +0.165 C 
ATOM      6  C   UNL     1      -0.013   1.086   0.008  0.00  0.00    +0.033 C 
ATOM      7  C   UNL     1      -0.825   1.630  -1.196  0.00  0.00    +0.021 C 
ATOM      8  C   UNL     1      -1.294   3.006  -0.659  0.00  0.00    +0.112 C 
ATOM      9  N   UNL     1      -1.581   2.775   0.768  0.00  0.00    -0.256 N 
ATOM     10  C   UNL     1      -2.418   3.507   1.530  0.00  0.00    +0.404 C 
ATOM     11  O   UNL     1      -2.578   3.225   2.701  0.00  0.00    -0.226 OA
BRANCH  10  12
ATOM     12  O   UNL     1      -3.076   4.552   0.993  0.00  0.00    -0.445 OA
BRANCH  12  13
ATOM     13  C   UNL     1      -3.961   5.295   1.872  0.00  0.00    +0.107 C 
ATOM     14  C   UNL     1      -3.155   5.873   3.037  0.00  0.00    +0.055 C 
ATOM     15  C   UNL     1      -4.616   6.436   1.090  0.00  0.00    +0.055 C 
ATOM     16  C   UNL     1      -5.044   4.361   2.414  0.00  0.00    +0.055 C 
ENDBRANCH  12  13
ENDBRANCH  10  12
ENDBRANCH   2   5
BRANCH   1  18
ATOM     17  C   UNL     1       0.859   1.918   5.420  0.00  0.00    +0.033 C 
ATOM     18  C   UNL     1       1.646   1.514   4.172  0.00  0.00    +0.100 C 
BRANCH  18  19
ATOM     19  C   UNL     1       2.560   0.363   4.506  0.00  0.00    -0.027 A 
ATOM     20  C   UNL     1       2.054  -0.923   4.570  0.00  0.00    +0.007 A 
ATOM     21  C   UNL     1       2.887  -1.981   4.871  0.00  0.00    +0.019 A 
ATOM     22  C   UNL     1       4.241  -1.750   5.121  0.00  0.00    +0.052 A 
ATOM     23  C   UNL     1       4.744  -0.449   5.060  0.00  0.00    +0.019 A 
ATOM     24  C   UNL     1       3.901   0.599   4.753  0.00  0.00    +0.007 A 
BRANCH  22  25
ATOM     25  C   UNL     1       5.110  -2.843   5.440  0.00  0.00    +0.099 C 
ATOM     26  N   UNL     1       5.799  -3.710   5.693  0.00  0.00    -0.191 NA
ENDBRANCH  22  25
ENDBRANCH  18  19
ENDBRANCH   1  18
TORSDOF 6
