REMARK  Name = ZINC32159084
REMARK  8 active torsions:
REMARK  status: ('A' for Active; 'I' for Inactive)
REMARK    1  A    between atoms: C_1  and  C_2
REMARK    2  A    between atoms: C_3  and  S_8
REMARK    3  A    between atoms: C_4  and  C_7
REMARK    4  A    between atoms: S_8  and  N_11
REMARK    5  A    between atoms: N_11  and  C_12
REMARK    6  A    between atoms: C_12  and  C_14
REMARK    7  A    between atoms: C_12  and  C_15
REMARK    8  A    between atoms: C_18  and  N_21
REMARK                            x       y       z     vdW  Elec       q    Type
REMARK                         _______ _______ _______ _____ _____    ______ ____
ROOT
ATOM      1  N   UNL     1      -0.749   3.044   1.275  0.00  0.00    -0.183 NA
ATOM      2  H   UNL     1      -1.436   3.588   0.611  0.00  0.00    +0.149 HD
ENDROOT
BRANCH   1   3
ATOM      3  S   UNL     1       0.422   3.884   2.091  0.00  0.00    +0.064 S 
ATOM      4  O   UNL     1       0.148   5.263   1.890  0.00  0.00    -0.153 OA
ATOM      5  O   UNL     1       0.509   3.305   3.386  0.00  0.00    -0.153 OA
BRANCH   3   8
ATOM      6  C   UNL     1       2.749   1.453   2.622  0.00  0.00    +0.071 C 
ATOM      7  C   UNL     1       2.878   2.518   1.564  0.00  0.00    +0.107 A 
ATOM      8  C   UNL     1       1.956   3.553   1.288  0.00  0.00    +0.169 A 
ATOM      9  C   UNL     1       2.526   4.236   0.266  0.00  0.00    +0.161 A 
ATOM     10  O   UNL     1       3.683   3.615  -0.006  0.00  0.00    -0.358 OA
ATOM     11  N   UNL     1       3.859   2.665   0.721  0.00  0.00    -0.081 NA
ATOM     12  C   UNL     1       1.971   5.453  -0.427  0.00  0.00    +0.091 C 
ENDBRANCH   3   8
ENDBRANCH   1   3
BRANCH   1  13
ATOM     13  C   UNL     1      -0.729   1.579   1.267  0.00  0.00    +0.103 C 
ATOM     14  C   UNL     1      -0.013   1.086   0.008  0.00  0.00    +0.031 C 
BRANCH  13  15
ATOM     15  C   UNL     1      -2.143   1.058   1.278  0.00  0.00    -0.029 A 
ATOM     16  C   UNL     1      -3.116   1.688   0.524  0.00  0.00    +0.007 A 
ATOM     17  C   UNL     1      -4.412   1.209   0.527  0.00  0.00    +0.023 A 
ATOM     18  C   UNL     1      -4.739   0.100   1.297  0.00  0.00    +0.025 A 
ATOM     19  C   UNL     1      -3.759  -0.527   2.057  0.00  0.00    +0.023 A 
ATOM     20  C   UNL     1      -2.465  -0.047   2.045  0.00  0.00    +0.007 A 
BRANCH  18  21
ATOM     21  N   UNL     1      -6.049  -0.383   1.307  0.00  0.00    -0.358 N 
ATOM     22  H   UNL     1      -6.307  -1.262   1.918  0.00  0.00    +0.142 HD
ATOM     23  H   UNL     1      -6.823   0.114   0.705  0.00  0.00    +0.142 HD
ENDBRANCH  18  21
ENDBRANCH  13  15
ENDBRANCH   1  13
TORSDOF 5
