REMARK  Name = ZINC08670818
REMARK  5 active torsions:
REMARK  status: ('A' for Active; 'I' for Inactive)
REMARK    1  A    between atoms: C_1  and  C_2
REMARK    2  A    between atoms: C_2  and  N_3
REMARK    3  A    between atoms: C_14  and  C_25
REMARK    4  A    between atoms: C_20  and  N_24
REMARK    5  A    between atoms: C_21  and  C_22
REMARK                            x       y       z     vdW  Elec       q    Type
REMARK                         _______ _______ _______ _____ _____    ______ ____
ROOT
ATOM      1  N   UNL     1      -1.029  -0.494  -0.831  0.00  0.00    -0.270 N 
ATOM      2  C   UNL     1      -1.743  -0.395   0.351  0.00  0.00    +0.041 A 
ATOM      3  C   UNL     1      -1.316   0.025   1.611  0.00  0.00    +0.024 A 
ATOM      4  C   UNL     1      -2.254   0.023   2.632  0.00  0.00    +0.002 A 
ATOM      5  C   UNL     1      -3.559  -0.375   2.424  0.00  0.00    +0.000 A 
ATOM      6  C   UNL     1      -3.997  -0.795   1.173  0.00  0.00    +0.007 A 
ATOM      7  C   UNL     1      -3.070  -0.796   0.153  0.00  0.00    -0.001 A 
ATOM      8  C   UNL     1      -3.180  -1.177  -1.288  0.00  0.00    +0.145 C 
ATOM      9  C   UNL     1      -1.795  -0.942  -1.849  0.00  0.00    +0.240 C 
ATOM     10  O   UNL     1      -1.439  -1.123  -2.994  0.00  0.00    -0.274 OA
ATOM     11  C   UNL     1      -3.576  -2.618  -1.445  0.00  0.00    +0.066 A 
ATOM     12  C   UNL     1      -2.856  -3.779  -1.148  0.00  0.00    +0.101 A 
ATOM     13  N   UNL     1      -3.613  -4.816  -1.452  0.00  0.00    -0.171 NA
ATOM     14  N   UNL     1      -4.835  -4.340  -1.951  0.00  0.00    -0.246 N 
ATOM     15  H   UNL     1      -5.580  -4.885  -2.252  0.00  0.00    +0.192 HD
ATOM     16  C   UNL     1      -4.794  -2.992  -1.940  0.00  0.00    +0.224 A 
ATOM     17  O   UNL     1      -5.732  -2.092  -2.325  0.00  0.00    -0.423 OA
ATOM     18  C   UNL     1      -5.356  -0.805  -2.464  0.00  0.00    +0.201 C 
ATOM     19  C   UNL     1      -4.181  -0.313  -2.006  0.00  0.00    +0.110 C 
ENDROOT
BRANCH  12  20
ATOM     20  C   UNL     1      -1.482  -3.835  -0.590  0.00  0.00    +0.003 A 
ATOM     21  C   UNL     1      -1.158  -3.096   0.546  0.00  0.00    +0.011 A 
ATOM     22  C   UNL     1       0.121  -3.152   1.061  0.00  0.00    +0.020 A 
ATOM     23  C   UNL     1       1.082  -3.940   0.451  0.00  0.00    +0.041 A 
ATOM     24  C   UNL     1       0.765  -4.676  -0.678  0.00  0.00    +0.020 A 
ATOM     25  C   UNL     1      -0.513  -4.631  -1.198  0.00  0.00    +0.011 A 
ATOM     26 CL   UNL     1       2.689  -4.005   1.103  0.00  0.00    -0.084 Cl
ENDBRANCH  12  20
BRANCH  18  27
ATOM     27  N   UNL     1      -6.212   0.055  -3.107  0.00  0.00    -0.328 N 
ATOM     28  H   UNL     1      -7.061  -0.270  -3.446  0.00  0.00    +0.145 HD
ATOM     29  H   UNL     1      -5.968   0.987  -3.221  0.00  0.00    +0.145 HD
ENDBRANCH  18  27
BRANCH   1  31
ATOM     30  C   UNL     1       0.519   1.330  -1.335  0.00  0.00    +0.025 C 
ATOM     31  C   UNL     1       0.388  -0.148  -0.963  0.00  0.00    +0.110 C 
ENDBRANCH   1  31
BRANCH  19  32
ATOM     32  C   UNL     1      -3.881   1.072  -2.211  0.00  0.00    +0.102 C 
ATOM     33  N   UNL     1      -3.643   2.171  -2.374  0.00  0.00    -0.191 NA
ENDBRANCH  19  32
TORSDOF 4
