REMARK  Name = ZINC07113688
REMARK  5 active torsions:
REMARK  status: ('A' for Active; 'I' for Inactive)
REMARK    1  A    between atoms: C_1  and  C_2
REMARK    2  A    between atoms: C_5  and  C_8
REMARK    3  A    between atoms: C_12  and  S_14
REMARK    4  A    between atoms: S_14  and  C_15
REMARK    5  A    between atoms: C_15  and  C_16
REMARK                            x       y       z     vdW  Elec       q    Type
REMARK                         _______ _______ _______ _____ _____    ______ ____
ROOT
ATOM      1  S   UNL     1       0.102  -7.697   1.778  0.00  0.00    -0.079 S 
ENDROOT
BRANCH   1   6
ATOM      2  C   UNL     1       0.058  -4.256  -0.021  0.00  0.00    +0.182 A 
ATOM      3  N   UNL     1       0.068  -5.014  -1.094  0.00  0.00    -0.152 NA
ATOM      4  H   UNL     1       0.096  -7.142  -1.209  0.00  0.00    +0.191 HD
ATOM      5  N   UNL     1       0.085  -6.347  -0.653  0.00  0.00    -0.253 N 
ATOM      6  C   UNL     1       0.085  -6.304   0.698  0.00  0.00    +0.185 A 
ATOM      7  N   UNL     1       0.074  -5.042   1.065  0.00  0.00    -0.201 NA
BRANCH   2  12
ATOM      8  C   UNL     1      -0.018   1.503   0.010  0.00  0.00    +0.044 C 
ATOM      9  C   UNL     1       0.002  -0.004   0.002  0.00  0.00    -0.050 A 
ATOM     10  C   UNL     1       0.006  -0.686  -1.201  0.00  0.00    +0.004 A 
ATOM     11  C   UNL     1       0.024  -2.067  -1.215  0.00  0.00    +0.012 A 
ATOM     12  C   UNL     1       0.039  -2.772  -0.013  0.00  0.00    +0.021 A 
ATOM     13  C   UNL     1       0.036  -2.080   1.196  0.00  0.00    +0.012 A 
ATOM     14  C   UNL     1       0.023  -0.700   1.198  0.00  0.00    +0.004 A 
ENDBRANCH   2  12
ENDBRANCH   1   6
BRANCH   1  15
ATOM     15  C   UNL     1       0.092  -6.965   3.437  0.00  0.00    +0.153 C 
BRANCH  15  16
ATOM     16  C   UNL     1       0.106  -8.062   4.470  0.00  0.00    +0.146 A 
ATOM     17  N   UNL     1      -1.033  -8.560   4.918  0.00  0.00    -0.199 NA
ATOM     18  C   UNL     1      -1.025  -9.530   5.829  0.00  0.00    +0.217 A 
ATOM     19  N   UNL     1       0.131  -9.997   6.290  0.00  0.00    -0.181 NA
ATOM     20  C   UNL     1       1.274  -9.493   5.838  0.00  0.00    +0.217 A 
ATOM     21  N   UNL     1       1.258  -8.527   4.922  0.00  0.00    -0.199 NA
ATOM     22  N   UNL     1       2.477  -9.975   6.313  0.00  0.00    -0.327 N 
ATOM     23  N   UNL     1      -2.215 -10.050   6.296  0.00  0.00    -0.327 N 
ATOM     24  H   UNL     1       2.488 -10.681   6.977  0.00  0.00    +0.145 HD
ATOM     25  H   UNL     1       3.311  -9.607   5.982  0.00  0.00    +0.145 HD
ATOM     26  H   UNL     1      -3.058  -9.708   5.960  0.00  0.00    +0.145 HD
ATOM     27  H   UNL     1      -2.208 -10.756   6.961  0.00  0.00    +0.145 HD
ENDBRANCH  15  16
ENDBRANCH   1  15
TORSDOF 4
