REMARK  Name = ZINC09433320
REMARK  13 active torsions:
REMARK  status: ('A' for Active; 'I' for Inactive)
REMARK    1  A    between atoms: C_1  and  C_2
REMARK    2  A    between atoms: C_2  and  C_3
REMARK    3  A    between atoms: C_2  and  C_4
REMARK    4  A    between atoms: C_4  and  N_5
REMARK    5  A    between atoms: C_6  and  C_35
REMARK    6  A    between atoms: C_8  and  C_18
REMARK    7  A    between atoms: N_20  and  C_21
REMARK    8  A    between atoms: C_21  and  C_22
REMARK    9  A    between atoms: C_22  and  C_23
REMARK   10  A    between atoms: C_23  and  N_77
REMARK   11  A    between atoms: C_24  and  C_25
REMARK   12  A    between atoms: C_24  and  N_77
REMARK   13  A    between atoms: C_30  and  N_77
REMARK                            x       y       z     vdW  Elec       q    Type
REMARK                         _______ _______ _______ _____ _____    ______ ____
ROOT
ATOM      1  N   UNL     1      -8.746   5.879   5.871  0.00  0.00    -0.289 N 
ATOM      2  C   UNL     1      -7.431   6.465   6.120  0.00  0.00    +0.129 C 
ATOM      3  C   UNL     1      -6.366   5.380   6.259  0.00  0.00    +0.131 C 
ATOM      4  C   UNL     1      -6.815   4.338   7.249  0.00  0.00    -0.021 A 
ATOM      5  C   UNL     1      -5.901   3.689   8.050  0.00  0.00    +0.005 A 
ATOM      6  C   UNL     1      -6.328   2.723   8.945  0.00  0.00    +0.000 A 
ATOM      7  C   UNL     1      -7.671   2.401   9.040  0.00  0.00    +0.001 A 
ATOM      8  C   UNL     1      -8.597   3.049   8.247  0.00  0.00    +0.013 A 
ATOM      9  C   UNL     1      -8.172   4.027   7.351  0.00  0.00    +0.041 A 
ATOM     10  C   UNL     1      -9.142   4.764   6.514  0.00  0.00    +0.247 C 
ATOM     11  O   UNL     1     -10.287   4.368   6.407  0.00  0.00    -0.270 OA
ENDROOT
BRANCH   2  12
ATOM     12  C   UNL     1      -7.482   7.275   7.390  0.00  0.00    +0.011 A 
ATOM     13  C   UNL     1      -6.933   8.486   7.654  0.00  0.00    +0.013 A 
ATOM     14  C   UNL     1      -7.112   9.045   8.905  0.00  0.00    +0.008 A 
ATOM     15  C   UNL     1      -7.832   8.366   9.831  0.00  0.00    +0.045 A 
ATOM     16  S   UNL     1      -8.289   6.891   8.936  0.00  0.00    -0.100 S 
ENDBRANCH   2  12
BRANCH   3  17
ATOM     17  C   UNL     1      -6.136   4.731   4.919  0.00  0.00    +0.223 C 
ATOM     18  O   UNL     1      -6.772   5.093   3.952  0.00  0.00    -0.275 OA
ATOM     19  N   UNL     1      -5.223   3.747   4.795  0.00  0.00    -0.315 N 
ATOM     20  H   UNL     1      -4.714   3.457   5.568  0.00  0.00    +0.149 HD
BRANCH  19  21
ATOM     21  C   UNL     1      -4.999   3.116   3.492  0.00  0.00    +0.102 C 
BRANCH  21  22
ATOM     22  C   UNL     1      -3.921   2.039   3.626  0.00  0.00    +0.000 C 
BRANCH  22  23
ATOM     23  C   UNL     1      -3.687   1.380   2.265  0.00  0.00    -0.076 C 
BRANCH  23  24
ATOM     24  N   UNL     1      -2.519   0.479   2.364  0.00  0.00    +0.386 N 
ATOM     25  H   UNL     1      -1.710   1.017   2.695  0.00  0.00    -0.081 HD
BRANCH  24  26
ATOM     26  C   UNL     1      -2.800  -0.608   3.326  0.00  0.00    -0.068 C 
ATOM     27  C   UNL     1      -4.320  -0.806   3.503  0.00  0.00    -0.015 C 
ATOM     28  C   UNL     1      -4.489  -1.120   5.010  0.00  0.00    -0.002 C 
ATOM     29  C   UNL     1      -3.446  -0.186   5.673  0.00  0.00    -0.002 C 
ATOM     30  C   UNL     1      -2.245  -0.213   4.706  0.00  0.00    -0.015 C 
ENDBRANCH  24  26
BRANCH  24  31
ATOM     31  C   UNL     1      -2.207  -0.091   1.036  0.00  0.00    -0.003 C 
BRANCH  31  32
ATOM     32  C   UNL     1      -0.826  -0.693   1.081  0.00  0.00    +0.089 A 
ATOM     33  C   UNL     1      -0.541  -1.991   1.292  0.00  0.00    +0.042 A 
ATOM     34  C   UNL     1       0.867  -2.113   1.247  0.00  0.00    +0.041 A 
ATOM     35  C   UNL     1       1.358  -0.883   1.011  0.00  0.00    +0.195 A 
ATOM     36  O   UNL     1       0.328  -0.027   0.912  0.00  0.00    -0.470 OA
ENDBRANCH  31  32
ENDBRANCH  24  31
ENDBRANCH  23  24
ENDBRANCH  22  23
ENDBRANCH  21  22
ENDBRANCH  19  21
ENDBRANCH   3  17
BRANCH   1  37
ATOM     37  C   UNL     1      -9.647   6.514   4.906  0.00  0.00    +0.111 C 
BRANCH  37  39
ATOM     38  C   UNL     1      -9.556   4.516   3.409  0.00  0.00    +0.009 C 
ATOM     39  C   UNL     1      -9.312   6.024   3.496  0.00  0.00    +0.000 C 
ATOM     40  C   UNL     1     -10.202   6.744   2.481  0.00  0.00    +0.009 C 
ENDBRANCH  37  39
ENDBRANCH   1  37
TORSDOF 11
