REMARK  Name = ZINC04149595
REMARK  6 active torsions:
REMARK  status: ('A' for Active; 'I' for Inactive)
REMARK    1  A    between atoms: C_1  and  N_2
REMARK    2  A    between atoms: C_9  and  C_22
REMARK    3  A    between atoms: C_11  and  C_18
REMARK    4  A    between atoms: C_11  and  C_20
REMARK    5  A    between atoms: C_12  and  N_17
REMARK    6  A    between atoms: C_13  and  C_14
REMARK                            x       y       z     vdW  Elec       q    Type
REMARK                         _______ _______ _______ _____ _____    ______ ____
ROOT
ATOM      1  C   UNL     1       0.083   2.670   3.640  0.00  0.00    -0.096 C 
ATOM      2  N   UNL     1       0.678   2.207   2.379  0.00  0.00    +0.381 N 
ATOM      3  C   UNL     1       1.682   3.166   1.886  0.00  0.00    -0.051 C 
ATOM      4  C   UNL     1       2.357   2.547   0.687  0.00  0.00    -0.041 C 
ATOM      5  C   UNL     1       1.683   1.741  -0.110  0.00  0.00    -0.035 C 
ATOM      6  C   UNL     1       0.225   1.433   0.079  0.00  0.00    +0.013 C 
ATOM      7  C   UNL     1      -0.354   1.987   1.362  0.00  0.00    -0.070 C 
ATOM      8  C   UNL     1       0.041  -0.083  -0.021  0.00  0.00    +0.065 C 
ATOM      9  C   UNL     1       0.438  -0.539  -1.425  0.00  0.00    +0.188 C 
ATOM     10  C   UNL     1       1.788  -0.020  -1.817  0.00  0.00    +0.051 C 
ATOM     11  C   UNL     1       2.381   1.050  -1.224  0.00  0.00    +0.085 C 
ATOM     12  H   UNL     1       1.175   1.247   2.579  0.00  0.00    -0.082 HD
ENDROOT
BRANCH   8  13
ATOM     13  C   UNL     1       0.917  -0.765   0.997  0.00  0.00    -0.038 A 
ATOM     14  C   UNL     1       2.233  -1.087   0.700  0.00  0.00    +0.024 A 
ATOM     15  C   UNL     1       3.008  -1.709   1.661  0.00  0.00    +0.111 A 
ATOM     16  N   UNL     1       2.506  -2.005   2.844  0.00  0.00    -0.263 NA
ATOM     17  C   UNL     1       1.258  -1.718   3.160  0.00  0.00    +0.111 A 
ATOM     18  C   UNL     1       0.425  -1.092   2.252  0.00  0.00    +0.024 A 
ENDBRANCH   8  13
BRANCH  11  19
ATOM     19  C   UNL     1       3.694   1.515  -1.676  0.00  0.00    +0.388 C 
ATOM     20  O   UNL     1       3.778   2.487  -2.402  0.00  0.00    -0.241 OA
ATOM     21  O   UNL     1       4.811   0.865  -1.288  0.00  0.00    -0.241 OA
ENDBRANCH  11  19
BRANCH  10  22
ATOM     22  N   UNL     1       2.457  -0.654  -2.821  0.00  0.00    -0.359 N 
ATOM     23  H   UNL     1       3.450  -0.297  -3.132  0.00  0.00    +0.142 HD
ATOM     24  H   UNL     1       2.003  -1.522  -3.322  0.00  0.00    +0.142 HD
ENDBRANCH  10  22
BRANCH   9  25
ATOM     25  C   UNL     1       0.459  -2.010  -1.464  0.00  0.00    +0.091 C 
ATOM     26  N   UNL     1       0.475  -3.146  -1.494  0.00  0.00    -0.194 NA
ENDBRANCH   9  25
BRANCH   9  27
ATOM     27  C   UNL     1      -0.561  -0.048  -2.389  0.00  0.00    +0.091 C 
ATOM     28  N   UNL     1      -1.332   0.330  -3.133  0.00  0.00    -0.194 NA
ENDBRANCH   9  27
TORSDOF 5
