REMARK  Name = ZINC09975231
REMARK  7 active torsions:
REMARK  status: ('A' for Active; 'I' for Inactive)
REMARK    1  A    between atoms: C_8  and  N_11
REMARK    2  A    between atoms: N_11  and  N_12
REMARK    3  A    between atoms: N_21  and  C1*_22
REMARK    4  A    between atoms: C2*_24  and  O2*_34
REMARK    5  A    between atoms: C3*_26  and  O3*_33
REMARK    6  A    between atoms: C4*_28  and  C5*_31
REMARK    7  A    between atoms: C5*_31  and  O5*_32
REMARK                            x       y       z     vdW  Elec       q    Type
REMARK                         _______ _______ _______ _____ _____    ______ ____
ROOT
ATOM      1  N   UNL     1      -0.626  -2.934  -0.295  0.00  0.00    -0.236 N 
ATOM      2  C   UNL     1      -1.377  -4.092  -0.288  0.00  0.00    +0.217 A 
ATOM      3  N   UNL     1      -0.890  -5.306  -0.230  0.00  0.00    -0.208 NA
ATOM      4  C   UNL     1      -1.909  -6.202  -0.242  0.00  0.00    +0.149 A 
ATOM      5  C   UNL     1      -1.989  -7.604  -0.200  0.00  0.00    +0.147 A 
ATOM      6  N   UNL     1      -3.190  -8.171  -0.231  0.00  0.00    -0.219 NA
ATOM      7  C   UNL     1      -4.289  -7.442  -0.298  0.00  0.00    +0.225 A 
ATOM      8  N   UNL     1      -4.262  -6.126  -0.339  0.00  0.00    -0.216 NA
ATOM      9  C   UNL     1      -3.106  -5.471  -0.314  0.00  0.00    +0.169 A 
ATOM     10  N   UNL     1      -2.743  -4.144  -0.336  0.00  0.00    -0.266 N 
ATOM     11  N   UNL     1      -0.841  -8.377  -0.130  0.00  0.00    -0.341 N 
ATOM     12  H   UNL     1      -1.066  -2.070  -0.264  0.00  0.00    +0.173 HD
ATOM     13  H   UNL     1       0.030  -7.952  -0.108  0.00  0.00    +0.144 HD
ATOM     14  H   UNL     1      -0.909  -9.344  -0.101  0.00  0.00    +0.144 HD
ENDROOT
BRANCH  10  15
ATOM     15  C1* UNL     1      -3.653  -2.998  -0.401  0.00  0.00    +0.255 C 
ATOM     16  C2* UNL     1      -3.533  -2.283  -1.772  0.00  0.00    +0.195 C 
ATOM     17  C3* UNL     1      -4.012  -0.851  -1.433  0.00  0.00    +0.178 C 
ATOM     18  C4* UNL     1      -3.832  -0.743   0.093  0.00  0.00    +0.177 C 
ATOM     19  O4* UNL     1      -3.261  -1.983   0.547  0.00  0.00    -0.346 OA
BRANCH  17  20
ATOM     20  O3* UNL     1      -3.205   0.119  -2.105  0.00  0.00    -0.386 OA
ATOM     21  H3* UNL     1      -3.461   1.034  -1.928  0.00  0.00    +0.210 HD
ENDBRANCH  17  20
BRANCH  16  22
ATOM     22  O2* UNL     1      -4.388  -2.892  -2.741  0.00  0.00    -0.385 OA
ATOM     23  H2* UNL     1      -4.348  -2.480  -3.615  0.00  0.00    +0.210 HD
ENDBRANCH  16  22
BRANCH  18  24
ATOM     24  C5* UNL     1      -2.895   0.420   0.426  0.00  0.00    +0.190 C 
BRANCH  24  25
ATOM     25  O5* UNL     1      -2.816   0.578   1.844  0.00  0.00    -0.392 OA
ATOM     26  H5* UNL     1      -2.238   1.299   2.128  0.00  0.00    +0.210 HD
ENDBRANCH  24  25
ENDBRANCH  18  24
ENDBRANCH  10  15
BRANCH   1  27
ATOM     27  N   UNL     1       0.772  -3.007  -0.348  0.00  0.00    -0.259 N 
ATOM     28  H   UNL     1       1.233  -2.878  -1.191  0.00  0.00    +0.170 HD
BRANCH  27  36
ATOM     29  C   UNL     1      -0.476  -3.412   4.003  0.00  0.00    +0.001 A 
ATOM     30  C   UNL     1       0.614  -3.671   4.819  0.00  0.00    +0.002 A 
ATOM     31  C   UNL     1       1.889  -3.779   4.289  0.00  0.00    +0.024 A 
ATOM     32  C   UNL     1       2.092  -3.625   2.920  0.00  0.00    +0.043 A 
ATOM     33  N   UNL     1       3.223  -3.682   2.160  0.00  0.00    -0.280 N 
ATOM     34  C   UNL     1       2.953  -3.474   0.884  0.00  0.00    +0.264 C 
ATOM     35  O   UNL     1       3.758  -3.465  -0.030  0.00  0.00    -0.268 OA
ATOM     36  C   UNL     1       1.470  -3.252   0.764  0.00  0.00    +0.116 C 
ATOM     37  C   UNL     1       0.975  -3.359   2.086  0.00  0.00    +0.024 A 
ATOM     38  C   UNL     1      -0.306  -3.255   2.642  0.00  0.00    +0.012 A 
ATOM     39  H   UNL     1       4.111  -3.851   2.511  0.00  0.00    +0.155 HD
ENDBRANCH  27  36
ENDBRANCH   1  27
TORSDOF 7
