REMARK  Name = ZINC15980332
REMARK  5 active torsions:
REMARK  status: ('A' for Active; 'I' for Inactive)
REMARK    1  A    between atoms: C_1  and  C_2
REMARK    2  A    between atoms: C_5  and  O_23
REMARK    3  A    between atoms: C_6  and  C_8
REMARK    4  A    between atoms: C_8  and  C_10
REMARK    5  A    between atoms: C_20  and  C_22
REMARK                            x       y       z     vdW  Elec       q    Type
REMARK                         _______ _______ _______ _____ _____    ______ ____
ROOT
ATOM      1  C   UNL     1       1.866  -4.147  -0.137  0.00  0.00    +0.060 A 
ATOM      2  C   UNL     1       0.456  -4.118  -0.020  0.00  0.00    +0.146 A 
ATOM      3  N   UNL     1       0.064  -2.881  -0.144  0.00  0.00    -0.172 NA
ATOM      4  N   UNL     1       1.184  -2.068  -0.354  0.00  0.00    -0.206 N 
ATOM      5  C   UNL     1       2.285  -2.848  -0.344  0.00  0.00    +0.129 A 
ATOM      6  C   UNL     1       1.166  -0.696  -0.534  0.00  0.00    +0.232 A 
ATOM      7  N   UNL     1      -0.022  -0.037  -0.519  0.00  0.00    -0.173 NA
ATOM      8  C   UNL     1      -0.049   1.302  -0.694  0.00  0.00    +0.275 A 
ATOM      9  O   UNL     1      -1.107   1.909  -0.689  0.00  0.00    -0.266 OA
ATOM     10  C   UNL     1       1.169   1.983  -0.888  0.00  0.00    +0.093 A 
ATOM     11  C   UNL     1       2.329   1.266  -0.893  0.00  0.00    +0.021 A 
ATOM     12  N   UNL     1       2.299  -0.054  -0.716  0.00  0.00    -0.328 N 
ATOM     13  C   UNL     1       3.646   1.968  -1.099  0.00  0.00    +0.063 C 
ATOM     14  H   UNL     1       3.249  -0.608  -0.724  0.00  0.00    +0.168 HD
ENDROOT
BRANCH   1  15
ATOM     15  C   UNL     1       2.727  -5.341  -0.053  0.00  0.00    +0.200 C 
ATOM     16  O   UNL     1       3.937  -5.221  -0.074  0.00  0.00    -0.286 OA
BRANCH  15  22
ATOM     17  C   UNL     1       1.540  -9.324   2.702  0.00  0.00    +0.044 C 
ATOM     18  C   UNL     1       1.546  -8.603   1.379  0.00  0.00    -0.050 A 
ATOM     19  C   UNL     1       0.981  -9.201   0.264  0.00  0.00    +0.007 A 
ATOM     20  C   UNL     1       0.981  -8.551  -0.954  0.00  0.00    +0.046 A 
ATOM     21  C   UNL     1       1.548  -7.290  -1.069  0.00  0.00    +0.128 A 
ATOM     22  C   UNL     1       2.120  -6.681   0.057  0.00  0.00    +0.064 A 
ATOM     23  C   UNL     1       2.118  -7.353   1.282  0.00  0.00    +0.018 A 
BRANCH  21  24
ATOM     24  O   UNL     1       1.549  -6.651  -2.265  0.00  0.00    -0.506 OA
ATOM     25  H   UNL     1       2.000  -5.651  -2.353  0.00  0.00    +0.292 HD
ENDBRANCH  21  24
ENDBRANCH  15  22
ENDBRANCH   1  15
TORSDOF 3
