REMARK  Name = ZINC04229708
REMARK  6 active torsions:
REMARK  status: ('A' for Active; 'I' for Inactive)
REMARK    1  A    between atoms: C_6  and  C_7
REMARK    2  A    between atoms: C_10  and  C_12
REMARK    3  A    between atoms: N_13  and  N_14
REMARK    4  A    between atoms: C_15  and  C_17
REMARK    5  A    between atoms: N_19  and  C_20
REMARK    6  A    between atoms: C_21  and  C_29
REMARK                            x       y       z     vdW  Elec       q    Type
REMARK                         _______ _______ _______ _____ _____    ______ ____
ROOT
ATOM      1  N   UNL     1      -6.772   0.321   0.052  0.00  0.00    -0.199 N 
ATOM      2  C   UNL     1      -7.302   1.560   0.058  0.00  0.00    +0.318 C 
ATOM      3  O   UNL     1      -6.574   2.533   0.054  0.00  0.00    -0.263 OA
ATOM      4  H   UNL     1      -7.353  -0.455   0.056  0.00  0.00    +0.178 HD
ENDROOT
BRANCH   2   5
ATOM      5  C   UNL     1      -8.780   1.737   0.069  0.00  0.00    +0.305 C 
ATOM      6  O   UNL     1      -9.508   0.765   0.073  0.00  0.00    -0.265 OA
ATOM      7  N   UNL     1      -9.311   2.976   0.074  0.00  0.00    -0.271 N 
ATOM      8  H   UNL     1      -8.729   3.753   0.071  0.00  0.00    +0.156 HD
BRANCH   7   9
ATOM      9  C   UNL     1     -10.686   3.141   0.085  0.00  0.00    +0.090 A 
ATOM     10  C   UNL     1     -11.423   4.319   0.086  0.00  0.00    +0.084 A 
ATOM     11  C   UNL     1     -12.871   4.213   0.098  0.00  0.00    -0.018 A 
ATOM     12  C   UNL     1     -13.379   2.959   0.107  0.00  0.00    -0.004 A 
ATOM     13  S   UNL     1     -11.962   1.895   0.092  0.00  0.00    -0.077 S 
ATOM     14  C   UNL     1     -14.824   2.566   0.122  0.00  0.00    +0.043 C 
ATOM     15  C   UNL     1     -15.658   3.799   0.500  0.00  0.00    +0.005 C 
ATOM     16  C   UNL     1     -15.190   4.986  -0.347  0.00  0.00    +0.005 C 
ATOM     17  C   UNL     1     -13.796   5.427   0.100  0.00  0.00    +0.037 C 
BRANCH  10  18
ATOM     18  C   UNL     1     -10.776   5.596   0.076  0.00  0.00    +0.102 C 
ATOM     19  N   UNL     1     -10.262   6.609   0.068  0.00  0.00    -0.191 NA
ENDBRANCH  10  18
ENDBRANCH   7   9
ENDBRANCH   2   5
BRANCH   1  21
ATOM     20  C   UNL     1      -4.868  -1.044   0.037  0.00  0.00    +0.176 C 
ATOM     21  N   UNL     1      -5.381   0.155   0.042  0.00  0.00    -0.184 NA
BRANCH  20  25
ATOM     22  C   UNL     1      -1.264  -0.763   0.011  0.00  0.00    +0.136 A 
ATOM     23  C   UNL     1      -1.377  -2.122   0.010  0.00  0.00    +0.050 A 
ATOM     24  C   UNL     1      -2.744  -2.422   0.020  0.00  0.00    +0.051 A 
ATOM     25  C   UNL     1      -3.416  -1.218   0.026  0.00  0.00    +0.148 A 
ATOM     26  O   UNL     1      -2.499  -0.228   0.026  0.00  0.00    -0.454 OA
BRANCH  22  32
ATOM     27  C   UNL     1      -0.017   1.393   0.010  0.00  0.00    +0.012 A 
ATOM     28  C   UNL     1       1.170   2.095   0.002  0.00  0.00    +0.016 A 
ATOM     29  C   UNL     1       2.378   1.419  -0.013  0.00  0.00    +0.018 A 
ATOM     30  C   UNL     1       2.404   0.035  -0.021  0.00  0.00    +0.016 A 
ATOM     31  C   UNL     1       1.225  -0.680  -0.014  0.00  0.00    +0.012 A 
ATOM     32  C   UNL     1       0.002  -0.004   0.002  0.00  0.00    +0.017 A 
ATOM     33 BR   UNL     1       4.000   2.391  -0.023  0.00  0.00    -0.050 Br
ENDBRANCH  22  32
ENDBRANCH  20  25
ENDBRANCH   1  21
TORSDOF 6
