REMARK  Name = ZINC04453526
REMARK  6 active torsions:
REMARK  status: ('A' for Active; 'I' for Inactive)
REMARK    1  A    between atoms: C_4  and  C_7
REMARK    2  A    between atoms: C_7  and  N_48
REMARK    3  A    between atoms: C_14  and  C_26
REMARK    4  A    between atoms: C_16  and  C_22
REMARK    5  A    between atoms: C_16  and  C_24
REMARK    6  A    between atoms: C_18  and  C_19
REMARK                            x       y       z     vdW  Elec       q    Type
REMARK                         _______ _______ _______ _____ _____    ______ ____
ROOT
ATOM      1  C   UNL     1       3.673   2.388   0.329  0.00  0.00    -0.051 C 
ATOM      2  C   UNL     1       2.392   1.593   0.279  0.00  0.00    -0.044 C 
ATOM      3  C   UNL     1       1.252   2.197  -0.003  0.00  0.00    -0.051 C 
ATOM      4  C   UNL     1       1.163   3.658  -0.337  0.00  0.00    +0.013 C 
ATOM      5  C   UNL     1       2.452   4.417  -0.124  0.00  0.00    -0.069 C 
ATOM      6  C   UNL     1       0.003   4.258   0.460  0.00  0.00    +0.100 C 
ATOM      7  C   UNL     1      -1.300   3.594   0.007  0.00  0.00    +0.191 C 
ATOM      8  C   UNL     1      -1.197   2.099   0.019  0.00  0.00    +0.065 C 
ATOM      9  C   UNL     1      -0.017   1.428   0.005  0.00  0.00    +0.163 C 
ATOM     10  N   UNL     1      -2.354   1.373   0.046  0.00  0.00    -0.304 NA
ATOM     11  H   UNL     1      -2.318   0.403   0.058  0.00  0.00    +0.186 HD
ATOM     12  N   UNL     1       3.327   3.731   0.840  0.00  0.00    +0.385 N 
ATOM     13  H   UNL     1       2.829   3.632   1.733  0.00  0.00    -0.081 HD
ENDROOT
BRANCH   6  14
ATOM     14  C   UNL     1       0.218   4.006   1.930  0.00  0.00    +0.111 A 
ATOM     15  C   UNL     1       0.340   4.951   2.880  0.00  0.00    +0.045 A 
ATOM     16  C   UNL     1       0.525   4.275   4.108  0.00  0.00    +0.041 A 
ATOM     17  C   UNL     1       0.513   2.958   3.834  0.00  0.00    +0.195 A 
ATOM     18  O   UNL     1       0.327   2.801   2.513  0.00  0.00    -0.467 OA
ENDBRANCH   6  14
BRANCH   9  19
ATOM     19  C   UNL     1       0.002  -0.004  -0.008  0.00  0.00    +0.076 C 
ATOM     20  N   UNL     1       0.017  -1.140  -0.018  0.00  0.00    -0.196 NA
ENDBRANCH   9  19
BRANCH   7  21
ATOM     21  C   UNL     1      -2.386   4.011   0.909  0.00  0.00    +0.091 C 
ATOM     22  N   UNL     1      -3.224   4.332   1.605  0.00  0.00    -0.195 NA
ENDBRANCH   7  21
BRANCH   7  23
ATOM     23  C   UNL     1      -1.619   4.037  -1.360  0.00  0.00    +0.091 C 
ATOM     24  N   UNL     1      -1.865   4.379  -2.416  0.00  0.00    -0.195 NA
ENDBRANCH   7  23
BRANCH  12  25
ATOM     25  C   UNL     1       4.558   4.524   1.060  0.00  0.00    -0.043 C 
BRANCH  25  29
ATOM     26  C   UNL     1       6.775   2.786   4.271  0.00  0.00    +0.000 A 
ATOM     27  C   UNL     1       7.012   2.383   2.970  0.00  0.00    +0.000 A 
ATOM     28  C   UNL     1       6.295   2.946   1.931  0.00  0.00    +0.002 A 
ATOM     29  C   UNL     1       5.340   3.911   2.192  0.00  0.00    -0.064 A 
ATOM     30  C   UNL     1       5.107   4.318   3.493  0.00  0.00    +0.002 A 
ATOM     31  C   UNL     1       5.821   3.751   4.533  0.00  0.00    +0.000 A 
ENDBRANCH  25  29
ENDBRANCH  12  25
TORSDOF 6
