REMARK  Name = ZINC06291843
REMARK  7 active torsions:
REMARK  status: ('A' for Active; 'I' for Inactive)
REMARK    1  A    between atoms: C_1  and  C_2
REMARK    2  A    between atoms: C_3  and  C_23
REMARK    3  A    between atoms: C_11  and  C_13
REMARK    4  A    between atoms: C_13  and  C_15
REMARK    5  A    between atoms: C_13  and  O_16
REMARK    6  A    between atoms: O_16  and  C_17
REMARK    7  A    between atoms: C_17  and  C_19
REMARK                            x       y       z     vdW  Elec       q    Type
REMARK                         _______ _______ _______ _____ _____    ______ ____
ROOT
ATOM      1  C   UNL     1       4.026  -1.944  -0.047  0.00  0.00    +0.045 C 
ATOM      2  C   UNL     1       3.758  -0.461  -0.037  0.00  0.00    -0.026 A 
ATOM      3  C   UNL     1       4.777   0.414  -0.042  0.00  0.00    -0.008 A 
ATOM      4  S   UNL     1       3.960   1.999  -0.025  0.00  0.00    -0.073 S 
ATOM      5  C   UNL     1       2.276   1.440  -0.012  0.00  0.00    +0.116 A 
ATOM      6  C   UNL     1       2.396   0.039  -0.021  0.00  0.00    +0.075 A 
ATOM      7  C   UNL     1       1.161  -0.688  -0.013  0.00  0.00    +0.260 A 
ATOM      8  O   UNL     1       1.160  -1.907  -0.020  0.00  0.00    -0.267 OA
ATOM      9  N   UNL     1       0.002  -0.004   0.002  0.00  0.00    -0.307 N 
ATOM     10  H   UNL     1      -0.863  -0.506   0.007  0.00  0.00    +0.170 HD
ATOM     11  C   UNL     1      -0.016   1.354   0.009  0.00  0.00    +0.152 A 
ATOM     12  N   UNL     1       1.092   2.045   0.003  0.00  0.00    -0.223 NA
ATOM     13  C   UNL     1       6.256   0.125  -0.058  0.00  0.00    +0.052 C 
ENDROOT
BRANCH  11  14
ATOM     14  C   UNL     1      -1.339   2.076   0.020  0.00  0.00    +0.239 C 
ATOM     15  C   UNL     1      -1.121   3.545  -0.347  0.00  0.00    +0.060 C 
BRANCH  14  16
ATOM     16  O   UNL     1      -1.927   1.990   1.344  0.00  0.00    -0.454 OA
BRANCH  16  17
ATOM     17  C   UNL     1      -3.268   1.996   1.417  0.00  0.00    +0.311 C 
ATOM     18  O   UNL     1      -3.927   2.071   0.408  0.00  0.00    -0.251 OA
BRANCH  17  19
ATOM     19  C   UNL     1      -3.950   1.909   2.758  0.00  0.00    +0.098 C 
ATOM     20  C   UNL     1      -4.076   0.473   3.294  0.00  0.00    +0.015 C 
ATOM     21  C   UNL     1      -5.482   0.862   3.779  0.00  0.00    +0.002 C 
ATOM     22  C   UNL     1      -5.485   1.928   2.671  0.00  0.00    +0.015 C 
ENDBRANCH  17  19
ENDBRANCH  16  17
ENDBRANCH  14  16
ENDBRANCH  11  14
TORSDOF 4
