REMARK  Name = ZINC58865918
REMARK  3 active torsions:
REMARK  status: ('A' for Active; 'I' for Inactive)
REMARK    1  A    between atoms: C_3  and  O_23
REMARK    2  A    between atoms: C_4  and  C_10
REMARK    3  A    between atoms: C_6  and  N_7
REMARK                            x       y       z     vdW  Elec       q    Type
REMARK                         _______ _______ _______ _____ _____    ______ ____
ROOT
ATOM      1  C   UNL     1       3.683  -0.684  -0.038  0.00  0.00    +0.033 C 
ATOM      2  C   UNL     1       3.706  -2.061   0.059  0.00  0.00    +0.144 C 
ATOM      3  C   UNL     1       2.470  -2.891   0.067  0.00  0.00    +0.349 C 
ATOM      4  O   UNL     1       1.480  -2.596  -0.574  0.00  0.00    -0.245 OA
ATOM      5  O   UNL     1       2.532  -4.006   0.849  0.00  0.00    -0.418 OA
ATOM      6  C   UNL     1       3.732  -4.769   0.735  0.00  0.00    +0.260 C 
ATOM      7  C   UNL     1       3.715  -5.930   1.753  0.00  0.00    +0.093 C 
ATOM      8  C   UNL     1       4.678  -6.960   1.112  0.00  0.00    +0.008 C 
ATOM      9  C   UNL     1       4.396  -6.854  -0.401  0.00  0.00    +0.008 C 
ATOM     10  C   UNL     1       3.797  -5.455  -0.639  0.00  0.00    +0.093 C 
ATOM     11  O   UNL     1       4.888  -3.961   0.939  0.00  0.00    -0.418 OA
ATOM     12  C   UNL     1       4.968  -2.843   0.157  0.00  0.00    +0.349 C 
ATOM     13  O   UNL     1       5.989  -2.511  -0.413  0.00  0.00    -0.245 OA
ENDROOT
BRANCH   1  17
ATOM     14  C   UNL     1      -0.005   1.393   0.166  0.00  0.00    +0.036 A 
ATOM     15  C   UNL     1       1.004   1.876  -0.643  0.00  0.00    +0.048 A 
ATOM     16  C   UNL     1       2.216   1.207  -0.719  0.00  0.00    +0.124 A 
ATOM     17  C   UNL     1       2.410   0.033   0.032  0.00  0.00    +0.020 A 
ATOM     18  C   UNL     1       1.375  -0.444   0.849  0.00  0.00    +0.044 A 
ATOM     19  C   UNL     1       0.180   0.237   0.909  0.00  0.00    +0.127 A 
BRANCH  19  20
ATOM     20  N   UNL     1      -0.912  -0.268   1.771  0.00  0.00    +0.056 N 
ATOM     21  O   UNL     1      -1.963   0.328   1.825  0.00  0.00    -0.126 OA
ATOM     22  O   UNL     1      -0.754  -1.275   2.420  0.00  0.00    -0.126 OA
ENDBRANCH  19  20
BRANCH  16  23
ATOM     23  O   UNL     1       3.207   1.680  -1.514  0.00  0.00    -0.506 OA
ATOM     24  H   UNL     1       3.803   2.300  -1.072  0.00  0.00    +0.292 HD
ENDBRANCH  16  23
ENDBRANCH   1  17
TORSDOF 3
