REMARK  Name = ZINC20560250
REMARK  10 active torsions:
REMARK  status: ('A' for Active; 'I' for Inactive)
REMARK    1  A    between atoms: C_1  and  C_2
REMARK    2  A    between atoms: C_2  and  O_3
REMARK    3  A    between atoms: O_3  and  C_4
REMARK    4  A    between atoms: C_4  and  C_6
REMARK    5  A    between atoms: C_7  and  C_21
REMARK    6  A    between atoms: C_12  and  C_14
REMARK    7  A    between atoms: C_17  and  C_20
REMARK    8  A    between atoms: C_21  and  N_22
REMARK    9  A    between atoms: N_25  and  C_28
REMARK   10  A    between atoms: C_28  and  C_29
REMARK                            x       y       z     vdW  Elec       q    Type
REMARK                         _______ _______ _______ _____ _____    ______ ____
ROOT
ATOM      1  C   UNL     1       6.491   3.042   2.496  0.00  0.00    +0.079 C 
ATOM      2  C   UNL     1       5.608   4.038   2.271  0.00  0.00    +0.038 C 
ATOM      3  N   UNL     1       5.160   4.827   3.292  0.00  0.00    -0.271 N 
ATOM      4  C   UNL     1       5.539   4.677   4.568  0.00  0.00    +0.304 C 
ATOM      5  O   UNL     1       5.082   5.426   5.409  0.00  0.00    -0.252 OA
ATOM      6  N   UNL     1       6.415   3.727   4.948  0.00  0.00    -0.288 N 
ATOM      7  C   UNL     1       6.963   2.826   3.920  0.00  0.00    +0.144 C 
ATOM      8  H   UNL     1       4.447   5.640   3.087  0.00  0.00    +0.156 HD
ATOM      9  H   UNL     1       6.724   3.614   5.998  0.00  0.00    +0.151 HD
ENDROOT
BRANCH   7  10
ATOM     10  C   UNL     1       8.464   2.960   3.937  0.00  0.00    -0.022 A 
ATOM     11  C   UNL     1       9.046   4.213   3.946  0.00  0.00    +0.006 A 
ATOM     12  C   UNL     1      10.422   4.336   3.967  0.00  0.00    +0.004 A 
ATOM     13  C   UNL     1      11.217   3.205   3.969  0.00  0.00    -0.050 A 
ATOM     14  C   UNL     1      10.635   1.952   3.955  0.00  0.00    +0.004 A 
ATOM     15  C   UNL     1       9.259   1.829   3.939  0.00  0.00    +0.006 A 
ATOM     16  C   UNL     1      12.718   3.339   3.986  0.00  0.00    +0.044 C 
ENDBRANCH   7  10
BRANCH   1  17
ATOM     17  C   UNL     1       6.960   2.228   1.439  0.00  0.00    +0.339 C 
ATOM     18  O   UNL     1       6.499   1.113   1.278  0.00  0.00    -0.245 OA
BRANCH  17  19
ATOM     19  O   UNL     1       7.920   2.687   0.608  0.00  0.00    -0.462 OA
BRANCH  19  21
ATOM     20  C   UNL     1       9.430   2.501  -1.269  0.00  0.00    +0.048 C 
ATOM     21  C   UNL     1       8.346   1.812  -0.438  0.00  0.00    +0.229 C 
ENDBRANCH  19  21
ENDBRANCH  17  19
ENDBRANCH   1  17
BRANCH   2  22
ATOM     22  C   UNL     1       5.113   4.288   0.870  0.00  0.00    +0.135 C 
BRANCH  22  23
ATOM     23  N   UNL     1       3.669   4.028   0.807  0.00  0.00    -0.300 NA
ATOM     24  C   UNL     1       3.107   4.484  -0.472  0.00  0.00    +0.066 C 
ATOM     25  C   UNL     1       1.592   4.268  -0.467  0.00  0.00    -0.063 C 
ATOM     26  N   UNL     1       1.303   2.844  -0.246  0.00  0.00    +0.384 N 
ATOM     27  C   UNL     1       1.865   2.388   1.033  0.00  0.00    -0.063 C 
ATOM     28  C   UNL     1       3.380   2.604   1.027  0.00  0.00    +0.066 C 
ATOM     29  H   UNL     1       1.784   2.271  -1.052  0.00  0.00    -0.081 HD
BRANCH  26  30
ATOM     30  C   UNL     1      -0.141   2.583  -0.309  0.00  0.00    -0.043 C 
BRANCH  30  31
ATOM     31  C   UNL     1      -0.383   1.096  -0.325  0.00  0.00    -0.064 A 
ATOM     32  C   UNL     1      -0.448   0.419  -1.528  0.00  0.00    +0.002 A 
ATOM     33  C   UNL     1      -0.665  -0.946  -1.543  0.00  0.00    +0.000 A 
ATOM     34  C   UNL     1      -0.828  -1.633  -0.354  0.00  0.00    +0.000 A 
ATOM     35  C   UNL     1      -0.768  -0.955   0.849  0.00  0.00    +0.000 A 
ATOM     36  C   UNL     1      -0.546   0.409   0.864  0.00  0.00    +0.002 A 
ENDBRANCH  30  31
ENDBRANCH  26  30
ENDBRANCH  22  23
ENDBRANCH   2  22
TORSDOF 8
