REMARK  Name = ZINC43287292
REMARK  9 active torsions:
REMARK  status: ('A' for Active; 'I' for Inactive)
REMARK    1  A    between atoms: C_1  and  C_2
REMARK    2  A    between atoms: C_2  and  C_3
REMARK    3  A    between atoms: C_3  and  C_5
REMARK    4  A    between atoms: C_3  and  N_23
REMARK    5  A    between atoms: C_5  and  C_7
REMARK    6  A    between atoms: C_5  and  N_13
REMARK    7  A    between atoms: N_13  and  C_14
REMARK    8  A    between atoms: N_13  and  C_18
REMARK    9  A    between atoms: C_14  and  C_15
REMARK                            x       y       z     vdW  Elec       q    Type
REMARK                         _______ _______ _______ _____ _____    ______ ____
ROOT
ATOM      1  C   UNL     1       0.651  -1.647   1.393  0.00  0.00    -0.045 C 
ENDROOT
BRANCH   1   2
ATOM      2  C   UNL     1       1.190  -1.783  -0.008  0.00  0.00    -0.024 A 
ATOM      3  C   UNL     1       1.771  -0.843  -0.794  0.00  0.00    +0.024 A 
ATOM      4  C   UNL     1       2.195  -1.198  -2.061  0.00  0.00    +0.025 A 
ATOM      5  C   UNL     1       2.016  -2.475  -2.480  0.00  0.00    +0.060 A 
ATOM      6  S   UNL     1       1.235  -3.224  -1.060  0.00  0.00    -0.102 S 
ATOM      7 BR   UNL     1       3.010   0.078  -3.193  0.00  0.00    -0.050 Br
ENDBRANCH   1   2
BRANCH   1   8
ATOM      8  N   UNL     1      -0.648  -2.326   1.486  0.00  0.00    +0.391 N 
ATOM      9  H   UNL     1      -1.040  -2.177   2.404  0.00  0.00    -0.080 HD
BRANCH   8  10
ATOM     10  C   UNL     1      -0.465  -3.766   1.260  0.00  0.00    -0.067 C 
ATOM     11  C   UNL     1      -1.834  -4.447   1.055  0.00  0.00    -0.015 C 
ATOM     12  C   UNL     1      -1.685  -5.819   1.757  0.00  0.00    -0.002 C 
ATOM     13  C   UNL     1      -0.837  -5.473   3.006  0.00  0.00    -0.002 C 
ATOM     14  C   UNL     1       0.169  -4.419   2.501  0.00  0.00    -0.015 C 
ENDBRANCH   8  10
BRANCH   8  15
ATOM     15  C   UNL     1      -1.558  -1.783   0.470  0.00  0.00    +0.019 C 
BRANCH  15  16
ATOM     16  C   UNL     1      -2.980  -1.892   0.959  0.00  0.00    +0.194 C 
ATOM     17  O   UNL     1      -3.204  -2.263   2.091  0.00  0.00    -0.278 OA
ATOM     18  N   UNL     1      -4.001  -1.578   0.137  0.00  0.00    -0.331 N 
ATOM     19  H   UNL     1      -3.821  -1.282  -0.768  0.00  0.00    +0.145 HD
ATOM     20  H   UNL     1      -4.916  -1.649   0.452  0.00  0.00    +0.145 HD
ENDBRANCH  15  16
ENDBRANCH   8  15
ENDBRANCH   1   8
BRANCH   1  21
ATOM     21  C   UNL     1       1.632  -2.284   2.380  0.00  0.00    -0.085 C 
BRANCH  21  22
ATOM     22  N   UNL     1       2.977  -1.737   2.156  0.00  0.00    +0.379 N 
ATOM     23  H   UNL     1       3.623  -2.157   2.807  0.00  0.00    -0.090 HD
ATOM     24  H   UNL     1       3.270  -1.941   1.212  0.00  0.00    -0.090 HD
ATOM     25  H   UNL     1       2.961  -0.738   2.295  0.00  0.00    -0.090 HD
ENDBRANCH  21  22
BRANCH  21  27
ATOM     26  C   UNL     1       2.063  -2.752   4.796  0.00  0.00    +0.002 C 
ATOM     27  C   UNL     1       1.188  -1.975   3.811  0.00  0.00    -0.021 C 
ENDBRANCH  21  27
ENDBRANCH   1  21
TORSDOF 8
