REMARK  Name = ZINC63492853
REMARK  6 active torsions:
REMARK  status: ('A' for Active; 'I' for Inactive)
REMARK    1  A    between atoms: C_1  and  O_2
REMARK    2  A    between atoms: O_2  and  C_3
REMARK    3  A    between atoms: C_6  and  N_9
REMARK    4  A    between atoms: C_12  and  C_19
REMARK    5  A    between atoms: C_15  and  S_16
REMARK    6  A    between atoms: S_16  and  C_17
REMARK                            x       y       z     vdW  Elec       q    Type
REMARK                         _______ _______ _______ _____ _____    ______ ____
ROOT
ATOM      1  N   UNL     1      -4.891  -2.582   0.034  0.00  0.00    -0.256 N 
ATOM      2  C   UNL     1      -4.945  -3.927  -0.064  0.00  0.00    +0.268 A 
ATOM      3  O   UNL     1      -3.921  -4.584  -0.160  0.00  0.00    -0.267 OA
ATOM      4  C   UNL     1      -6.196  -4.555  -0.053  0.00  0.00    +0.103 A 
ATOM      5  C   UNL     1      -7.334  -3.773   0.058  0.00  0.00    +0.282 A 
ATOM      6  N   UNL     1      -7.221  -2.445   0.152  0.00  0.00    -0.184 NA
ATOM      7  C   UNL     1      -6.041  -1.858   0.147  0.00  0.00    +0.180 A 
ATOM      8  O   UNL     1      -8.557  -4.353   0.071  0.00  0.00    -0.265 OA
ENDROOT
BRANCH   4   9
ATOM      9  C   UNL     1      -6.302  -6.054  -0.160  0.00  0.00    +0.121 C 
ATOM     10  C   UNL     1      -5.659  -6.706   1.066  0.00  0.00    +0.128 C 
ATOM     11  C   UNL     1      -5.656  -8.207   0.799  0.00  0.00    -0.035 C 
ATOM     12  C   UNL     1      -6.255  -8.774   1.837  0.00  0.00    +0.001 A 
ATOM     13  C   UNL     1      -6.476 -10.185   2.192  0.00  0.00    +0.030 A 
ATOM     14  C   UNL     1      -7.154 -10.414   3.348  0.00  0.00    +0.042 A 
ATOM     15  C   UNL     1      -7.628  -9.391   4.177  0.00  0.00    +0.022 A 
ATOM     16  C   UNL     1      -7.465  -8.067   3.931  0.00  0.00    +0.027 A 
ATOM     17  C   UNL     1      -6.762  -7.701   2.746  0.00  0.00    +0.043 A 
ATOM     18  N   UNL     1      -6.443  -6.507   2.285  0.00  0.00    -0.376 N 
ATOM     19 CL   UNL     1      -7.446 -12.059   3.820  0.00  0.00    -0.084 Cl
ATOM     20  C   UNL     1      -5.129  -8.779  -0.495  0.00  0.00    +0.048 C 
ATOM     21  C   UNL     1      -5.766  -7.948  -1.624  0.00  0.00    +0.086 C 
ATOM     22  N   UNL     1      -5.587  -6.517  -1.360  0.00  0.00    -0.307 NA
ATOM     23  H   UNL     1      -5.839  -5.966  -2.167  0.00  0.00    +0.123 HD
ATOM     24  H   UNL     1      -6.682  -5.651   2.672  0.00  0.00    +0.160 HD
ENDBRANCH   4   9
BRANCH   1  28
ATOM     25  C   UNL     1      -1.200  -0.638   0.009  0.00  0.00    +0.120 A 
ATOM     26  C   UNL     1      -1.757  -1.054   1.210  0.00  0.00    +0.047 A 
ATOM     27  C   UNL     1      -2.979  -1.697   1.219  0.00  0.00    +0.030 A 
ATOM     28  C   UNL     1      -3.650  -1.928   0.026  0.00  0.00    +0.052 A 
ATOM     29  C   UNL     1      -3.092  -1.512  -1.176  0.00  0.00    +0.030 A 
ATOM     30  C   UNL     1      -1.873  -0.864  -1.183  0.00  0.00    +0.047 A 
BRANCH  25  32
ATOM     31  C   UNL     1       0.639   0.194   1.265  0.00  0.00    +0.277 C 
ATOM     32  O   UNL     1       0.003  -0.005   0.001  0.00  0.00    -0.495 OA
ENDBRANCH  25  32
ENDBRANCH   1  28
BRANCH   7  33
ATOM     33  S   UNL     1      -5.949  -0.104   0.280  0.00  0.00    -0.091 S 
ATOM     34  C   UNL     1      -7.681   0.419   0.405  0.00  0.00    +0.093 C 
ENDBRANCH   7  33
TORSDOF 4
