REMARK  Name = ZINC64540106
REMARK  7 active torsions:
REMARK  status: ('A' for Active; 'I' for Inactive)
REMARK    1  A    between atoms: C_1  and  C_2
REMARK    2  A    between atoms: C_5  and  C_21
REMARK    3  A    between atoms: C_7  and  N_8
REMARK    4  A    between atoms: C_9  and  C_11
REMARK    5  A    between atoms: N_23  and  C_24
REMARK    6  A    between atoms: C_24  and  C_25
REMARK    7  A    between atoms: C_25  and  C_26
REMARK                            x       y       z     vdW  Elec       q    Type
REMARK                         _______ _______ _______ _____ _____    ______ ____
ROOT
ATOM      1  C   UNL     1       0.004   1.488   0.001  0.00  0.00    +0.045 C 
ATOM      2  C   UNL     1       0.026  -0.019   0.002  0.00  0.00    -0.029 A 
ATOM      3  C   UNL     1       0.042  -0.709  -1.196  0.00  0.00    +0.006 A 
ATOM      4  C   UNL     1       0.062  -2.088  -1.203  0.00  0.00    +0.013 A 
ATOM      5  C   UNL     1       0.067  -2.792   0.002  0.00  0.00    +0.038 A 
ATOM      6  C   UNL     1       0.051  -2.097   1.211  0.00  0.00    +0.036 A 
ATOM      7  C   UNL     1       0.036  -0.710   1.207  0.00  0.00    +0.037 A 
ENDROOT
BRANCH   7   8
ATOM      8  N   UNL     1       0.025  -0.007   2.417  0.00  0.00    -0.284 N 
ATOM      9  C   UNL     1      -0.632  -0.509   3.482  0.00  0.00    +0.240 C 
ATOM     10  O   UNL     1      -1.147  -1.604   3.416  0.00  0.00    -0.273 OA
ATOM     11  H   UNL     1       0.490   0.841   2.490  0.00  0.00    +0.155 HD
BRANCH   9  12
ATOM     12  C   UNL     1      -0.725   0.292   4.755  0.00  0.00    +0.182 C 
ATOM     13  C   UNL     1      -1.776   1.357   4.583  0.00  0.00    -0.006 A 
ATOM     14  C   UNL     1      -2.049   2.116   3.446  0.00  0.00    +0.007 A 
ATOM     15  C   UNL     1      -3.042   3.071   3.453  0.00  0.00    +0.000 A 
ATOM     16  C   UNL     1      -3.794   3.304   4.589  0.00  0.00    +0.001 A 
ATOM     17  C   UNL     1      -3.546   2.558   5.727  0.00  0.00    +0.016 A 
ATOM     18  C   UNL     1      -2.557   1.597   5.714  0.00  0.00    +0.028 A 
ATOM     19  S   UNL     1      -1.984   0.443   6.938  0.00  0.00    -0.043 S 
ATOM     20  N   UNL     1      -1.020  -0.628   5.878  0.00  0.00    -0.243 NA
ATOM     21  H   UNL     1      -1.568  -1.416   5.565  0.00  0.00    +0.137 HD
ENDBRANCH   9  12
ENDBRANCH   7   8
BRANCH   5  22
ATOM     22  C   UNL     1       0.088  -4.271  -0.002  0.00  0.00    +0.244 C 
ATOM     23  O   UNL     1       0.091  -4.882   1.049  0.00  0.00    -0.270 OA
ATOM     24  N   UNL     1       0.103  -4.941  -1.171  0.00  0.00    -0.311 N 
ATOM     25  H   UNL     1       0.100  -4.453  -2.010  0.00  0.00    +0.149 HD
BRANCH  24  26
ATOM     26  C   UNL     1       0.123  -6.406  -1.176  0.00  0.00    +0.109 C 
BRANCH  26  27
ATOM     27  C   UNL     1       0.137  -6.911  -2.620  0.00  0.00    +0.052 C 
BRANCH  27  28
ATOM     28  C   UNL     1       0.159  -8.418  -2.625  0.00  0.00    -0.040 C 
ATOM     29  C   UNL     1      -0.906  -9.246  -2.732  0.00  0.00    -0.001 A 
ATOM     30  C   UNL     1      -2.346  -9.001  -2.870  0.00  0.00    +0.010 A 
ATOM     31  C   UNL     1      -3.186 -10.058  -2.955  0.00  0.00    +0.001 A 
ATOM     32  C   UNL     1      -2.716 -11.378  -2.916  0.00  0.00    +0.002 A 
ATOM     33  C   UNL     1      -1.407 -11.682  -2.791  0.00  0.00    +0.026 A 
ATOM     34  C   UNL     1      -0.435 -10.649  -2.693  0.00  0.00    +0.043 A 
ATOM     35  N   UNL     1       0.869 -10.687  -2.567  0.00  0.00    -0.380 N 
ATOM     36  C   UNL     1       1.375  -9.310  -2.517  0.00  0.00    +0.144 C 
ATOM     37  H   UNL     1       1.410 -11.491  -2.518  0.00  0.00    +0.160 HD
ENDBRANCH  27  28
ENDBRANCH  26  27
ENDBRANCH  24  26
ENDBRANCH   5  22
TORSDOF 6
