REMARK  Name = ZINC40824417
REMARK  4 active torsions:
REMARK  status: ('A' for Active; 'I' for Inactive)
REMARK    1  A    between atoms: C_1  and  C_2
REMARK    2  A    between atoms: C_9  and  C_11
REMARK    3  A    between atoms: C_12  and  C_25
REMARK    4  A    between atoms: N_20  and  N_21
REMARK                            x       y       z     vdW  Elec       q    Type
REMARK                         _______ _______ _______ _____ _____    ______ ____
ROOT
ATOM      1  C   UNL     1      -0.129  -6.298  -0.953  0.00  0.00    +0.193 A 
ATOM      2  C   UNL     1      -0.226  -7.138  -2.027  0.00  0.00    +0.009 A 
ATOM      3  C   UNL     1      -0.288  -8.435  -1.505  0.00  0.00    +0.042 A 
ATOM      4  C   UNL     1      -0.228  -8.332  -0.135  0.00  0.00    +0.115 A 
ATOM      5  O   UNL     1      -0.125  -7.042   0.176  0.00  0.00    -0.454 OA
ATOM      6  C   UNL     1      -0.273  -9.529   0.780  0.00  0.00    +0.075 C 
ATOM      7  C   UNL     1      -0.893 -10.715   0.037  0.00  0.00    +0.014 C 
ATOM      8  C   UNL     1      -0.170 -10.957  -1.292  0.00  0.00    +0.058 C 
ATOM      9  C   UNL     1      -0.396  -9.746  -2.185  0.00  0.00    +0.070 C 
ATOM     10  N   UNL     1      -0.663  -9.853  -3.450  0.00  0.00    -0.183 NA
ATOM     11  C   UNL     1      -0.260  -6.746  -3.482  0.00  0.00    +0.048 C 
ENDROOT
BRANCH   1  20
ATOM     12  C   UNL     1      -0.026   1.495  -0.184  0.00  0.00    +0.045 C 
ATOM     13  C   UNL     1      -0.004  -0.007  -0.065  0.00  0.00    -0.032 A 
ATOM     14  C   UNL     1       0.010  -0.610   1.186  0.00  0.00    +0.008 A 
ATOM     15  C   UNL     1       0.031  -1.992   1.251  0.00  0.00    +0.044 A 
ATOM     16  C   UNL     1       0.037  -2.725   0.070  0.00  0.00    +0.125 A 
ATOM     17  N   UNL     1       0.024  -2.113  -1.104  0.00  0.00    -0.240 NA
ATOM     18  C   UNL     1      -0.002  -0.797  -1.197  0.00  0.00    +0.116 A 
ATOM     19  N   UNL     1       0.058  -4.117   0.121  0.00  0.00    -0.264 N 
ATOM     20  C   UNL     1      -0.039  -4.835  -1.015  0.00  0.00    +0.285 C 
ATOM     21  O   UNL     1      -0.052  -4.270  -2.093  0.00  0.00    -0.266 OA
ATOM     22  H   UNL     1       0.143  -4.569   0.975  0.00  0.00    +0.157 HD
ENDBRANCH   1  20
BRANCH  10  23
ATOM     23  N   UNL     1      -0.753 -11.120  -4.041  0.00  0.00    -0.191 N 
ATOM     24  C   UNL     1      -1.031 -11.232  -5.355  0.00  0.00    +0.317 C 
ATOM     25  O   UNL     1      -1.109 -12.332  -5.869  0.00  0.00    -0.251 OA
ATOM     26  N   UNL     1      -1.223 -10.125  -6.100  0.00  0.00    -0.312 N 
ATOM     27  H   UNL     1      -0.615 -11.917  -3.505  0.00  0.00    +0.179 HD
ATOM     28  H   UNL     1      -1.161  -9.248  -5.690  0.00  0.00    +0.147 HD
ATOM     29  H   UNL     1      -1.423 -10.206  -7.046  0.00  0.00    +0.147 HD
ENDBRANCH  10  23
TORSDOF 2
