REMARK  Name = ZINC39462036
REMARK  7 active torsions:
REMARK  status: ('A' for Active; 'I' for Inactive)
REMARK    1  A    between atoms: C_1  and  O_2
REMARK    2  A    between atoms: O_2  and  C_3
REMARK    3  A    between atoms: C_3  and  C_4
REMARK    4  A    between atoms: C_4  and  N_5
REMARK    5  A    between atoms: C_6  and  C_8
REMARK    6  A    between atoms: C_8  and  S_9
REMARK    7  A    between atoms: S_9  and  C_10
REMARK                            x       y       z     vdW  Elec       q    Type
REMARK                         _______ _______ _______ _____ _____    ______ ____
ROOT
ATOM      1  C   UNL     1       1.311  -6.500   4.267  0.00  0.00    +0.182 C 
ATOM      2  N   UNL     1       1.599  -5.498   5.080  0.00  0.00    -0.151 NA
ATOM      3  C   UNL     1       2.178  -5.678   6.267  0.00  0.00    +0.272 C 
ATOM      4  O   UNL     1       2.432  -4.731   6.992  0.00  0.00    -0.268 OA
ATOM      5  C   UNL     1       2.508  -7.080   6.684  0.00  0.00    +0.071 C 
ATOM      6  C   UNL     1       3.031  -7.489   7.852  0.00  0.00    -0.042 C 
ATOM      7  C   UNL     1       3.233  -6.577   9.059  0.00  0.00    +0.033 C 
ATOM      8  C   UNL     1       2.505  -7.236  10.238  0.00  0.00    +0.004 C 
ATOM      9  C   UNL     1       2.966  -8.682  10.403  0.00  0.00    +0.002 C 
ATOM     10  C   UNL     1       2.598  -9.516   9.172  0.00  0.00    +0.019 C 
ATOM     11  C   UNL     1       3.369  -8.972   7.966  0.00  0.00    +0.079 C 
ATOM     12  S   UNL     1       2.661  -9.644   6.415  0.00  0.00    -0.097 S 
ATOM     13  C   UNL     1       2.148  -8.109   5.686  0.00  0.00    +0.112 C 
ATOM     14  N   UNL     1       1.573  -7.774   4.559  0.00  0.00    -0.217 NA
ENDROOT
BRANCH   1  15
ATOM     15  S   UNL     1       0.537  -6.134   2.727  0.00  0.00    -0.079 S 
BRANCH  15  16
ATOM     16  C   UNL     1       0.369  -4.328   2.738  0.00  0.00    +0.172 C 
BRANCH  16  18
ATOM     17  N   UNL     1      -0.515  -2.565   1.245  0.00  0.00    -0.312 N 
ATOM     18  C   UNL     1      -0.287  -3.876   1.459  0.00  0.00    +0.223 C 
ATOM     19  O   UNL     1      -0.610  -4.693   0.622  0.00  0.00    -0.275 OA
ATOM     20  H   UNL     1      -0.257  -1.913   1.914  0.00  0.00    +0.149 HD
BRANCH  17  21
ATOM     21  C   UNL     1      -1.154  -2.126   0.002  0.00  0.00    +0.132 C 
BRANCH  21  22
ATOM     22  C   UNL     1      -1.295  -0.603   0.011  0.00  0.00    +0.178 C 
BRANCH  22  24
ATOM     23  C   UNL     1      -0.017   1.425   0.010  0.00  0.00    +0.194 C 
ATOM     24  O   UNL     1       0.002  -0.004   0.002  0.00  0.00    -0.381 OA
ENDBRANCH  22  24
ENDBRANCH  21  22
ENDBRANCH  17  21
ENDBRANCH  16  18
ENDBRANCH  15  16
ENDBRANCH   1  15
TORSDOF 6
