REMARK  Name = ZINC24505949
REMARK  4 active torsions:
REMARK  status: ('A' for Active; 'I' for Inactive)
REMARK    1  A    between atoms: C_4  and  N_9
REMARK    2  A    between atoms: C_5  and  C_6
REMARK    3  A    between atoms: C_10  and  C_12
REMARK    4  A    between atoms: C_12  and  N_13
REMARK                            x       y       z     vdW  Elec       q    Type
REMARK                         _______ _______ _______ _____ _____    ______ ____
ROOT
ATOM      1  N   UNL     1       2.332   3.313  -0.003  0.00  0.00    -0.278 N 
ATOM      2  C   UNL     1       1.618   4.456   0.010  0.00  0.00    +0.235 C 
ATOM      3  O   UNL     1       0.406   4.414   0.022  0.00  0.00    -0.274 OA
ATOM      4  H   UNL     1       3.432   3.351  -0.013  0.00  0.00    +0.155 HD
ENDROOT
BRANCH   1   8
ATOM      5  C   UNL     1       1.315  -0.296  -0.012  0.00  0.00    +0.022 A 
ATOM      6  C   UNL     1       0.002  -0.004   0.002  0.00  0.00    +0.048 A 
ATOM      7  S   UNL     1      -0.022   1.776   0.012  0.00  0.00    -0.081 S 
ATOM      8  C   UNL     1       1.681   2.089  -0.003  0.00  0.00    +0.084 A 
ATOM      9  C   UNL     1       2.237   0.815  -0.015  0.00  0.00    +0.065 A 
BRANCH   9  10
ATOM     10  C   UNL     1       3.689   0.610  -0.030  0.00  0.00    +0.244 C 
ATOM     11  O   UNL     1       4.439   1.568  -0.033  0.00  0.00    -0.270 OA
ATOM     12  N   UNL     1       4.192  -0.640  -0.042  0.00  0.00    -0.325 N 
ATOM     13  H   UNL     1       5.282  -0.794  -0.053  0.00  0.00    +0.145 HD
ATOM     14  H   UNL     1       3.514  -1.506  -0.040  0.00  0.00    +0.145 HD
ENDBRANCH   9  10
ENDBRANCH   1   8
BRANCH   2  15
ATOM     15  C   UNL     1       2.326   5.787   0.010  0.00  0.00    +0.212 C 
BRANCH  15  16
ATOM     16  N   UNL     1       1.336   6.866   0.025  0.00  0.00    -0.233 N 
ATOM     17  C   UNL     1       0.858   7.395   1.159  0.00  0.00    +0.223 C 
ATOM     18  O   UNL     1       1.173   7.058   2.280  0.00  0.00    -0.275 OA
ATOM     19  C   UNL     1      -0.140   8.482   0.818  0.00  0.00    +0.112 C 
ATOM     20  C   UNL     1      -0.151   8.486  -0.720  0.00  0.00    +0.056 C 
ATOM     21  C   UNL     1       0.839   7.411  -1.094  0.00  0.00    +0.229 C 
ATOM     22  O   UNL     1       1.135   7.090  -2.224  0.00  0.00    -0.275 OA
ATOM     23  C   UNL     1       0.307   9.840  -1.248  0.00  0.00    +0.016 C 
ATOM     24  C   UNL     1       0.310   9.820  -2.778  0.00  0.00    +0.001 C 
ATOM     25  C   UNL     1      -1.099   9.505  -3.285  0.00  0.00    +0.000 C 
ATOM     26  C   UNL     1      -1.533   8.132  -2.768  0.00  0.00    +0.001 C 
ATOM     27  C   UNL     1      -1.544   8.145  -1.238  0.00  0.00    +0.016 C 
ENDBRANCH  15  16
ENDBRANCH   2  15
TORSDOF 4
