REMARK  Name = ZINC54381807
REMARK  8 active torsions:
REMARK  status: ('A' for Active; 'I' for Inactive)
REMARK    1  A    between atoms: C_1  and  C_2
REMARK    2  A    between atoms: C_6  and  C_22
REMARK    3  A    between atoms: C_8  and  O_11
REMARK    4  A    between atoms: O_11  and  C_12
REMARK    5  A    between atoms: C_13  and  C_18
REMARK    6  A    between atoms: N_19  and  O_20
REMARK    7  A    between atoms: C_22  and  C_23
REMARK    8  A    between atoms: C_22  and  C_24
REMARK                            x       y       z     vdW  Elec       q    Type
REMARK                         _______ _______ _______ _____ _____    ______ ____
ROOT
ATOM      1  C   UNL     1       2.785  -2.706   2.304  0.00  0.00    +0.245 A 
ATOM      2  C   UNL     1       3.520  -3.178   3.401  0.00  0.00    +0.168 A 
ATOM      3  N   UNL     1       4.832  -3.358   3.286  0.00  0.00    -0.245 NA
ATOM      4  C   UNL     1       5.436  -3.092   2.143  0.00  0.00    +0.131 A 
ATOM      5  C   UNL     1       4.710  -2.625   1.061  0.00  0.00    +0.134 A 
ATOM      6  N   UNL     1       3.403  -2.448   1.161  0.00  0.00    -0.218 NA
ENDROOT
BRANCH   2   7
ATOM      7  C   UNL     1       2.838  -3.475   4.680  0.00  0.00    +0.186 C 
ATOM      8  N   UNL     1       1.554  -3.298   4.789  0.00  0.00    -0.070 NA
ATOM      9  N   UNL     1       3.567  -3.942   5.761  0.00  0.00    -0.339 N 
ATOM     10  H   UNL     1       4.525  -4.074   5.680  0.00  0.00    +0.144 HD
ATOM     11  H   UNL     1       3.120  -4.136   6.600  0.00  0.00    +0.144 HD
BRANCH   8  12
ATOM     12  O   UNL     1       0.902  -3.582   6.013  0.00  0.00    -0.408 OA
ATOM     13  H   UNL     1      -0.051  -3.420   5.998  0.00  0.00    +0.328 HD
ENDBRANCH   8  12
ENDBRANCH   2   7
BRANCH   1  14
ATOM     14  O   UNL     1       1.447  -2.519   2.411  0.00  0.00    -0.471 OA
BRANCH  14  20
ATOM     15  C   UNL     1      -0.008   1.530   0.036  0.00  0.00    +0.007 C 
ATOM     16  C   UNL     1       0.012   0.000   0.022  0.00  0.00    -0.011 C 
ATOM     17  C   UNL     1      -1.424  -0.529   0.021  0.00  0.00    +0.004 C 
ATOM     18  C   UNL     1      -1.403  -2.059   0.007  0.00  0.00    +0.007 C 
ATOM     19  C   UNL     1      -0.672  -2.570   1.250  0.00  0.00    +0.032 C 
ATOM     20  C   UNL     1       0.764  -2.041   1.250  0.00  0.00    +0.179 C 
ATOM     21  C   UNL     1       0.743  -0.511   1.264  0.00  0.00    +0.048 C 
BRANCH  19  22
ATOM     22  C   UNL     1      -0.652  -4.100   1.236  0.00  0.00    -0.011 C 
ATOM     23  C   UNL     1      -2.080  -4.630   1.372  0.00  0.00    +0.007 C 
ATOM     24  C   UNL     1      -0.050  -4.590  -0.083  0.00  0.00    +0.007 C 
ENDBRANCH  19  22
ENDBRANCH  14  20
ENDBRANCH   1  14
TORSDOF 5
