REMARK  Name = ZINC25005206
REMARK  6 active torsions:
REMARK  status: ('A' for Active; 'I' for Inactive)
REMARK    1  A    between atoms: C_1  and  C_2
REMARK    2  A    between atoms: C_5  and  C_7
REMARK    3  A    between atoms: C_9  and  C_17
REMARK    4  A    between atoms: C_11  and  C_16
REMARK    5  A    between atoms: N_19  and  N_20
REMARK    6  A    between atoms: C_21  and  C_23
REMARK                            x       y       z     vdW  Elec       q    Type
REMARK                         _______ _______ _______ _____ _____    ______ ____
ROOT
ATOM      1  C   UNL     1      -7.177   2.137  -0.604  0.00  0.00    +0.261 C 
ATOM      2  O   UNL     1      -7.286   1.159  -1.317  0.00  0.00    -0.269 OA
ATOM      3  N   UNL     1      -5.956   2.568  -0.232  0.00  0.00    -0.230 N 
ATOM      4  H   UNL     1      -5.858   3.453   0.414  0.00  0.00    +0.173 HD
ENDROOT
BRANCH   1   7
ATOM      5  C   UNL     1      -9.460   4.708   0.954  0.00  0.00    +0.082 A 
ATOM      6  C   UNL     1      -8.288   4.063   0.536  0.00  0.00    +0.043 A 
ATOM      7  C   UNL     1      -8.387   2.854  -0.143  0.00  0.00    +0.054 A 
ATOM      8  C   UNL     1      -9.677   2.335  -0.384  0.00  0.00    +0.076 A 
ATOM      9  C   UNL     1     -10.176   1.127  -1.038  0.00  0.00    +0.091 A 
ATOM     10  N   UNL     1     -11.473   1.154  -0.965  0.00  0.00    -0.080 NA
ATOM     11  O   UNL     1     -11.888   2.321  -0.286  0.00  0.00    -0.334 OA
ATOM     12  C   UNL     1     -10.804   3.041   0.072  0.00  0.00    +0.260 A 
ATOM     13  N   UNL     1     -10.656   4.188   0.714  0.00  0.00    -0.209 NA
ATOM     14  C   UNL     1      -9.341   0.052  -1.684  0.00  0.00    +0.070 C 
BRANCH   5  19
ATOM     15  C   UNL     1      -8.103   9.494   3.598  0.00  0.00    +0.051 C 
ATOM     16  C   UNL     1      -8.715   8.283   2.941  0.00  0.00    -0.013 A 
ATOM     17  C   UNL     1     -10.027   7.952   2.814  0.00  0.00    +0.011 A 
ATOM     18  C   UNL     1     -10.364   6.787   2.164  0.00  0.00    +0.018 A 
ATOM     19  C   UNL     1      -9.360   5.991   1.675  0.00  0.00    +0.038 A 
ATOM     20  S   UNL     1      -7.902   6.915   2.131  0.00  0.00    -0.092 S 
ENDBRANCH   5  19
ENDBRANCH   1   7
BRANCH   3  21
ATOM     21  N   UNL     1      -4.811   1.889  -0.668  0.00  0.00    -0.231 N 
ATOM     22  C   UNL     1      -3.589   2.320  -0.296  0.00  0.00    +0.273 C 
ATOM     23  O   UNL     1      -3.481   3.296   0.416  0.00  0.00    -0.270 OA
ATOM     24  H   UNL     1      -4.909   1.004  -1.314  0.00  0.00    +0.173 HD
BRANCH  22  25
ATOM     25  C   UNL     1      -2.357   1.590  -0.765  0.00  0.00    +0.297 C 
ATOM     26  C   UNL     1      -2.337   0.175  -0.171  0.00  0.00    +0.283 C 
ATOM     27  O   UNL     1      -1.149  -0.484  -0.625  0.00  0.00    -0.484 OA
ATOM     28  C   UNL     1       0.011   0.223  -0.547  0.00  0.00    +0.162 A 
ATOM     29  C   UNL     1       1.223  -0.447  -0.619  0.00  0.00    +0.049 A 
ATOM     30  C   UNL     1       2.409   0.259  -0.548  0.00  0.00    +0.004 A 
ATOM     31  C   UNL     1       2.391   1.634  -0.405  0.00  0.00    +0.004 A 
ATOM     32  C   UNL     1       1.187   2.307  -0.330  0.00  0.00    +0.049 A 
ATOM     33  C   UNL     1      -0.008   1.605  -0.400  0.00  0.00    +0.163 A 
ATOM     34  O   UNL     1      -1.186   2.281  -0.317  0.00  0.00    -0.472 OA
ENDBRANCH  22  25
ENDBRANCH   3  21
TORSDOF 4
