REMARK  Name = ZINC35464356
REMARK  17 active torsions:
REMARK  status: ('A' for Active; 'I' for Inactive)
REMARK    1  A    between atoms: C_1  and  C_2
REMARK    2  A    between atoms: C_4  and  C_11
REMARK    3  A    between atoms: C_8  and  C_9
REMARK    4  A    between atoms: C_8  and  O_10
REMARK    5  A    between atoms: C_11  and  C_12
REMARK    6  A    between atoms: C_11  and  C_13
REMARK    7  A    between atoms: C_11  and  O_19
REMARK    8  A    between atoms: C_13  and  C_14
REMARK    9  A    between atoms: C_14  and  C_15
REMARK   10  A    between atoms: C_16  and  C_17
REMARK   11  A    between atoms: C_16  and  C_18
REMARK   12  A    between atoms: O_19  and  C_20
REMARK   13  A    between atoms: C_22  and  O_35
REMARK   14  A    between atoms: C_24  and  O_34
REMARK   15  A    between atoms: C_26  and  O_33
REMARK   16  A    between atoms: C_28  and  C_31
REMARK   17  A    between atoms: C_31  and  O_32
REMARK                            x       y       z     vdW  Elec       q    Type
REMARK                         _______ _______ _______ _____ _____    ______ ____
ROOT
ATOM      1  C   UNL     1      -1.467  -1.642  -2.408  0.00  0.00    +0.073 C 
ATOM      2  C   UNL     1      -2.671  -1.024  -3.120  0.00  0.00    +0.042 C 
ENDROOT
BRANCH   1   5
ATOM      3  C   UNL     1       0.136  -1.407   0.810  0.00  0.00    +0.011 C 
ATOM      4  C   UNL     1       0.329  -1.228  -0.698  0.00  0.00    +0.023 C 
ATOM      5  C   UNL     1      -0.961  -0.679  -1.332  0.00  0.00    +0.026 C 
ATOM      6  C   UNL     1      -0.596   0.679  -1.967  0.00  0.00    +0.009 C 
ATOM      7  C   UNL     1       0.658   1.140  -1.184  0.00  0.00    +0.035 C 
ATOM      8  C   UNL     1       1.433  -0.185  -0.969  0.00  0.00    +0.066 C 
ATOM      9  C   UNL     1       2.222  -0.555  -2.227  0.00  0.00    +0.041 C 
BRANCH   8  10
ATOM     10  O   UNL     1       2.307  -0.077   0.157  0.00  0.00    -0.389 OA
ATOM     11  H   UNL     1       3.021   0.565   0.041  0.00  0.00    +0.210 HD
ENDBRANCH   8  10
ENDBRANCH   1   5
BRANCH   1  12
ATOM     12  C   UNL     1      -0.352  -1.904  -3.423  0.00  0.00    +0.039 C 
BRANCH  12  13
ATOM     13  C   UNL     1      -0.895  -2.766  -4.565  0.00  0.00    +0.030 C 
BRANCH  13  14
ATOM     14  C   UNL     1       0.203  -3.024  -5.565  0.00  0.00    -0.028 C 
ATOM     15  C   UNL     1       0.581  -4.252  -5.821  0.00  0.00    -0.080 C 
ATOM     16  C   UNL     1       0.022  -5.396  -5.014  0.00  0.00    +0.038 C 
ATOM     17  C   UNL     1       1.575  -4.520  -6.920  0.00  0.00    +0.038 C 
ENDBRANCH  13  14
ENDBRANCH  12  13
ENDBRANCH   1  12
BRANCH   1  18
ATOM     18  O   UNL     1      -1.855  -2.875  -1.798  0.00  0.00    -0.342 OA
BRANCH  18  19
ATOM     19  C   UNL     1      -2.972  -2.760  -0.915  0.00  0.00    +0.282 C 
ATOM     20  C   UNL     1      -3.052  -4.005  -0.028  0.00  0.00    +0.201 C 
ATOM     21  C   UNL     1      -4.286  -3.903   0.873  0.00  0.00    +0.179 C 
ATOM     22  C   UNL     1      -5.531  -3.733  -0.003  0.00  0.00    +0.177 C 
ATOM     23  C   UNL     1      -5.356  -2.498  -0.891  0.00  0.00    +0.178 C 
ATOM     24  O   UNL     1      -4.174  -2.644  -1.680  0.00  0.00    -0.341 OA
BRANCH  22  25
ATOM     25  O   UNL     1      -5.701  -4.891  -0.821  0.00  0.00    -0.386 OA
ATOM     26  H   UNL     1      -5.814  -5.712  -0.323  0.00  0.00    +0.210 HD
ENDBRANCH  22  25
BRANCH  21  27
ATOM     27  O   UNL     1      -4.408  -5.093   1.654  0.00  0.00    -0.386 OA
ATOM     28  H   UNL     1      -3.650  -5.266   2.229  0.00  0.00    +0.210 HD
ENDBRANCH  21  27
BRANCH  20  29
ATOM     29  O   UNL     1      -3.154  -5.171  -0.849  0.00  0.00    -0.384 OA
ATOM     30  H   UNL     1      -3.208  -5.998  -0.351  0.00  0.00    +0.210 HD
ENDBRANCH  20  29
BRANCH  23  31
ATOM     31  C   UNL     1      -6.570  -2.355  -1.811  0.00  0.00    +0.190 C 
BRANCH  31  32
ATOM     32  O   UNL     1      -6.462  -1.141  -2.557  0.00  0.00    -0.392 OA
ATOM     33  H   UNL     1      -7.199  -0.985  -3.163  0.00  0.00    +0.210 HD
ENDBRANCH  31  32
ENDBRANCH  23  31
ENDBRANCH  18  19
ENDBRANCH   1  18
TORSDOF 12
