REMARK  Name = ZINC09238594
REMARK  7 active torsions:
REMARK  status: ('A' for Active; 'I' for Inactive)
REMARK    1  A    between atoms: C_1  and  C_2
REMARK    2  A    between atoms: C_5  and  N_8
REMARK    3  A    between atoms: C_9  and  C_11
REMARK    4  A    between atoms: C_13  and  C_23
REMARK    5  A    between atoms: C_17  and  C_22
REMARK    6  A    between atoms: C_26  and  O_30
REMARK    7  A    between atoms: O_30  and  C_31
REMARK                            x       y       z     vdW  Elec       q    Type
REMARK                         _______ _______ _______ _____ _____    ______ ____
ROOT
ATOM      1  C   UNL     1       0.002  -0.004   0.009  0.00  0.00    +0.166 C 
ATOM      2  C   UNL     1      -1.200  -0.540  -0.779  0.00  0.00    +0.140 C 
ATOM      3  N   UNL     1      -2.426   0.147  -0.372  0.00  0.00    -0.272 N 
ATOM      4  N   UNL     1      -2.719   0.006   0.947  0.00  0.00    -0.225 N 
ATOM      5  C   UNL     1      -3.934   0.157   1.551  0.00  0.00    +0.148 A 
ATOM      6  N   UNL     1      -3.760  -0.050   2.828  0.00  0.00    -0.132 NA
ATOM      7  N   UNL     1      -2.525  -0.323   3.070  0.00  0.00    -0.121 NA
ATOM      8  C   UNL     1      -1.850  -0.306   1.954  0.00  0.00    +0.209 A 
ATOM      9  S   UNL     1      -0.130  -0.621   1.714  0.00  0.00    -0.069 S 
ATOM     10  C   UNL     1      -5.234   0.497   0.870  0.00  0.00    +0.090 C 
ATOM     11  H   UNL     1      -3.206  -0.134  -0.948  0.00  0.00    +0.167 HD
ENDROOT
BRANCH   2  12
ATOM     12  C   UNL     1      -0.969  -0.317  -2.252  0.00  0.00    -0.023 A 
ATOM     13  C   UNL     1      -0.526  -1.358  -3.047  0.00  0.00    +0.009 A 
ATOM     14  C   UNL     1      -0.313  -1.156  -4.397  0.00  0.00    +0.047 A 
ATOM     15  C   UNL     1      -0.546   0.091  -4.956  0.00  0.00    +0.138 A 
ATOM     16  C   UNL     1      -0.992   1.135  -4.157  0.00  0.00    +0.083 A 
ATOM     17  C   UNL     1      -1.207   0.927  -2.807  0.00  0.00    +0.029 A 
ATOM     18 CL   UNL     1      -1.284   2.699  -4.852  0.00  0.00    -0.080 Cl
BRANCH  15  19
ATOM     19  O   UNL     1      -0.339   0.292  -6.284  0.00  0.00    -0.494 OA
ATOM     20  C   UNL     1       0.120  -0.827  -7.045  0.00  0.00    +0.277 C 
ENDBRANCH  15  19
ENDBRANCH   2  12
BRANCH   1  22
ATOM     21  N   UNL     1       1.139   2.192   0.003  0.00  0.00    -0.285 N 
ATOM     22  C   UNL     1      -0.018   1.503   0.009  0.00  0.00    +0.233 C 
ATOM     23  O   UNL     1      -1.077   2.095   0.009  0.00  0.00    -0.274 OA
ATOM     24  H   UNL     1       1.985   1.721   0.067  0.00  0.00    +0.155 HD
BRANCH  21  29
ATOM     25  C   UNL     1       1.069   7.851  -0.393  0.00  0.00    +0.044 C 
ATOM     26  C   UNL     1       1.087   6.348  -0.288  0.00  0.00    -0.050 A 
ATOM     27  C   UNL     1       0.091   5.693   0.412  0.00  0.00    +0.005 A 
ATOM     28  C   UNL     1       0.105   4.315   0.510  0.00  0.00    +0.023 A 
ATOM     29  C   UNL     1       1.122   3.588  -0.095  0.00  0.00    +0.033 A 
ATOM     30  C   UNL     1       2.124   4.250  -0.792  0.00  0.00    +0.023 A 
ATOM     31  C   UNL     1       2.101   5.627  -0.892  0.00  0.00    +0.005 A 
ENDBRANCH  21  29
ENDBRANCH   1  22
TORSDOF 4
