REMARK  Name = ZINC16841830
REMARK  10 active torsions:
REMARK  status: ('A' for Active; 'I' for Inactive)
REMARK    1  A    between atoms: C_1  and  C_2
REMARK    2  A    between atoms: C_7  and  C_8
REMARK    3  A    between atoms: C_10  and  C_14
REMARK    4  A    between atoms: C_11  and  C_13
REMARK    5  A    between atoms: C_14  and  S_15
REMARK    6  A    between atoms: S_15  and  C_16
REMARK    7  A    between atoms: C_18  and  C_30
REMARK    8  A    between atoms: C_19  and  C_23
REMARK    9  A    between atoms: C_20  and  O_22
REMARK   10  A    between atoms: C_23  and  C_24
REMARK                            x       y       z     vdW  Elec       q    Type
REMARK                         _______ _______ _______ _____ _____    ______ ____
ROOT
ATOM      1  C   UNL     1       1.255   0.005   0.906  0.00  0.00    +0.192 A 
ATOM      2  N   UNL     1       0.235  -0.839   0.966  0.00  0.00    -0.227 NA
ATOM      3  C   UNL     1       0.437  -2.138   1.125  0.00  0.00    +0.050 A 
ATOM      4  C   UNL     1       1.732  -2.613   1.228  0.00  0.00    +0.039 A 
ATOM      5  C   UNL     1       2.783  -1.700   1.161  0.00  0.00    +0.220 A 
ATOM      6  N   UNL     1       2.509  -0.412   0.996  0.00  0.00    -0.187 NA
ATOM      7  C   UNL     1      -0.731  -3.088   1.192  0.00  0.00    +0.066 C 
ENDROOT
BRANCH   5   8
ATOM      8  O   UNL     1       4.067  -2.123   1.258  0.00  0.00    -0.492 OA
ATOM      9  H   UNL     1       4.472  -2.348   0.410  0.00  0.00    +0.294 HD
ENDBRANCH   5   8
BRANCH   1  10
ATOM     10  S   UNL     1       0.935   1.725   0.693  0.00  0.00    -0.080 S 
BRANCH  10  11
ATOM     11  C   UNL     1       2.629   2.361   0.682  0.00  0.00    +0.136 C 
BRANCH  11  14
ATOM     12  C   UNL     1       2.594   5.806  -0.417  0.00  0.00    +0.228 A 
ATOM     13  N   UNL     1       2.635   4.517  -0.661  0.00  0.00    -0.213 NA
ATOM     14  C   UNL     1       2.603   3.858   0.507  0.00  0.00    +0.093 A 
ATOM     15  C   UNL     1       2.549   4.771   1.494  0.00  0.00    +0.127 A 
ATOM     16  O   UNL     1       2.543   5.987   0.914  0.00  0.00    -0.440 OA
ATOM     17  C   UNL     1       2.502   4.485   2.973  0.00  0.00    +0.088 C 
BRANCH  12  24
ATOM     18  C   UNL     1       0.699   7.983  -0.226  0.00  0.00    +0.044 C 
ATOM     19  C   UNL     1       1.699   7.933  -1.353  0.00  0.00    -0.038 A 
ATOM     20  C   UNL     1       1.717   8.931  -2.305  0.00  0.00    +0.004 A 
ATOM     21  C   UNL     1       2.634   8.887  -3.340  0.00  0.00    +0.000 A 
ATOM     22  C   UNL     1       3.539   7.843  -3.427  0.00  0.00    +0.001 A 
ATOM     23  C   UNL     1       3.534   6.842  -2.478  0.00  0.00    +0.013 A 
ATOM     24  C   UNL     1       2.608   6.878  -1.435  0.00  0.00    +0.040 A 
ENDBRANCH  12  24
ENDBRANCH  11  14
ENDBRANCH  10  11
ENDBRANCH   1  10
BRANCH   4  25
ATOM     25  C   UNL     1       2.000  -4.085   1.410  0.00  0.00    +0.077 C 
BRANCH  25  26
ATOM     26  C   UNL     1       2.141  -4.740   0.060  0.00  0.00    -0.043 A 
ATOM     27  C   UNL     1       1.030  -5.263  -0.575  0.00  0.00    +0.004 A 
ATOM     28  C   UNL     1       1.159  -5.859  -1.815  0.00  0.00    +0.000 A 
ATOM     29  C   UNL     1       2.401  -5.943  -2.416  0.00  0.00    +0.000 A 
ATOM     30  C   UNL     1       3.514  -5.426  -1.778  0.00  0.00    +0.000 A 
ATOM     31  C   UNL     1       3.384  -4.824  -0.540  0.00  0.00    +0.004 A 
ENDBRANCH  25  26
ENDBRANCH   4  25
TORSDOF 7
