REMARK  Name = ZINC22189977
REMARK  7 active torsions:
REMARK  status: ('A' for Active; 'I' for Inactive)
REMARK    1  A    between atoms: C_1  and  C_2
REMARK    2  A    between atoms: N_6  and  C_14
REMARK    3  A    between atoms: C_14  and  C_15
REMARK    4  A    between atoms: N_17  and  N_18
REMARK    5  A    between atoms: C_19  and  C_21
REMARK    6  A    between atoms: N_23  and  C_32
REMARK    7  A    between atoms: C_25  and  C_26
REMARK                            x       y       z     vdW  Elec       q    Type
REMARK                         _______ _______ _______ _____ _____    ______ ____
ROOT
ATOM      1  N   UNL     1      -5.739  -1.772   3.135  0.00  0.00    -0.230 N 
ATOM      2  C   UNL     1      -7.017  -2.149   3.335  0.00  0.00    +0.264 C 
ATOM      3  O   UNL     1      -7.578  -2.854   2.518  0.00  0.00    -0.269 OA
ATOM      4  H   UNL     1      -5.231  -1.134   3.874  0.00  0.00    +0.173 HD
ENDROOT
BRANCH   2   5
ATOM      5  C   UNL     1      -7.734  -1.708   4.543  0.00  0.00    +0.084 A 
ATOM      6  C   UNL     1      -7.236  -0.917   5.558  0.00  0.00    +0.128 A 
ATOM      7  N   UNL     1      -8.212  -0.749   6.467  0.00  0.00    -0.239 N 
ATOM      8  N   UNL     1      -9.358  -1.437   6.058  0.00  0.00    -0.166 NA
ATOM      9  C   UNL     1      -9.118  -2.028   4.909  0.00  0.00    +0.105 A 
BRANCH   9  10
ATOM     10  C   UNL     1     -10.066  -2.860   4.130  0.00  0.00    +0.003 A 
ATOM     11  C   UNL     1     -10.045  -2.826   2.736  0.00  0.00    +0.010 A 
ATOM     12  C   UNL     1     -10.926  -3.607   2.017  0.00  0.00    +0.001 A 
ATOM     13  C   UNL     1     -11.837  -4.413   2.675  0.00  0.00    +0.000 A 
ATOM     14  C   UNL     1     -11.867  -4.446   4.058  0.00  0.00    +0.001 A 
ATOM     15  C   UNL     1     -10.987  -3.674   4.788  0.00  0.00    +0.010 A 
ENDBRANCH   9  10
BRANCH   7  16
ATOM     16  C   UNL     1      -8.097  -0.003   7.647  0.00  0.00    +0.065 A 
ATOM     17  C   UNL     1      -6.902   0.636   7.952  0.00  0.00    +0.028 A 
ATOM     18  C   UNL     1      -6.793   1.376   9.113  0.00  0.00    +0.002 A 
ATOM     19  C   UNL     1      -7.869   1.472   9.977  0.00  0.00    +0.000 A 
ATOM     20  C   UNL     1      -9.058   0.833   9.678  0.00  0.00    +0.002 A 
ATOM     21  C   UNL     1      -9.175   0.096   8.516  0.00  0.00    +0.028 A 
ENDBRANCH   7  16
ENDBRANCH   2   5
BRANCH   1  24
ATOM     22  C   UNL     1      -3.778  -1.814   1.786  0.00  0.00    +0.247 C 
ATOM     23  O   UNL     1      -3.218  -1.111   2.600  0.00  0.00    -0.273 OA
ATOM     24  N   UNL     1      -5.056  -2.191   1.986  0.00  0.00    -0.233 N 
ATOM     25  H   UNL     1      -5.564  -2.829   1.247  0.00  0.00    +0.173 HD
BRANCH  22  26
ATOM     26  C   UNL     1      -3.044  -2.265   0.549  0.00  0.00    +0.211 C 
BRANCH  26  31
ATOM     27  C   UNL     1      -0.019   1.526   0.010  0.00  0.00    +0.062 C 
ATOM     28  C   UNL     1       0.002  -0.004   0.002  0.00  0.00    +0.256 C 
ATOM     29  C   UNL     1      -1.413  -0.525   0.009  0.00  0.00    +0.261 C 
ATOM     30  O   UNL     1      -2.305   0.131  -0.485  0.00  0.00    -0.271 OA
ATOM     31  N   UNL     1      -1.682  -1.726   0.566  0.00  0.00    -0.256 N 
ATOM     32  C   UNL     1      -0.637  -2.448   1.161  0.00  0.00    +0.079 A 
ATOM     33  C   UNL     1      -0.785  -3.793   1.456  0.00  0.00    +0.027 A 
ATOM     34  C   UNL     1       0.257  -4.487   2.044  0.00  0.00    +0.002 A 
ATOM     35  C   UNL     1       1.444  -3.841   2.337  0.00  0.00    +0.004 A 
ATOM     36  C   UNL     1       1.598  -2.498   2.045  0.00  0.00    +0.047 A 
ATOM     37  C   UNL     1       0.560  -1.798   1.456  0.00  0.00    +0.143 A 
ATOM     38  O   UNL     1       0.694  -0.477   1.161  0.00  0.00    -0.478 OA
ENDBRANCH  26  31
ENDBRANCH  22  26
ENDBRANCH   1  24
TORSDOF 6
